REMARK  Name = ZINC14991361
REMARK  12 active torsions:
REMARK  status: ('A' for Active; 'I' for Inactive)
REMARK    1  A    between atoms: C_1  and  C_2
REMARK    2  A    between atoms: C_2  and  O_3
REMARK    3  A    between atoms: O_3  and  C_4
REMARK    4  A    between atoms: C_4  and  C_6
REMARK    5  A    between atoms: C_13  and  C_26
REMARK    6  A    between atoms: C_16  and  O_24
REMARK    7  A    between atoms: C_19  and  O_22
REMARK    8  A    between atoms: O_22  and  C_23
REMARK    9  A    between atoms: O_24  and  C_25
REMARK   10  A    between atoms: C_26  and  N_27
REMARK   11  A    between atoms: N_27  and  C_28
REMARK   12  A    between atoms: C_28  and  C_29
REMARK                            x       y       z     vdW  Elec       q    Type
REMARK                         _______ _______ _______ _____ _____    ______ ____
ROOT
ATOM      1  C   UNL     1       6.343   2.242  -5.122  0.00  0.00    +0.101 C 
ATOM      2  C   UNL     1       5.789   0.918  -5.655  0.00  0.00    +0.033 C 
ATOM      3  C   UNL     1       4.629   1.204  -6.612  0.00  0.00    +0.107 C 
ATOM      4  N   UNL     1       3.579   1.945  -5.903  0.00  0.00    -0.315 N 
ATOM      5  C   UNL     1       4.075   3.242  -5.423  0.00  0.00    +0.107 C 
ATOM      6  C   UNL     1       5.218   3.016  -4.431  0.00  0.00    +0.033 C 
ATOM      7  C   UNL     1       2.457   2.108  -6.704  0.00  0.00    +0.123 A 
ATOM      8  C   UNL     1       1.240   1.539  -6.301  0.00  0.00    -0.024 A 
ATOM      9  C   UNL     1       0.132   1.687  -7.081  0.00  0.00    +0.018 A 
ATOM     10  C   UNL     1       0.249   2.424  -8.275  0.00  0.00    +0.046 A 
ATOM     11  C   UNL     1      -0.858   2.618  -9.124  0.00  0.00    +0.129 A 
ATOM     12  C   UNL     1      -0.703   3.341 -10.286  0.00  0.00    +0.050 A 
ATOM     13  C   UNL     1       0.534   3.879 -10.628  0.00  0.00    +0.051 A 
ATOM     14  C   UNL     1       1.624   3.707  -9.824  0.00  0.00    +0.146 A 
ATOM     15  C   UNL     1       1.505   2.974  -8.627  0.00  0.00    +0.118 A 
ATOM     16  N   UNL     1       2.561   2.792  -7.824  0.00  0.00    -0.228 NA
ENDROOT
BRANCH   1  17
ATOM     17  C   UNL     1       7.446   1.965  -4.133  0.00  0.00    +0.310 C 
ATOM     18  O   UNL     1       7.757   0.826  -3.879  0.00  0.00    -0.251 OA
BRANCH  17  19
ATOM     19  O   UNL     1       8.082   2.984  -3.534  0.00  0.00    -0.465 OA
BRANCH  19  21
ATOM     20  C   UNL     1       9.738   3.925  -2.017  0.00  0.00    +0.048 C 
ATOM     21  C   UNL     1       9.133   2.643  -2.593  0.00  0.00    +0.229 C 
ENDBRANCH  19  21
ENDBRANCH  17  19
ENDBRANCH   1  17
BRANCH  14  22
ATOM     22  O   UNL     1       2.823   4.242 -10.178  0.00  0.00    -0.493 OA
ATOM     23  C   UNL     1       2.870   4.973 -11.405  0.00  0.00    +0.277 C 
ENDBRANCH  14  22
BRANCH  11  24
ATOM     24  O   UNL     1      -2.070   2.096  -8.799  0.00  0.00    -0.494 OA
ATOM     25  C   UNL     1      -3.144   2.335  -9.710  0.00  0.00    +0.277 C 
ENDBRANCH  11  24
BRANCH   8  26
ATOM     26  C   UNL     1       1.160   0.762  -5.013  0.00  0.00    -0.043 C 
BRANCH  26  27
ATOM     27  N   UNL     1       1.129   1.696  -3.879  0.00  0.00    +0.382 N 
ATOM     28  H   UNL     1       2.044   2.306  -3.882  0.00  0.00    -0.085 HD
ATOM     29  H   UNL     1       0.250   2.352  -3.967  0.00  0.00    -0.085 HD
BRANCH  27  30
ATOM     30  C   UNL     1       1.050   0.972  -2.603  0.00  0.00    -0.078 C 
BRANCH  30  31
ATOM     31  C   UNL     1       1.020   1.975  -1.448  0.00  0.00    -0.020 C 
ATOM     32  C   UNL     1      -0.333   2.731  -1.413  0.00  0.00    +0.010 C 
ATOM     33  C   UNL     1      -0.934   2.347  -0.018  0.00  0.00    +0.018 C 
ATOM     34  C   UNL     1      -1.224   0.841  -0.151  0.00  0.00    -0.027 C 
ATOM     35  C   UNL     1      -0.070   0.198  -0.196  0.00  0.00    -0.027 C 
ATOM     36  C   UNL     1       1.064   1.231  -0.070  0.00  0.00    +0.019 C 
ATOM     37  C   UNL     1       0.368   2.263   0.849  0.00  0.00    -0.017 C 
ATOM     38  C   UNL     1       1.041   3.422   1.516  0.00  0.00    +0.008 C 
ATOM     39  C   UNL     1       0.440   2.275   2.344  0.00  0.00    +0.008 C 
ENDBRANCH  30  31
ENDBRANCH  27  30
ENDBRANCH  26  27
ENDBRANCH   8  26
TORSDOF 9
