REMARK  Name = ZINC49468242
REMARK  8 active torsions:
REMARK  status: ('A' for Active; 'I' for Inactive)
REMARK    1  A    between atoms: C_1  and  C_2
REMARK    2  A    between atoms: C_3  and  C_13
REMARK    3  A    between atoms: C_5  and  C_7
REMARK    4  A    between atoms: N_18  and  C_20
REMARK    5  A    between atoms: C_20  and  C_21
REMARK    6  A    between atoms: C_21  and  N_22
REMARK    7  A    between atoms: N_25  and  C_26
REMARK    8  A    between atoms: C_26  and  C_27
REMARK                            x       y       z     vdW  Elec       q    Type
REMARK                         _______ _______ _______ _____ _____    ______ ____
ROOT
ATOM      1  C   UNL     1      -0.009  -0.175  -2.574  0.00  0.00    +0.100 A 
ATOM      2  C   UNL     1      -0.008  -1.080  -3.663  0.00  0.00    +0.036 A 
ATOM      3  C   UNL     1      -0.023  -0.569  -4.926  0.00  0.00    +0.074 A 
ATOM      4  C   UNL     1      -0.038   0.836  -5.072  0.00  0.00    +0.267 A 
ATOM      5  O   UNL     1      -0.052   1.339  -6.184  0.00  0.00    -0.266 OA
ATOM      6  N   UNL     1      -0.038   1.617  -3.975  0.00  0.00    -0.227 N 
ATOM      7  N   UNL     1      -0.029   1.121  -2.791  0.00  0.00    -0.168 NA
ENDROOT
BRANCH   1  10
ATOM      8  C   UNL     1      -0.018   1.503   0.010  0.00  0.00    +0.067 C 
ATOM      9  C   UNL     1       0.002  -0.004   0.002  0.00  0.00    +0.055 A 
ATOM     10  C   UNL     1       0.005  -0.689  -1.189  0.00  0.00    +0.062 A 
ATOM     11  S   UNL     1       0.032  -2.377  -0.597  0.00  0.00    -0.065 S 
ATOM     12  C   UNL     1       0.036  -1.995   1.150  0.00  0.00    +0.109 A 
ATOM     13  N   UNL     1       0.022  -0.669   1.129  0.00  0.00    -0.244 NA
BRANCH  12  14
ATOM     14  C   UNL     1       0.055  -2.913   2.308  0.00  0.00    +0.007 A 
ATOM     15  C   UNL     1       0.079  -4.294   2.108  0.00  0.00    +0.010 A 
ATOM     16  C   UNL     1       0.096  -5.145   3.194  0.00  0.00    +0.001 A 
ATOM     17  C   UNL     1       0.090  -4.632   4.479  0.00  0.00    +0.000 A 
ATOM     18  C   UNL     1       0.066  -3.264   4.684  0.00  0.00    +0.001 A 
ATOM     19  C   UNL     1       0.054  -2.402   3.607  0.00  0.00    +0.010 A 
ENDBRANCH  12  14
ENDBRANCH   1  10
BRANCH   6  20
ATOM     20  C   UNL     1      -0.054   3.073  -4.137  0.00  0.00    +0.166 C 
BRANCH  20  21
ATOM     21  C   UNL     1      -1.502   3.566  -4.183  0.00  0.00    +0.129 C 
BRANCH  21  22
ATOM     22  N   UNL     1      -1.517   5.021  -4.346  0.00  0.00    -0.298 N 
ATOM     23  C   UNL     1      -2.692   5.679  -4.412  0.00  0.00    +0.300 C 
ATOM     24  O   UNL     1      -3.738   5.065  -4.337  0.00  0.00    -0.253 OA
ATOM     25  N   UNL     1      -2.706   7.019  -4.561  0.00  0.00    -0.295 N 
ATOM     26  H   UNL     1      -0.682   5.512  -4.405  0.00  0.00    +0.150 HD
ATOM     27  H   UNL     1      -1.871   7.509  -4.621  0.00  0.00    +0.151 HD
BRANCH  25  28
ATOM     28  C   UNL     1      -3.983   7.734  -4.633  0.00  0.00    +0.141 C 
BRANCH  28  29
ATOM     29  C   UNL     1      -3.723   9.209  -4.799  0.00  0.00    -0.023 A 
ATOM     30  C   UNL     1      -3.794  10.042  -3.724  0.00  0.00    +0.006 A 
ATOM     31  C   UNL     1      -3.558  11.408  -3.858  0.00  0.00    +0.001 A 
ATOM     32  C   UNL     1      -3.249  11.951  -5.068  0.00  0.00    +0.008 A 
ATOM     33  C   UNL     1      -3.167  11.123  -6.201  0.00  0.00    -0.018 A 
ATOM     34  C   UNL     1      -3.401   9.732  -6.063  0.00  0.00    -0.013 A 
ATOM     35  C   UNL     1      -3.313   8.903  -7.195  0.00  0.00    +0.009 A 
ATOM     36  C   UNL     1      -2.999   9.444  -8.403  0.00  0.00    +0.001 A 
ATOM     37  C   UNL     1      -2.762  10.811  -8.537  0.00  0.00    +0.001 A 
ATOM     38  C   UNL     1      -2.852  11.646  -7.466  0.00  0.00    +0.008 A 
ENDBRANCH  28  29
ENDBRANCH  25  28
ENDBRANCH  21  22
ENDBRANCH  20  21
ENDBRANCH   6  20
TORSDOF 7
