REMARK  Name = ZINC39710531
REMARK  13 active torsions:
REMARK  status: ('A' for Active; 'I' for Inactive)
REMARK    1  A    between atoms: C_1  and  C_2
REMARK    2  A    between atoms: C_2  and  C_3
REMARK    3  A    between atoms: C_10  and  C_15
REMARK    4  A    between atoms: C_15  and  C_17
REMARK    5  A    between atoms: C_15  and  N_27
REMARK    6  A    between atoms: N_22  and  C_23
REMARK    7  A    between atoms: C_23  and  C_24
REMARK    8  A    between atoms: C_23  and  C_25
REMARK    9  A    between atoms: C_23  and  C_26
REMARK   10  A    between atoms: N_27  and  C_28
REMARK   11  A    between atoms: N_27  and  C_35
REMARK   12  A    between atoms: C_28  and  C_29
REMARK   13  A    between atoms: C_35  and  C_36
REMARK                            x       y       z     vdW  Elec       q    Type
REMARK                         _______ _______ _______ _____ _____    ______ ____
ROOT
ATOM      1  C   UNL     1       1.131  -1.025   7.386  0.00  0.00    -0.009 C 
ENDROOT
BRANCH   1   9
ATOM      2  C   UNL     1       1.179   0.145   1.669  0.00  0.00    -0.047 A 
ATOM      3  C   UNL     1       2.557  -0.058   1.590  0.00  0.00    +0.005 A 
ATOM      4  C   UNL     1       3.273  -0.629   2.594  0.00  0.00    +0.024 A 
ATOM      5  C   UNL     1       2.636  -1.046   3.777  0.00  0.00    +0.040 A 
ATOM      6  N   UNL     1       3.348  -1.605   4.756  0.00  0.00    -0.285 N 
ATOM      7  C   UNL     1       2.813  -2.019   5.892  0.00  0.00    +0.223 C 
ATOM      8  O   UNL     1       3.514  -2.522   6.750  0.00  0.00    -0.275 OA
ATOM      9  C   UNL     1       1.326  -1.865   6.122  0.00  0.00    +0.088 C 
ATOM     10  C   UNL     1       0.512  -1.229   5.012  0.00  0.00    -0.006 C 
ATOM     11  C   UNL     1       1.181  -0.844   3.888  0.00  0.00    -0.007 A 
ATOM     12  C   UNL     1       0.473  -0.218   2.771  0.00  0.00    +0.013 A 
ATOM     13  H   UNL     1       4.303  -1.713   4.628  0.00  0.00    +0.155 HD
BRANCH   2  15
ATOM     14  C   UNL     1       0.449   2.305   0.695  0.00  0.00    +0.009 C 
ATOM     15  C   UNL     1       0.461   0.786   0.510  0.00  0.00    +0.032 C 
ENDBRANCH   2  15
ENDBRANCH   1   9
BRANCH   1  16
ATOM     16  C   UNL     1       1.907   0.287   7.252  0.00  0.00    +0.205 C 
ATOM     17  N   UNL     1       3.349   0.046   7.393  0.00  0.00    -0.152 NA
ATOM     18  N   UNL     1       3.765   0.676   8.368  0.00  0.00    -0.070 NA
ATOM     19  N   UNL     1       2.763   1.400   9.014  0.00  0.00    -0.179 N 
ATOM     20  N   UNL     1       1.570   1.201   8.363  0.00  0.00    -0.183 NA
ATOM     21  H   UNL     1       2.888   1.956   9.798  0.00  0.00    +0.191 HD
BRANCH  20  22
ATOM     22  C   UNL     1       1.027   2.468   7.856  0.00  0.00    +0.035 C 
ATOM     23  C   UNL     1      -0.191   2.185   6.974  0.00  0.00    +0.029 C 
ATOM     24  C   UNL     1       0.609   3.352   9.033  0.00  0.00    +0.029 C 
ATOM     25  C   UNL     1       2.096   3.188   7.032  0.00  0.00    +0.029 C 
ENDBRANCH  20  22
ENDBRANCH   1  16
BRANCH   1  26
ATOM     26  N   UNL     1       1.627  -1.771   8.550  0.00  0.00    +0.390 N 
ATOM     27  H   UNL     1       2.629  -1.872   8.483  0.00  0.00    -0.080 HD
BRANCH  26  28
ATOM     28  C   UNL     1       1.291  -1.040   9.779  0.00  0.00    -0.042 C 
BRANCH  28  29
ATOM     29  C   UNL     1       1.989  -1.680  10.951  0.00  0.00    -0.064 A 
ATOM     30  C   UNL     1       1.433  -2.784  11.569  0.00  0.00    +0.002 A 
ATOM     31  C   UNL     1       2.073  -3.371  12.644  0.00  0.00    +0.000 A 
ATOM     32  C   UNL     1       3.271  -2.854  13.101  0.00  0.00    +0.000 A 
ATOM     33  C   UNL     1       3.828  -1.750  12.484  0.00  0.00    +0.000 A 
ATOM     34  C   UNL     1       3.189  -1.166  11.406  0.00  0.00    +0.002 A 
ENDBRANCH  28  29
ENDBRANCH  26  28
BRANCH  26  35
ATOM     35  C   UNL     1       1.002  -3.099   8.584  0.00  0.00    -0.040 C 
BRANCH  35  36
ATOM     36  C   UNL     1      -0.497  -2.950   8.539  0.00  0.00    -0.046 A 
ATOM     37  C   UNL     1      -1.207  -2.644   9.691  0.00  0.00    +0.005 A 
ATOM     38  C   UNL     1      -2.584  -2.517   9.602  0.00  0.00    +0.020 A 
ATOM     39  C   UNL     1      -3.200  -2.698   8.378  0.00  0.00    +0.111 A 
ATOM     40  N   UNL     1      -2.493  -2.988   7.304  0.00  0.00    -0.263 NA
ATOM     41  C   UNL     1      -1.181  -3.111   7.349  0.00  0.00    +0.112 A 
ENDBRANCH  35  36
ENDBRANCH  26  35
ENDBRANCH   1  26
TORSDOF 9
