REMARK  Name = ZINC29834340
REMARK  8 active torsions:
REMARK  status: ('A' for Active; 'I' for Inactive)
REMARK    1  A    between atoms: C_1  and  C_2
REMARK    2  A    between atoms: C_8  and  S_12
REMARK    3  A    between atoms: S_12  and  N_15
REMARK    4  A    between atoms: N_18  and  C_21
REMARK    5  A    between atoms: C_21  and  C_23
REMARK    6  A    between atoms: C_21  and  C_24
REMARK    7  A    between atoms: N_26  and  C_27
REMARK    8  A    between atoms: C_33  and  C_35
REMARK                            x       y       z     vdW  Elec       q    Type
REMARK                         _______ _______ _______ _____ _____    ______ ____
ROOT
ATOM      1  N   UNL     1      -1.892   1.636   0.336  0.00  0.00    -0.180 NA
ATOM      2  C   UNL     1      -1.239   2.737   1.060  0.00  0.00    +0.091 C 
ATOM      3  C   UNL     1      -2.332   3.628   1.670  0.00  0.00    -0.060 C 
ATOM      4  N   UNL     1      -3.235   2.801   2.482  0.00  0.00    +0.389 N 
ATOM      5  C   UNL     1      -3.934   1.808   1.656  0.00  0.00    -0.060 C 
ATOM      6  C   UNL     1      -2.911   0.846   1.043  0.00  0.00    +0.091 C 
ATOM      7  H   UNL     1      -2.621   2.255   3.214  0.00  0.00    -0.081 HD
ENDROOT
BRANCH   1   8
ATOM      8  S   UNL     1      -1.486   1.291  -1.232  0.00  0.00    +0.063 S 
ATOM      9  O   UNL     1      -1.819  -0.074  -1.447  0.00  0.00    -0.153 OA
ATOM     10  O   UNL     1      -0.173   1.796  -1.432  0.00  0.00    -0.153 OA
BRANCH   8  18
ATOM     11  C   UNL     1      -8.111   1.216  -2.272  0.00  0.00    +0.045 C 
ATOM     12  C   UNL     1      -6.636   1.522  -2.301  0.00  0.00    -0.032 A 
ATOM     13  C   UNL     1      -6.159   2.510  -3.115  0.00  0.00    +0.015 A 
ATOM     14  C   UNL     1      -4.774   2.762  -3.112  0.00  0.00    +0.003 A 
ATOM     15  C   UNL     1      -4.210   3.761  -3.922  0.00  0.00    +0.010 A 
ATOM     16  C   UNL     1      -2.866   3.975  -3.890  0.00  0.00    +0.003 A 
ATOM     17  C   UNL     1      -2.042   3.218  -3.060  0.00  0.00    +0.031 A 
ATOM     18  C   UNL     1      -2.553   2.238  -2.267  0.00  0.00    +0.131 A 
ATOM     19  C   UNL     1      -3.937   1.987  -2.271  0.00  0.00    +0.097 A 
ATOM     20  N   UNL     1      -4.468   1.035  -1.498  0.00  0.00    -0.253 NA
ATOM     21  C   UNL     1      -5.758   0.798  -1.499  0.00  0.00    +0.114 A 
ENDBRANCH   8  18
ENDBRANCH   1   8
BRANCH   4  22
ATOM     22  C   UNL     1      -4.189   3.635   3.224  0.00  0.00    +0.016 C 
ATOM     23  C   UNL     1      -3.428   4.701   4.015  0.00  0.00    -0.004 C 
BRANCH  22  24
ATOM     24  C   UNL     1      -4.978   2.772   4.174  0.00  0.00    +0.199 C 
ATOM     25  O   UNL     1      -4.495   1.746   4.606  0.00  0.00    -0.278 OA
ATOM     26  N   UNL     1      -6.221   3.139   4.545  0.00  0.00    -0.314 N 
ATOM     27  H   UNL     1      -6.659   4.070   4.154  0.00  0.00    +0.149 HD
BRANCH  26  28
ATOM     28  C   UNL     1      -6.988   2.300   5.469  0.00  0.00    +0.076 C 
ATOM     29  C   UNL     1      -6.612   2.653   6.910  0.00  0.00    +0.022 C 
ATOM     30  C   UNL     1      -7.413   1.776   7.875  0.00  0.00    +0.002 C 
ATOM     31  C   UNL     1      -8.909   2.020   7.664  0.00  0.00    +0.000 C 
ATOM     32  C   UNL     1      -9.284   1.668   6.223  0.00  0.00    +0.005 C 
ATOM     33  C   UNL     1      -8.483   2.544   5.258  0.00  0.00    +0.006 C 
ATOM     34  C   UNL     1      -8.859   2.192   3.817  0.00  0.00    +0.009 C 
ENDBRANCH  26  28
ENDBRANCH  22  24
ENDBRANCH   4  22
TORSDOF 5
