REMARK  Name = ZINC36581489
REMARK  16 active torsions:
REMARK  status: ('A' for Active; 'I' for Inactive)
REMARK    1  A    between atoms: C_1  and  C_2
REMARK    2  A    between atoms: C_4  and  C_15
REMARK    3  A    between atoms: C_12  and  C_13
REMARK    4  A    between atoms: C_12  and  C_14
REMARK    5  A    between atoms: N_17  and  C_18
REMARK    6  A    between atoms: N_17  and  C_36
REMARK    7  A    between atoms: C_18  and  C_20
REMARK    8  A    between atoms: C_18  and  C_29
REMARK    9  A    between atoms: C_23  and  N_26
REMARK   10  A    between atoms: N_31  and  C_32
REMARK   11  A    between atoms: C_32  and  C_33
REMARK   12  A    between atoms: C_32  and  C_34
REMARK   13  A    between atoms: C_32  and  C_35
REMARK   14  A    between atoms: C_36  and  C_37
REMARK   15  A    between atoms: C_36  and  C_38
REMARK   16  A    between atoms: C_36  and  C_39
REMARK                            x       y       z     vdW  Elec       q    Type
REMARK                         _______ _______ _______ _____ _____    ______ ____
ROOT
ATOM      1  C   UNL     1      -0.836  -2.854  -4.429  0.00  0.00    +0.193 C 
ENDROOT
BRANCH   1   2
ATOM      2  C   UNL     1      -1.453  -3.939  -3.586  0.00  0.00    -0.018 A 
ATOM      3  C   UNL     1      -2.148  -3.610  -2.437  0.00  0.00    +0.008 A 
ATOM      4  C   UNL     1      -2.714  -4.606  -1.663  0.00  0.00    +0.033 A 
ATOM      5  C   UNL     1      -2.586  -5.930  -2.038  0.00  0.00    +0.126 A 
ATOM      6  C   UNL     1      -1.891  -6.259  -3.187  0.00  0.00    +0.033 A 
ATOM      7  C   UNL     1      -1.329  -5.263  -3.963  0.00  0.00    +0.008 A 
BRANCH   5   8
ATOM      8  N   UNL     1      -3.191  -6.996  -1.208  0.00  0.00    +0.056 N 
ATOM      9  O   UNL     1      -3.798  -6.709  -0.203  0.00  0.00    -0.126 OA
ATOM     10  O   UNL     1      -3.079  -8.154  -1.536  0.00  0.00    -0.126 OA
ENDBRANCH   5   8
ENDBRANCH   1   2
BRANCH   1  11
ATOM     11  C   UNL     1      -1.841  -2.372  -5.443  0.00  0.00    +0.239 C 
ATOM     12  O   UNL     1      -2.061  -1.185  -5.562  0.00  0.00    -0.273 OA
ATOM     13  N   UNL     1      -2.497  -3.260  -6.216  0.00  0.00    -0.309 N 
ATOM     14  H   UNL     1      -2.321  -4.209  -6.121  0.00  0.00    +0.149 HD
BRANCH  13  15
ATOM     15  C   UNL     1      -3.475  -2.791  -7.202  0.00  0.00    +0.026 C 
ATOM     16  C   UNL     1      -2.785  -1.865  -8.205  0.00  0.00    +0.031 C 
ATOM     17  C   UNL     1      -4.070  -3.992  -7.941  0.00  0.00    +0.031 C 
ATOM     18  C   UNL     1      -4.592  -2.027  -6.488  0.00  0.00    +0.031 C 
ENDBRANCH  13  15
ENDBRANCH   1  11
BRANCH   1  21
ATOM     19  C   UNL     1      -1.368  -0.918  -3.049  0.00  0.00    +0.220 C 
ATOM     20  O   UNL     1      -2.534  -1.055  -3.355  0.00  0.00    -0.275 OA
ATOM     21  N   UNL     1      -0.434  -1.737  -3.571  0.00  0.00    -0.281 N 
BRANCH  19  24
ATOM     22  C   UNL     1      -1.615   2.607  -2.217  0.00  0.00    +0.008 C 
ATOM     23  C   UNL     1      -2.084   1.188  -1.916  0.00  0.00    +0.001 C 
ATOM     24  C   UNL     1      -0.964   0.170  -2.086  0.00  0.00    +0.079 C 
ATOM     25  C   UNL     1      -0.492  -0.427  -0.765  0.00  0.00    +0.017 C 
ATOM     26  C   UNL     1      -1.579  -0.377   0.311  0.00  0.00    -0.004 C 
ATOM     27  C   UNL     1      -3.008  -0.443  -0.252  0.00  0.00    +0.008 C 
ATOM     28  C   UNL     1      -2.792   1.060  -0.572  0.00  0.00    -0.001 C 
ATOM     29  C   UNL     1      -1.929   1.077   0.688  0.00  0.00    -0.029 C 
ATOM     30  C   UNL     1      -0.739   2.031   0.717  0.00  0.00    +0.011 C 
ATOM     31  C   UNL     1      -2.745   1.175   1.991  0.00  0.00    +0.011 C 
ENDBRANCH  19  24
BRANCH  21  32
ATOM     32  C   UNL     1       0.984  -1.510  -3.279  0.00  0.00    +0.030 C 
ATOM     33  C   UNL     1       1.410  -2.392  -2.104  0.00  0.00    +0.031 C 
ATOM     34  C   UNL     1       1.821  -1.863  -4.511  0.00  0.00    +0.031 C 
ATOM     35  C   UNL     1       1.202  -0.039  -2.919  0.00  0.00    +0.031 C 
ENDBRANCH  21  32
ENDBRANCH   1  21
TORSDOF 7
