REMARK  Name = ZINC05099961
REMARK  6 active torsions:
REMARK  status: ('A' for Active; 'I' for Inactive)
REMARK    1  A    between atoms: N_10  and  N_11
REMARK    2  A    between atoms: C_12  and  C_13
REMARK    3  A    between atoms: N_17  and  C_18
REMARK    4  A    between atoms: C_18  and  C_19
REMARK    5  A    between atoms: C_19  and  O_20
REMARK    6  A    between atoms: O_20  and  C_21
REMARK                            x       y       z     vdW  Elec       q    Type
REMARK                         _______ _______ _______ _____ _____    ______ ____
ROOT
ATOM      1  C   UNL     1       6.055  -5.946  -0.087  0.00  0.00    +0.062 A 
ATOM      2  C   UNL     1       7.126  -5.096  -0.087  0.00  0.00    +0.029 A 
ATOM      3  C   UNL     1       8.285  -5.885  -0.105  0.00  0.00    +0.020 A 
ATOM      4  C   UNL     1       7.902  -7.181  -0.114  0.00  0.00    +0.086 A 
ATOM      5  N   UNL     1       6.539  -7.231  -0.099  0.00  0.00    -0.343 N 
ENDROOT
BRANCH   1   7
ATOM      6  N   UNL     1       4.314  -4.296  -0.062  0.00  0.00    -0.187 NA
ATOM      7  C   UNL     1       4.640  -5.555  -0.072  0.00  0.00    +0.156 C 
BRANCH   6  17
ATOM      8  C   UNL     1      -0.017   1.366   0.010  0.00  0.00    +0.002 A 
ATOM      9  C   UNL     1       1.156   2.107   0.002  0.00  0.00    +0.001 A 
ATOM     10  C   UNL     1       2.373   1.450  -0.013  0.00  0.00    +0.017 A 
ATOM     11  C   UNL     1       2.401   0.077  -0.021  0.00  0.00    +0.041 A 
ATOM     12  C   UNL     1       1.228  -0.710  -0.013  0.00  0.00    +0.080 A 
ATOM     13  C   UNL     1       0.002  -0.004   0.002  0.00  0.00    +0.029 A 
ATOM     14  N   UNL     1       1.419  -2.047  -0.023  0.00  0.00    -0.224 NA
ATOM     15  C   UNL     1       2.617  -2.588  -0.037  0.00  0.00    +0.179 A 
ATOM     16  S   UNL     1       3.683  -1.153  -0.039  0.00  0.00    -0.051 S 
ATOM     17  N   UNL     1       2.963  -3.923  -0.047  0.00  0.00    -0.215 N 
ATOM     18  H   UNL     1       2.272  -4.603  -0.044  0.00  0.00    +0.176 HD
ENDBRANCH   6  17
ENDBRANCH   1   7
BRANCH   5  19
ATOM     19  C   UNL     1       5.728  -8.451  -0.097  0.00  0.00    +0.163 C 
BRANCH  19  20
ATOM     20  C   UNL     1       5.328  -8.799  -1.532  0.00  0.00    +0.250 C 
BRANCH  20  21
ATOM     21  O   UNL     1       4.536  -9.989  -1.531  0.00  0.00    -0.490 OA
BRANCH  21  22
ATOM     22  C   UNL     1       4.096 -10.438  -2.736  0.00  0.00    +0.121 A 
ATOM     23  C   UNL     1       4.423  -9.751  -3.896  0.00  0.00    +0.047 A 
ATOM     24  C   UNL     1       3.974 -10.209  -5.119  0.00  0.00    +0.023 A 
ATOM     25  C   UNL     1       3.198 -11.352  -5.188  0.00  0.00    +0.041 A 
ATOM     26  C   UNL     1       2.870 -12.039  -4.033  0.00  0.00    +0.023 A 
ATOM     27  C   UNL     1       3.322 -11.588  -2.808  0.00  0.00    +0.047 A 
ATOM     28 CL   UNL     1       2.634 -11.925  -6.727  0.00  0.00    -0.084 Cl
ENDBRANCH  21  22
ENDBRANCH  20  21
ENDBRANCH  19  20
ENDBRANCH   5  19
TORSDOF 6
