REMARK  Name = ZINC09012250
REMARK  7 active torsions:
REMARK  status: ('A' for Active; 'I' for Inactive)
REMARK    1  A    between atoms: C_1  and  O_2
REMARK    2  A    between atoms: O_2  and  C_3
REMARK    3  A    between atoms: C_5  and  C_13
REMARK    4  A    between atoms: C_6  and  O_11
REMARK    5  A    between atoms: C_8  and  O_9
REMARK    6  A    between atoms: O_9  and  C_10
REMARK    7  A    between atoms: O_11  and  C_12
REMARK                            x       y       z     vdW  Elec       q    Type
REMARK                         _______ _______ _______ _____ _____    ______ ____
ROOT
ATOM      1  C   UNL     1       2.401   0.384  -4.230  0.00  0.00    +0.212 C 
ATOM      2  N   UNL     1       1.759   1.710  -4.264  0.00  0.00    -0.294 N 
ATOM      3  C   UNL     1       2.181   2.659  -3.345  0.00  0.00    +0.159 C 
ATOM      4  N   UNL     1       3.556   2.890  -3.278  0.00  0.00    -0.259 N 
ATOM      5  C   UNL     1       4.355   1.772  -3.502  0.00  0.00    +0.205 A 
ATOM      6  N   UNL     1       3.830   0.582  -3.960  0.00  0.00    -0.288 N 
ATOM      7  C   UNL     1       4.867  -0.296  -4.086  0.00  0.00    +0.072 A 
ATOM      8  C   UNL     1       4.940  -1.619  -4.504  0.00  0.00    +0.028 A 
ATOM      9  C   UNL     1       6.192  -2.214  -4.503  0.00  0.00    +0.002 A 
ATOM     10  C   UNL     1       7.328  -1.531  -4.106  0.00  0.00    +0.002 A 
ATOM     11  C   UNL     1       7.283  -0.214  -3.686  0.00  0.00    +0.030 A 
ATOM     12  C   UNL     1       6.029   0.407  -3.679  0.00  0.00    +0.091 A 
ATOM     13  N   UNL     1       5.644   1.656  -3.335  0.00  0.00    -0.214 NA
ATOM     14  N   UNL     1       1.340   3.301  -2.585  0.00  0.00    -0.375 N 
ATOM     15  H   UNL     1       1.063   1.913  -4.909  0.00  0.00    +0.151 HD
ATOM     16  H   UNL     1       0.389   3.121  -2.653  0.00  0.00    +0.158 HD
ATOM     17  H   UNL     1       3.928   3.765  -3.089  0.00  0.00    +0.158 HD
ATOM     18  H   UNL     1       1.664   3.960  -1.950  0.00  0.00    +0.158 HD
ENDROOT
BRANCH   1  21
ATOM     19  C   UNL     1       1.892  -1.393  -0.935  0.00  0.00    +0.162 A 
ATOM     20  C   UNL     1       2.455  -0.624  -1.940  0.00  0.00    +0.060 A 
ATOM     21  C   UNL     1       1.787  -0.453  -3.138  0.00  0.00    +0.039 A 
ATOM     22  C   UNL     1       0.551  -1.050  -3.336  0.00  0.00    +0.131 A 
ATOM     23  C   UNL     1      -0.017  -1.821  -2.332  0.00  0.00    +0.095 A 
ATOM     24  C   UNL     1       0.655  -1.998  -1.133  0.00  0.00    +0.165 A 
BRANCH  19  26
ATOM     25  C   UNL     1       3.816  -0.910   0.378  0.00  0.00    +0.277 C 
ATOM     26  O   UNL     1       2.551  -1.560   0.244  0.00  0.00    -0.491 OA
ENDBRANCH  19  26
BRANCH  24  27
ATOM     27  O   UNL     1       0.103  -2.757  -0.149  0.00  0.00    -0.491 OA
ATOM     28  C   UNL     1      -1.169  -3.348  -0.422  0.00  0.00    +0.277 C 
ENDBRANCH  24  27
BRANCH  22  29
ATOM     29  O   UNL     1      -0.105  -0.881  -4.515  0.00  0.00    -0.495 OA
ATOM     30  C   UNL     1      -1.374  -1.524  -4.650  0.00  0.00    +0.277 C 
ENDBRANCH  22  29
ENDBRANCH   1  21
TORSDOF 4
