REMARK  Name = ZINC12470928
REMARK  8 active torsions:
REMARK  status: ('A' for Active; 'I' for Inactive)
REMARK    1  A    between atoms: C_1  and  C_2
REMARK    2  A    between atoms: C_2  and  O_3
REMARK    3  A    between atoms: O_3  and  C_4
REMARK    4  A    between atoms: C_4  and  C_6
REMARK    5  A    between atoms: C_11  and  C_12
REMARK    6  A    between atoms: C_11  and  N_71
REMARK    7  A    between atoms: N_20  and  C_23
REMARK    8  A    between atoms: C_23  and  C_24
REMARK                            x       y       z     vdW  Elec       q    Type
REMARK                         _______ _______ _______ _____ _____    ______ ____
ROOT
ATOM      1  C   UNL     1       2.391   4.183   0.003  0.00  0.00    +0.001 A 
ATOM      2  C   UNL     1       1.195   3.544   0.011  0.00  0.00    +0.017 A 
ATOM      3  C   UNL     1       1.184   2.080   0.002  0.00  0.00    -0.001 A 
ATOM      4  C   UNL     1      -0.017   1.365   0.009  0.00  0.00    +0.014 A 
ATOM      5  C   UNL     1       0.002  -0.004   0.002  0.00  0.00    -0.043 A 
ATOM      6  C   UNL     1       1.210  -0.691  -0.014  0.00  0.00    -0.042 A 
ATOM      7  C   UNL     1       2.407  -0.001  -0.021  0.00  0.00    +0.030 A 
ATOM      8  C   UNL     1       2.410   1.389  -0.013  0.00  0.00    +0.052 A 
ATOM      9  N   UNL     1       3.592   2.098  -0.020  0.00  0.00    -0.304 N 
ATOM     10  C   UNL     1       3.592   3.442  -0.015  0.00  0.00    +0.253 A 
ATOM     11  O   UNL     1       4.657   4.036  -0.022  0.00  0.00    -0.267 OA
ATOM     12  C   UNL     1       0.947  -2.182  -0.019  0.00  0.00    +0.036 C 
ATOM     13  C   UNL     1      -0.519  -2.336   0.438  0.00  0.00    +0.009 C 
ATOM     14  C   UNL     1      -1.145  -0.993   0.008  0.00  0.00    +0.036 C 
ENDROOT
BRANCH   1  15
ATOM     15  C   UNL     1       2.438   5.689   0.012  0.00  0.00    -0.038 C 
BRANCH  15  21
ATOM     16  C   UNL     1       3.944   7.326   3.664  0.00  0.00    +0.094 C 
ATOM     17  C   UNL     1       2.880   8.095   2.875  0.00  0.00    -0.004 C 
ATOM     18  C   UNL     1       2.874   7.606   1.425  0.00  0.00    -0.078 C 
ATOM     19  C   UNL     1       3.622   5.403   2.104  0.00  0.00    -0.078 C 
ATOM     20  C   UNL     1       3.650   5.826   3.575  0.00  0.00    -0.004 C 
ATOM     21  N   UNL     1       2.562   6.161   1.407  0.00  0.00    +0.383 N 
ATOM     22  H   UNL     1       1.669   6.007   1.891  0.00  0.00    -0.081 HD
BRANCH  16  23
ATOM     23  C   UNL     1       3.914   7.762   5.106  0.00  0.00    +0.310 C 
ATOM     24  O   UNL     1       3.124   8.601   5.468  0.00  0.00    -0.251 OA
BRANCH  23  25
ATOM     25  O   UNL     1       4.766   7.218   5.989  0.00  0.00    -0.465 OA
BRANCH  25  27
ATOM     26  C   UNL     1       5.722   6.956   8.214  0.00  0.00    +0.048 C 
ATOM     27  C   UNL     1       4.681   7.685   7.361  0.00  0.00    +0.229 C 
ENDBRANCH  25  27
ENDBRANCH  23  25
ENDBRANCH  16  23
ENDBRANCH  15  21
ENDBRANCH   1  15
BRANCH   9  28
ATOM     28  C   UNL     1       4.867   1.375  -0.038  0.00  0.00    +0.173 C 
BRANCH  28  29
ATOM     29  C   UNL     1       5.296   1.134  -1.486  0.00  0.00    +0.230 C 
ATOM     30  C   UNL     1       6.564   0.271  -1.513  0.00  0.00    +0.275 C 
ATOM     31  O   UNL     1       6.945   0.076  -2.880  0.00  0.00    -0.485 OA
ATOM     32  C   UNL     1       6.944   1.178  -3.678  0.00  0.00    +0.162 A 
ATOM     33  C   UNL     1       7.629   1.147  -4.883  0.00  0.00    +0.049 A 
ATOM     34  C   UNL     1       7.634   2.257  -5.706  0.00  0.00    +0.004 A 
ATOM     35  C   UNL     1       6.956   3.402  -5.330  0.00  0.00    +0.004 A 
ATOM     36  C   UNL     1       6.272   3.440  -4.130  0.00  0.00    +0.049 A 
ATOM     37  C   UNL     1       6.264   2.330  -3.299  0.00  0.00    +0.163 A 
ATOM     38  O   UNL     1       5.591   2.385  -2.117  0.00  0.00    -0.480 OA
ENDBRANCH  28  29
ENDBRANCH   9  28
TORSDOF 7
