REMARK  Name = ZINC63119316
REMARK  8 active torsions:
REMARK  status: ('A' for Active; 'I' for Inactive)
REMARK    1  A    between atoms: C_1  and  C_2
REMARK    2  A    between atoms: C_4  and  N_17
REMARK    3  A    between atoms: N_7  and  C_8
REMARK    4  A    between atoms: C_8  and  C_9
REMARK    5  A    between atoms: C_18  and  C_20
REMARK    6  A    between atoms: C_20  and  C_21
REMARK    7  A    between atoms: C_21  and  C_22
REMARK    8  A    between atoms: C_22  and  C_23
REMARK                            x       y       z     vdW  Elec       q    Type
REMARK                         _______ _______ _______ _____ _____    ______ ____
ROOT
ATOM      1  N   UNL     1       1.239  -2.851  -1.138  0.00  0.00    -0.295 N 
ATOM      2  C   UNL     1       1.160  -4.089  -1.665  0.00  0.00    +0.214 C 
ATOM      3  O   UNL     1       0.088  -4.651  -1.735  0.00  0.00    -0.276 OA
ATOM      4  H   UNL     1       2.097  -2.402  -1.082  0.00  0.00    +0.151 HD
ENDROOT
BRANCH   1   8
ATOM      5  C   UNL     1      -0.018   1.503   0.010  0.00  0.00    +0.062 C 
ATOM      6  C   UNL     1       0.002  -0.004   0.002  0.00  0.00    +0.018 C 
ATOM      7  C   UNL     1       0.007  -0.737  -1.093  0.00  0.00    +0.032 C 
ATOM      8  C   UNL     1       0.029  -2.184  -0.650  0.00  0.00    +0.183 C 
ATOM      9  N   UNL     1       0.035  -2.114   0.825  0.00  0.00    -0.216 NA
ATOM     10  N   UNL     1       0.024  -0.785   1.141  0.00  0.00    -0.265 N 
ATOM     11  H   UNL     1       0.853  -2.565   1.206  0.00  0.00    +0.147 HD
BRANCH  10  12
ATOM     12  C   UNL     1       0.030  -0.258   2.507  0.00  0.00    +0.160 C 
BRANCH  12  13
ATOM     13  C   UNL     1      -1.389  -0.096   2.990  0.00  0.00    -0.010 A 
ATOM     14  C   UNL     1      -1.990   1.149   2.964  0.00  0.00    +0.008 A 
ATOM     15  C   UNL     1      -3.291   1.298   3.406  0.00  0.00    +0.020 A 
ATOM     16  C   UNL     1      -3.993   0.201   3.875  0.00  0.00    +0.042 A 
ATOM     17  C   UNL     1      -3.392  -1.044   3.901  0.00  0.00    +0.040 A 
ATOM     18  C   UNL     1      -2.091  -1.194   3.453  0.00  0.00    +0.047 A 
ATOM     19 CL   UNL     1      -1.338  -2.758   3.480  0.00  0.00    -0.083 Cl
ATOM     20 CL   UNL     1      -5.627   0.389   4.431  0.00  0.00    -0.083 Cl
ENDBRANCH  12  13
ENDBRANCH  10  12
ENDBRANCH   1   8
BRANCH   2  21
ATOM     21  C   UNL     1       2.404  -4.775  -2.167  0.00  0.00    +0.096 C 
BRANCH  21  22
ATOM     22  C   UNL     1       2.040  -6.158  -2.711  0.00  0.00    +0.014 C 
BRANCH  22  23
ATOM     23  C   UNL     1       3.304  -6.854  -3.221  0.00  0.00    +0.033 C 
BRANCH  23  24
ATOM     24  C   UNL     1       2.945  -8.217  -3.757  0.00  0.00    -0.042 C 
ATOM     25  C   UNL     1       2.688  -8.542  -5.044  0.00  0.00    -0.001 A 
ATOM     26  C   UNL     1       2.665  -7.756  -6.283  0.00  0.00    +0.010 A 
ATOM     27  C   UNL     1       2.365  -8.375  -7.448  0.00  0.00    +0.001 A 
ATOM     28  C   UNL     1       2.076  -9.745  -7.501  0.00  0.00    +0.002 A 
ATOM     29  C   UNL     1       2.077 -10.534  -6.405  0.00  0.00    +0.026 A 
ATOM     30  C   UNL     1       2.379  -9.988  -5.127  0.00  0.00    +0.043 A 
ATOM     31  N   UNL     1       2.443 -10.535  -3.937  0.00  0.00    -0.380 N 
ATOM     32  C   UNL     1       2.806  -9.498  -2.965  0.00  0.00    +0.144 C 
ATOM     33  H   UNL     1       2.282 -11.469  -3.734  0.00  0.00    +0.160 HD
ENDBRANCH  23  24
ENDBRANCH  22  23
ENDBRANCH  21  22
ENDBRANCH   2  21
TORSDOF 7
