REMARK  Name = ZINC04356621
REMARK  4 active torsions:
REMARK  status: ('A' for Active; 'I' for Inactive)
REMARK    1  A    between atoms: C_4  and  C_7
REMARK    2  A    between atoms: C_12  and  C_13
REMARK    3  A    between atoms: C_16  and  O_20
REMARK    4  A    between atoms: C_17  and  O_19
REMARK                            x       y       z     vdW  Elec       q    Type
REMARK                         _______ _______ _______ _____ _____    ______ ____
ROOT
ATOM      1  C   UNL     1      -2.527   5.161  -0.233  0.00  0.00    +0.102 C 
ATOM      2  N   UNL     1      -1.535   6.037  -0.260  0.00  0.00    -0.168 NA
ATOM      3  C   UNL     1      -0.273   5.676  -0.184  0.00  0.00    +0.275 C 
ATOM      4  O   UNL     1       0.633   6.495  -0.203  0.00  0.00    -0.267 OA
ATOM      5  C   UNL     1      -0.010   4.223  -0.079  0.00  0.00    +0.078 C 
ATOM      6  C   UNL     1       1.171   3.556   0.009  0.00  0.00    +0.028 C 
ATOM      7  S   UNL     1      -1.684   3.593  -0.093  0.00  0.00    -0.066 S 
ENDROOT
BRANCH   1  11
ATOM      8  C   UNL     1      -6.703   5.900  -0.431  0.00  0.00    +0.000 A 
ATOM      9  C   UNL     1      -5.814   6.959  -0.475  0.00  0.00    +0.001 A 
ATOM     10  C   UNL     1      -4.456   6.727  -0.411  0.00  0.00    +0.010 A 
ATOM     11  C   UNL     1      -3.979   5.418  -0.302  0.00  0.00    +0.005 A 
ATOM     12  C   UNL     1      -4.883   4.354  -0.264  0.00  0.00    +0.010 A 
ATOM     13  C   UNL     1      -6.238   4.601  -0.323  0.00  0.00    +0.001 A 
ENDBRANCH   1  11
BRANCH   6  14
ATOM     14  C   UNL     1       1.193   2.090  -0.055  0.00  0.00    -0.020 A 
ATOM     15  C   UNL     1       0.027   1.384  -0.381  0.00  0.00    +0.012 A 
ATOM     16  C   UNL     1       0.051   0.009  -0.441  0.00  0.00    +0.050 A 
ATOM     17  C   UNL     1       1.227  -0.682  -0.179  0.00  0.00    +0.158 A 
ATOM     18  C   UNL     1       2.392   0.013   0.146  0.00  0.00    +0.159 A 
ATOM     19  C   UNL     1       2.379   1.392   0.209  0.00  0.00    +0.057 A 
BRANCH  18  20
ATOM     20  O   UNL     1       3.541  -0.667   0.401  0.00  0.00    -0.503 OA
ATOM     21  H   UNL     1       4.088  -0.823  -0.381  0.00  0.00    +0.292 HD
ENDBRANCH  18  20
BRANCH  17  22
ATOM     22  O   UNL     1       1.243  -2.038  -0.239  0.00  0.00    -0.503 OA
ATOM     23  H   UNL     1       1.463  -2.390  -1.113  0.00  0.00    +0.292 HD
ENDBRANCH  17  22
ENDBRANCH   6  14
TORSDOF 4
