REMARK  Name = ZINC39656833
REMARK  5 active torsions:
REMARK  status: ('A' for Active; 'I' for Inactive)
REMARK    1  A    between atoms: C_1  and  C_2
REMARK    2  A    between atoms: C_2  and  C_4
REMARK    3  A    between atoms: C_2  and  N_11
REMARK    4  A    between atoms: C_12  and  C_14
REMARK    5  A    between atoms: C_25  and  C_27
REMARK                            x       y       z     vdW  Elec       q    Type
REMARK                         _______ _______ _______ _____ _____    ______ ____
ROOT
ATOM      1  C   UNL     1       2.865  -1.305   3.010  0.00  0.00    +0.100 C 
ATOM      2  C   UNL     1       2.244  -2.718   3.081  0.00  0.00    +0.121 C 
ATOM      3  N   UNL     1       3.213  -3.589   2.376  0.00  0.00    -0.296 N 
ATOM      4  C   UNL     1       4.540  -3.077   2.794  0.00  0.00    +0.115 C 
ATOM      5  C   UNL     1       4.373  -1.545   2.825  0.00  0.00    -0.004 C 
ATOM      6  C   UNL     1       5.150  -0.952   3.996  0.00  0.00    -0.010 C 
ATOM      7  C   UNL     1       6.650  -1.151   3.761  0.00  0.00    -0.082 C 
ATOM      8  N   UNL     1       7.042  -0.498   2.507  0.00  0.00    +0.379 N 
ATOM      9  C   UNL     1       6.359  -1.137   1.375  0.00  0.00    -0.082 C 
ATOM     10  C   UNL     1       4.847  -0.936   1.509  0.00  0.00    -0.010 C 
ATOM     11  C   UNL     1       2.949  -4.615   1.544  0.00  0.00    +0.247 C 
ATOM     12  O   UNL     1       1.804  -4.838   1.198  0.00  0.00    -0.270 OA
ATOM     13  H   UNL     1       6.787   0.478   2.544  0.00  0.00    -0.086 HD
ATOM     14  H   UNL     1       8.040  -0.578   2.385  0.00  0.00    -0.086 HD
ENDROOT
BRANCH  11  15
ATOM     15  C   UNL     1       4.049  -5.470   1.051  0.00  0.00    +0.037 A 
ATOM     16  C   UNL     1       5.260  -5.528   1.764  0.00  0.00    +0.013 A 
ATOM     17  C   UNL     1       6.285  -6.306   1.332  0.00  0.00    +0.009 A 
ATOM     18  C   UNL     1       6.144  -7.066   0.157  0.00  0.00    -0.018 A 
ATOM     19  C   UNL     1       7.191  -7.878  -0.310  0.00  0.00    +0.008 A 
ATOM     20  C   UNL     1       7.026  -8.604  -1.451  0.00  0.00    +0.001 A 
ATOM     21  C   UNL     1       5.831  -8.554  -2.166  0.00  0.00    +0.001 A 
ATOM     22  C   UNL     1       4.795  -7.779  -1.745  0.00  0.00    +0.008 A 
ATOM     23  C   UNL     1       4.928  -7.016  -0.571  0.00  0.00    -0.017 A 
ATOM     24  C   UNL     1       3.877  -6.212  -0.106  0.00  0.00    +0.021 A 
ENDBRANCH  11  15
BRANCH   1  26
ATOM     25  N   UNL     1       2.308   0.803   1.840  0.00  0.00    -0.308 N 
ATOM     26  C   UNL     1       2.307  -0.545   1.834  0.00  0.00    +0.219 C 
ATOM     27  O   UNL     1       1.856  -1.147   0.882  0.00  0.00    -0.275 OA
ATOM     28  H   UNL     1       2.668   1.284   2.602  0.00  0.00    +0.149 HD
BRANCH  25  30
ATOM     29  C   UNL     1       2.848   1.691  -0.373  0.00  0.00    +0.033 C 
ATOM     30  C   UNL     1       1.765   1.541   0.697  0.00  0.00    +0.100 C 
BRANCH  30  31
ATOM     31  C   UNL     1       1.313   2.905   1.149  0.00  0.00    -0.027 A 
ATOM     32  C   UNL     1       2.072   3.619   2.058  0.00  0.00    +0.006 A 
ATOM     33  C   UNL     1       1.658   4.870   2.473  0.00  0.00    +0.015 A 
ATOM     34  C   UNL     1       0.484   5.410   1.978  0.00  0.00    +0.018 A 
ATOM     35  C   UNL     1      -0.275   4.696   1.069  0.00  0.00    +0.015 A 
ATOM     36  C   UNL     1       0.142   3.446   0.651  0.00  0.00    +0.006 A 
ATOM     37 BR   UNL     1      -0.084   7.122   2.546  0.00  0.00    -0.050 Br
ENDBRANCH  30  31
ENDBRANCH  25  30
ENDBRANCH   1  26
TORSDOF 4
