REMARK  Name = ZINC09406038
REMARK  7 active torsions:
REMARK  status: ('A' for Active; 'I' for Inactive)
REMARK    1  A    between atoms: C_1  and  C_2
REMARK    2  A    between atoms: C_2  and  C_3
REMARK    3  A    between atoms: C_19  and  C_22
REMARK    4  A    between atoms: N_24  and  C_25
REMARK    5  A    between atoms: C_25  and  C_26
REMARK    6  A    between atoms: C_26  and  C_27
REMARK    7  A    between atoms: C_27  and  N_74
REMARK                            x       y       z     vdW  Elec       q    Type
REMARK                         _______ _______ _______ _____ _____    ______ ____
ROOT
ATOM      1  C   UNL     1      -4.901  13.880  -1.288  0.00  0.00    +0.191 C 
ATOM      2  C   UNL     1      -4.681  12.763  -2.318  0.00  0.00    +0.159 C 
ATOM      3  N   UNL     1      -4.878  13.346  -3.656  0.00  0.00    -0.248 N 
ATOM      4  C   UNL     1      -5.948  14.242  -3.827  0.00  0.00    +0.080 A 
ATOM      5  C   UNL     1      -6.359  14.596  -5.104  0.00  0.00    +0.027 A 
ATOM      6  C   UNL     1      -7.413  15.475  -5.269  0.00  0.00    +0.002 A 
ATOM      7  C   UNL     1      -8.060  15.995  -4.163  0.00  0.00    +0.004 A 
ATOM      8  C   UNL     1      -7.659  15.640  -2.889  0.00  0.00    +0.047 A 
ATOM      9  C   UNL     1      -6.603  14.758  -2.714  0.00  0.00    +0.142 A 
ATOM     10  O   UNL     1      -6.217  14.412  -1.458  0.00  0.00    -0.485 OA
ATOM     11  C   UNL     1      -4.057  13.037  -4.679  0.00  0.00    +0.309 C 
ATOM     12  O   UNL     1      -4.011  13.754  -5.660  0.00  0.00    -0.252 OA
ATOM     13  N   UNL     1      -3.288  11.932  -4.615  0.00  0.00    -0.285 N 
ATOM     14  C   UNL     1      -2.237  11.693  -5.615  0.00  0.00    +0.110 C 
ATOM     15  C   UNL     1      -2.445  10.302  -6.224  0.00  0.00    +0.032 C 
ATOM     16  C   UNL     1      -2.495   9.261  -5.103  0.00  0.00    +0.078 C 
ATOM     17  C   UNL     1      -3.675   9.563  -4.177  0.00  0.00    +0.032 C 
ATOM     18  C   UNL     1      -3.482  10.945  -3.544  0.00  0.00    +0.110 C 
ENDROOT
BRANCH  16  19
ATOM     19  C   UNL     1      -2.665   7.888  -5.701  0.00  0.00    +0.216 C 
ATOM     20  O   UNL     1      -2.739   7.755  -6.904  0.00  0.00    -0.276 OA
ATOM     21  N   UNL     1      -2.735   6.808  -4.898  0.00  0.00    -0.315 N 
ATOM     22  H   UNL     1      -2.675   6.914  -3.936  0.00  0.00    +0.149 HD
BRANCH  21  23
ATOM     23  C   UNL     1      -2.899   5.473  -5.479  0.00  0.00    +0.102 C 
BRANCH  23  24
ATOM     24  C   UNL     1      -2.949   4.432  -4.359  0.00  0.00    +0.000 C 
BRANCH  24  25
ATOM     25  C   UNL     1      -3.121   3.038  -4.966  0.00  0.00    -0.077 C 
BRANCH  25  35
ATOM     26  C   UNL     1      -3.095   0.673  -4.435  0.00  0.00    -0.074 C 
ATOM     27  C   UNL     1      -2.780  -0.290  -3.290  0.00  0.00    +0.017 C 
ATOM     28  C   UNL     1      -3.729  -0.051  -2.144  0.00  0.00    -0.048 A 
ATOM     29  C   UNL     1      -3.848  -1.031  -1.170  0.00  0.00    +0.004 A 
ATOM     30  C   UNL     1      -4.703  -0.851  -0.101  0.00  0.00    +0.000 A 
ATOM     31  C   UNL     1      -5.445   0.312  -0.002  0.00  0.00    +0.000 A 
ATOM     32  C   UNL     1      -5.325   1.285  -0.968  0.00  0.00    +0.002 A 
ATOM     33  C   UNL     1      -4.469   1.106  -2.044  0.00  0.00    -0.061 A 
ATOM     34  C   UNL     1      -4.381   2.196  -3.079  0.00  0.00    -0.043 C 
ATOM     35  N   UNL     1      -3.151   2.038  -3.874  0.00  0.00    +0.383 N 
ATOM     36  H   UNL     1      -2.337   2.184  -3.265  0.00  0.00    -0.081 HD
ENDBRANCH  25  35
ENDBRANCH  24  25
ENDBRANCH  23  24
ENDBRANCH  21  23
ENDBRANCH  16  19
BRANCH   1  38
ATOM     37  C   UNL     1      -4.850  14.448   1.144  0.00  0.00    +0.007 C 
ATOM     38  C   UNL     1      -4.755  13.312   0.125  0.00  0.00    +0.043 C 
ENDBRANCH   1  38
TORSDOF 6
