REMARK  Name = ZINC40721151
REMARK  12 active torsions:
REMARK  status: ('A' for Active; 'I' for Inactive)
REMARK    1  A    between atoms: C_1  and  C_2
REMARK    2  A    between atoms: C_2  and  N_3
REMARK    3  A    between atoms: N_3  and  C_4
REMARK    4  A    between atoms: C_4  and  C_5
REMARK    5  A    between atoms: C_7  and  O_24
REMARK    6  A    between atoms: C_8  and  O_12
REMARK    7  A    between atoms: O_12  and  C_13
REMARK    8  A    between atoms: C_13  and  C_14
REMARK    9  A    between atoms: N_16  and  C_17
REMARK   10  A    between atoms: C_20  and  C_23
REMARK   11  A    between atoms: O_24  and  C_25
REMARK   12  A    between atoms: C_25  and  C_26
REMARK                            x       y       z     vdW  Elec       q    Type
REMARK                         _______ _______ _______ _____ _____    ______ ____
ROOT
ATOM      1  C   UNL     1       1.394  -2.432  -2.466  0.00  0.00    -0.060 A 
ATOM      2  C   UNL     1       0.679  -2.668  -3.626  0.00  0.00    +0.051 A 
ATOM      3  C   UNL     1       1.332  -3.115  -4.764  0.00  0.00    +0.163 A 
ATOM      4  C   UNL     1       2.707  -3.325  -4.736  0.00  0.00    +0.176 A 
ATOM      5  C   UNL     1       3.418  -3.086  -3.571  0.00  0.00    +0.063 A 
ATOM      6  C   UNL     1       2.761  -2.635  -2.440  0.00  0.00    +0.021 A 
ATOM      7 BR   UNL     1       5.287  -3.370  -3.528  0.00  0.00    -0.046 Br
ENDROOT
BRANCH   1   8
ATOM      8  C   UNL     1       0.682  -1.946  -1.230  0.00  0.00    -0.047 C 
BRANCH   8   9
ATOM      9  N   UNL     1       0.654  -0.477  -1.227  0.00  0.00    +0.382 N 
ATOM     10  H   UNL     1       0.166  -0.149  -2.047  0.00  0.00    -0.085 HD
ATOM     11  H   UNL     1       1.598  -0.122  -1.233  0.00  0.00    -0.085 HD
BRANCH   9  13
ATOM     12  C   UNL     1      -0.070   1.526  -0.019  0.00  0.00    -0.017 C 
ATOM     13  C   UNL     1      -0.040  -0.003  -0.022  0.00  0.00    -0.086 C 
ENDBRANCH   9  13
ENDBRANCH   8   9
ENDBRANCH   1   8
BRANCH   4  14
ATOM     14  O   UNL     1       3.352  -3.764  -5.850  0.00  0.00    -0.478 OA
BRANCH  14  15
ATOM     15  C   UNL     1       3.851  -2.769  -6.746  0.00  0.00    +0.325 C 
BRANCH  15  16
ATOM     16  C   UNL     1       4.530  -3.438  -7.913  0.00  0.00    +0.255 C 
ATOM     17  O   UNL     1       4.581  -4.648  -7.972  0.00  0.00    -0.272 OA
ATOM     18  N   UNL     1       5.080  -2.692  -8.891  0.00  0.00    -0.283 N 
ATOM     19  H   UNL     1       4.981  -1.727  -8.879  0.00  0.00    +0.155 HD
BRANCH  18  20
ATOM     20  C   UNL     1       5.794  -3.308  -9.925  0.00  0.00    +0.034 A 
ATOM     21  C   UNL     1       6.907  -2.683 -10.471  0.00  0.00    +0.023 A 
ATOM     22  C   UNL     1       7.609  -3.295 -11.491  0.00  0.00    +0.005 A 
ATOM     23  C   UNL     1       7.205  -4.528 -11.968  0.00  0.00    -0.050 A 
ATOM     24  C   UNL     1       6.097  -5.153 -11.427  0.00  0.00    +0.005 A 
ATOM     25  C   UNL     1       5.394  -4.549 -10.402  0.00  0.00    +0.023 A 
ATOM     26  C   UNL     1       7.974  -5.192 -13.081  0.00  0.00    +0.044 C 
ENDBRANCH  18  20
ENDBRANCH  15  16
ENDBRANCH  14  15
ENDBRANCH   4  14
BRANCH   3  27
ATOM     27  O   UNL     1       0.630  -3.349  -5.905  0.00  0.00    -0.489 OA
BRANCH  27  28
ATOM     28  C   UNL     1      -0.779  -3.112  -5.860  0.00  0.00    +0.226 C 
ATOM     29  C   UNL     1      -1.393  -3.427  -7.225  0.00  0.00    +0.048 C 
ENDBRANCH  27  28
ENDBRANCH   3  27
TORSDOF 9
