REMARK  Name = ZINC36558720
REMARK  14 active torsions:
REMARK  status: ('A' for Active; 'I' for Inactive)
REMARK    1  A    between atoms: C_1  and  C_2
REMARK    2  A    between atoms: C_2  and  C_3
REMARK    3  A    between atoms: C_3  and  C_5
REMARK    4  A    between atoms: C_3  and  C_11
REMARK    5  A    between atoms: N_13  and  C_14
REMARK    6  A    between atoms: N_13  and  C_21
REMARK    7  A    between atoms: C_14  and  C_15
REMARK    8  A    between atoms: C_18  and  C_20
REMARK    9  A    between atoms: C_21  and  C_23
REMARK   10  A    between atoms: C_21  and  C_32
REMARK   11  A    between atoms: C_26  and  O_31
REMARK   12  A    between atoms: C_27  and  O_29
REMARK   13  A    between atoms: O_29  and  C_30
REMARK   14  A    between atoms: N_34  and  C_35
REMARK                            x       y       z     vdW  Elec       q    Type
REMARK                         _______ _______ _______ _____ _____    ______ ____
ROOT
ATOM      1  C   UNL     1       1.701  -4.487   0.624  0.00  0.00    +0.193 C 
ENDROOT
BRANCH   1   2
ATOM      2  C   UNL     1       2.956  -4.768   1.410  0.00  0.00    -0.015 A 
ATOM      3  C   UNL     1       4.104  -4.041   1.159  0.00  0.00    +0.010 A 
ATOM      4  C   UNL     1       5.258  -4.295   1.877  0.00  0.00    +0.049 A 
ATOM      5  C   UNL     1       5.265  -5.280   2.851  0.00  0.00    +0.158 A 
ATOM      6  C   UNL     1       4.109  -6.012   3.104  0.00  0.00    +0.162 A 
ATOM      7  C   UNL     1       2.954  -5.749   2.384  0.00  0.00    +0.055 A 
BRANCH   6   8
ATOM      8  O   UNL     1       4.110  -6.980   4.059  0.00  0.00    -0.491 OA
ATOM      9  C   UNL     1       2.888  -7.691   4.265  0.00  0.00    +0.277 C 
ENDBRANCH   6   8
BRANCH   5  10
ATOM     10  O   UNL     1       6.399  -5.531   3.558  0.00  0.00    -0.503 OA
ATOM     11  H   UNL     1       6.482  -5.008   4.367  0.00  0.00    +0.292 HD
ENDBRANCH   5  10
ENDBRANCH   1   2
BRANCH   1  12
ATOM     12  C   UNL     1       2.069  -4.022  -0.761  0.00  0.00    +0.238 C 
ATOM     13  O   UNL     1       1.718  -2.926  -1.146  0.00  0.00    -0.273 OA
ATOM     14  N   UNL     1       2.789  -4.822  -1.572  0.00  0.00    -0.311 N 
ATOM     15  H   UNL     1       3.070  -5.698  -1.264  0.00  0.00    +0.149 HD
BRANCH  14  16
ATOM     16  C   UNL     1       3.147  -4.370  -2.918  0.00  0.00    +0.073 C 
ATOM     17  C   UNL     1       1.998  -4.673  -3.881  0.00  0.00    +0.022 C 
ATOM     18  C   UNL     1       2.372  -4.201  -5.287  0.00  0.00    +0.002 C 
ATOM     19  C   UNL     1       3.633  -4.931  -5.753  0.00  0.00    +0.000 C 
ATOM     20  C   UNL     1       4.783  -4.627  -4.790  0.00  0.00    +0.002 C 
ATOM     21  C   UNL     1       4.409  -5.100  -3.383  0.00  0.00    +0.022 C 
ENDBRANCH  14  16
ENDBRANCH   1  12
BRANCH   1  24
ATOM     22  C   UNL     1      -0.306  -3.721   1.773  0.00  0.00    +0.224 C 
ATOM     23  O   UNL     1      -0.752  -4.845   1.683  0.00  0.00    -0.275 OA
ATOM     24  N   UNL     1       0.925  -3.444   1.300  0.00  0.00    -0.278 N 
BRANCH  22  25
ATOM     25  C   UNL     1      -1.129  -2.633   2.414  0.00  0.00    +0.105 C 
BRANCH  25  26
ATOM     26  C   UNL     1      -1.904  -3.206   3.572  0.00  0.00    -0.036 A 
ATOM     27  C   UNL     1      -2.806  -4.231   3.360  0.00  0.00    +0.004 A 
ATOM     28  C   UNL     1      -3.518  -4.757   4.423  0.00  0.00    +0.000 A 
ATOM     29  C   UNL     1      -3.327  -4.257   5.697  0.00  0.00    +0.000 A 
ATOM     30  C   UNL     1      -2.424  -3.232   5.909  0.00  0.00    +0.000 A 
ATOM     31  C   UNL     1      -1.710  -2.709   4.848  0.00  0.00    +0.004 A 
ENDBRANCH  25  26
BRANCH  25  33
ATOM     32  C   UNL     1      -2.840  -0.862   1.994  0.00  0.00    +0.005 C 
ATOM     33  C   UNL     1      -2.102  -2.055   1.385  0.00  0.00    +0.014 C 
ENDBRANCH  25  33
ENDBRANCH  22  25
BRANCH  24  34
ATOM     34  C   UNL     1       1.487  -2.101   1.460  0.00  0.00    +0.183 C 
BRANCH  34  35
ATOM     35  C   UNL     1       2.216  -2.016   2.776  0.00  0.00    +0.122 A 
ATOM     36  C   UNL     1       3.538  -2.188   2.956  0.00  0.00    +0.046 A 
ATOM     37  C   UNL     1       3.789  -2.022   4.338  0.00  0.00    +0.045 A 
ATOM     38  C   UNL     1       2.605  -1.757   4.919  0.00  0.00    +0.102 A 
ATOM     39  O   UNL     1       1.657  -1.749   3.968  0.00  0.00    -0.463 OA
ATOM     40  C   UNL     1       2.382  -1.506   6.388  0.00  0.00    +0.086 C 
ENDBRANCH  34  35
ENDBRANCH  24  34
ENDBRANCH   1  24
TORSDOF 11
