REMARK  Name = ZINC15672890
REMARK  11 active torsions:
REMARK  status: ('A' for Active; 'I' for Inactive)
REMARK    1  A    between atoms: C_1  and  C_2
REMARK    2  A    between atoms: C_2  and  N_73
REMARK    3  A    between atoms: C_3  and  C_4
REMARK    4  A    between atoms: C_3  and  N_73
REMARK    5  A    between atoms: C_5  and  C_6
REMARK    6  A    between atoms: C_5  and  N_73
REMARK    7  A    between atoms: C_6  and  C_7
REMARK    8  A    between atoms: C_7  and  N_8
REMARK    9  A    between atoms: C_17  and  C_18
REMARK   10  A    between atoms: C_17  and  C_19
REMARK   11  A    between atoms: N_21  and  C_22
REMARK                            x       y       z     vdW  Elec       q    Type
REMARK                         _______ _______ _______ _____ _____    ______ ____
ROOT
ATOM      1  N   UNL     1      -0.116  -3.025  -3.127  0.00  0.00    -0.281 N 
ATOM      2  C   UNL     1       0.915  -3.698  -2.565  0.00  0.00    +0.264 C 
ATOM      3  O   UNL     1       1.851  -3.121  -2.043  0.00  0.00    -0.268 OA
ATOM      4  C   UNL     1       0.841  -5.163  -2.615  0.00  0.00    +0.106 A 
ATOM      5  C   UNL     1       1.599  -6.112  -1.995  0.00  0.00    +0.048 A 
ATOM      6  C   UNL     1       1.092  -7.350  -2.371  0.00  0.00    +0.038 A 
ATOM      7  C   UNL     1       0.006  -7.168  -3.241  0.00  0.00    +0.057 A 
ATOM      8  N   UNL     1      -0.127  -5.799  -3.384  0.00  0.00    -0.333 N 
ATOM      9  C   UNL     1      -1.090  -5.049  -4.194  0.00  0.00    +0.157 C 
ATOM     10  C   UNL     1      -1.347  -3.693  -3.535  0.00  0.00    +0.128 C 
ATOM     11  C   UNL     1      -2.091  -2.795  -4.526  0.00  0.00    +0.043 C 
ATOM     12  C   UNL     1      -0.607  -8.344  -3.698  0.00  0.00    +0.034 A 
ATOM     13  C   UNL     1      -0.146  -9.549  -3.303  0.00  0.00    +0.048 A 
ATOM     14  S   UNL     1       1.215  -9.114  -2.233  0.00  0.00    -0.095 S 
ENDROOT
BRANCH  10  15
ATOM     15  C   UNL     1      -2.215  -3.897  -2.321  0.00  0.00    +0.238 C 
ATOM     16  O   UNL     1      -3.422  -3.821  -2.419  0.00  0.00    -0.273 OA
ATOM     17  N   UNL     1      -1.651  -4.165  -1.127  0.00  0.00    -0.311 N 
ATOM     18  H   UNL     1      -0.686  -4.226  -1.049  0.00  0.00    +0.149 HD
BRANCH  17  19
ATOM     19  C   UNL     1      -2.496  -4.364   0.054  0.00  0.00    +0.073 C 
ATOM     20  C   UNL     1      -2.826  -3.007   0.679  0.00  0.00    +0.022 C 
ATOM     21  C   UNL     1      -4.002  -3.164   1.645  0.00  0.00    +0.002 C 
ATOM     22  C   UNL     1      -5.078  -4.040   1.002  0.00  0.00    +0.000 C 
ATOM     23  C   UNL     1      -5.185  -5.361   1.767  0.00  0.00    +0.000 C 
ATOM     24  C   UNL     1      -4.004  -6.261   1.397  0.00  0.00    +0.000 C 
ATOM     25  C   UNL     1      -2.743  -5.765   2.108  0.00  0.00    +0.002 C 
ATOM     26  C   UNL     1      -1.751  -5.228   1.074  0.00  0.00    +0.022 C 
ENDBRANCH  17  19
ENDBRANCH  10  15
BRANCH   1  27
ATOM     27  C   UNL     1       0.010  -1.580  -3.338  0.00  0.00    +0.107 C 
BRANCH  27  28
ATOM     28  C   UNL     1      -0.509  -0.838  -2.105  0.00  0.00    +0.000 C 
BRANCH  28  29
ATOM     29  C   UNL     1      -0.377   0.670  -2.324  0.00  0.00    -0.077 C 
BRANCH  29  30
ATOM     30  N   UNL     1      -0.902   1.373  -1.135  0.00  0.00    +0.379 N 
ATOM     31  H   UNL     1      -1.842   1.017  -0.925  0.00  0.00    -0.082 HD
BRANCH  30  33
ATOM     32  C   UNL     1      -0.793   1.463   1.306  0.00  0.00    -0.017 C 
ATOM     33  C   UNL     1      -0.024   1.124   0.028  0.00  0.00    -0.082 C 
ENDBRANCH  30  33
BRANCH  30  34
ATOM     34  C   UNL     1      -0.987   2.824  -1.402  0.00  0.00    -0.082 C 
ATOM     35  C   UNL     1      -2.160   3.082  -2.349  0.00  0.00    -0.017 C 
ENDBRANCH  30  34
ENDBRANCH  29  30
ENDBRANCH  28  29
ENDBRANCH  27  28
ENDBRANCH   1  27
TORSDOF 8
