REMARK  Name = ZINC35991554
REMARK  10 active torsions:
REMARK  status: ('A' for Active; 'I' for Inactive)
REMARK    1  A    between atoms: C_1  and  C_2
REMARK    2  A    between atoms: C_2  and  N_3
REMARK    3  A    between atoms: C_4  and  C_23
REMARK    4  A    between atoms: C_5  and  C_18
REMARK    5  A    between atoms: C_6  and  C_11
REMARK    6  A    between atoms: C_18  and  O_20
REMARK    7  A    between atoms: O_20  and  C_21
REMARK    8  A    between atoms: C_21  and  C_22
REMARK    9  A    between atoms: C_23  and  N_24
REMARK   10  A    between atoms: C_27  and  C_30
REMARK                            x       y       z     vdW  Elec       q    Type
REMARK                         _______ _______ _______ _____ _____    ______ ____
ROOT
ATOM      1  N   UNL     1      -1.729  -0.553   0.017  0.00  0.00    -0.261 N 
ATOM      2  C   UNL     1      -2.119  -0.917   1.274  0.00  0.00    +0.010 C 
ATOM      3  C   UNL     1      -3.248  -1.630   1.475  0.00  0.00    +0.076 C 
ATOM      4  C   UNL     1      -4.068  -2.011   0.258  0.00  0.00    +0.143 C 
ATOM      5  N   UNL     1      -3.561  -1.569  -1.052  0.00  0.00    -0.288 N 
ATOM      6  C   UNL     1      -2.417  -0.858  -1.091  0.00  0.00    +0.307 C 
ATOM      7  O   UNL     1      -1.992  -0.486  -2.167  0.00  0.00    -0.252 OA
ATOM      8  H   UNL     1      -4.041  -1.782  -1.867  0.00  0.00    +0.151 HD
ENDROOT
BRANCH   4   9
ATOM      9  C   UNL     1      -4.184  -3.513   0.228  0.00  0.00    -0.022 A 
ATOM     10  C   UNL     1      -3.136  -4.278  -0.250  0.00  0.00    +0.008 A 
ATOM     11  C   UNL     1      -3.242  -5.655  -0.277  0.00  0.00    +0.038 A 
ATOM     12  C   UNL     1      -4.398  -6.270   0.174  0.00  0.00    +0.123 A 
ATOM     13  C   UNL     1      -5.446  -5.503   0.653  0.00  0.00    +0.038 A 
ATOM     14  C   UNL     1      -5.337  -4.126   0.684  0.00  0.00    +0.008 A 
ATOM     15  F   UNL     1      -4.502  -7.617   0.147  0.00  0.00    -0.205 F 
ENDBRANCH   4   9
BRANCH   1  17
ATOM     16  C   UNL     1      -0.811   1.713  -0.030  0.00  0.00    +0.025 C 
ATOM     17  C   UNL     1      -0.493   0.219  -0.127  0.00  0.00    +0.111 C 
ENDBRANCH   1  17
BRANCH   3  18
ATOM     18  C   UNL     1      -3.653  -2.009   2.777  0.00  0.00    +0.339 C 
ATOM     19  O   UNL     1      -2.985  -1.682   3.740  0.00  0.00    -0.245 OA
BRANCH  18  20
ATOM     20  O   UNL     1      -4.779  -2.732   2.950  0.00  0.00    -0.462 OA
BRANCH  20  21
ATOM     21  C   UNL     1      -5.127  -3.079   4.292  0.00  0.00    +0.229 C 
ATOM     22  C   UNL     1      -6.423  -3.892   4.288  0.00  0.00    +0.048 C 
ENDBRANCH  20  21
ENDBRANCH  18  20
ENDBRANCH   3  18
BRANCH   2  23
ATOM     23  C   UNL     1      -1.275  -0.518   2.457  0.00  0.00    -0.026 C 
BRANCH  23  24
ATOM     24  N   UNL     1      -0.443  -1.656   2.872  0.00  0.00    +0.383 N 
ATOM     25  C   UNL     1       0.538  -1.952   1.821  0.00  0.00    -0.078 C 
ATOM     26  C   UNL     1       1.353  -3.186   2.212  0.00  0.00    -0.016 C 
ATOM     27  C   UNL     1       2.082  -2.913   3.531  0.00  0.00    -0.018 C 
ATOM     28  C   UNL     1       1.055  -2.533   4.601  0.00  0.00    -0.016 C 
ATOM     29  C   UNL     1       0.251  -1.323   4.122  0.00  0.00    -0.078 C 
ATOM     30  C   UNL     1       2.835  -4.171   3.969  0.00  0.00    +0.007 C 
ATOM     31  H   UNL     1      -1.030  -2.463   3.019  0.00  0.00    -0.081 HD
ENDBRANCH  23  24
ENDBRANCH   2  23
TORSDOF 7
