REMARK  Name = ZINC04018287
REMARK  14 active torsions:
REMARK  status: ('A' for Active; 'I' for Inactive)
REMARK    1  A    between atoms: C_4  and  C_7
REMARK    2  A    between atoms: C_7  and  C_8
REMARK    3  A    between atoms: C_8  and  C_10
REMARK    4  A    between atoms: C_8  and  N_35
REMARK    5  A    between atoms: N_12  and  C_13
REMARK    6  A    between atoms: C_13  and  C_15
REMARK    7  A    between atoms: C_13  and  C_22
REMARK    8  A    between atoms: C_15  and  C_16
REMARK    9  A    between atoms: C_22  and  O_24
REMARK   10  A    between atoms: O_24  and  C_25
REMARK   11  A    between atoms: C_25  and  C_26
REMARK   12  A    between atoms: C_29  and  N_32
REMARK   13  A    between atoms: C_36  and  C_38
REMARK   14  A    between atoms: C_38  and  N_65
REMARK                            x       y       z     vdW  Elec       q    Type
REMARK                         _______ _______ _______ _____ _____    ______ ____
ROOT
ATOM      1  C   UNL     1       0.167  -2.022   1.434  0.00  0.00    +0.234 C 
ATOM      2  O   UNL     1      -0.808  -2.726   1.593  0.00  0.00    -0.274 OA
ATOM      3  N   UNL     1       1.379  -2.581   1.251  0.00  0.00    -0.301 N 
ATOM      4  H   UNL     1       2.159  -2.018   1.124  0.00  0.00    +0.150 HD
ENDROOT
BRANCH   1   5
ATOM      5  C   UNL     1       0.023  -0.522   1.442  0.00  0.00    +0.163 C 
BRANCH   5   6
ATOM      6  N   UNL     1      -1.228  -0.155   2.111  0.00  0.00    -0.305 N 
ATOM      7  C   UNL     1      -2.406  -0.593   1.624  0.00  0.00    +0.196 C 
ATOM      8  O   UNL     1      -2.431  -1.290   0.632  0.00  0.00    -0.278 OA
ATOM      9  H   UNL     1      -1.208   0.403   2.904  0.00  0.00    +0.149 HD
BRANCH   7  10
ATOM     10  C   UNL     1      -3.692  -0.215   2.312  0.00  0.00    +0.011 C 
BRANCH  10  13
ATOM     11  H   UNL     1      -5.701  -0.574   2.035  0.00  0.00    -0.089 HD
ATOM     12  H   UNL     1      -4.824  -0.537   0.623  0.00  0.00    -0.089 HD
ATOM     13  N   UNL     1      -4.820  -0.837   1.596  0.00  0.00    +0.384 N 
ATOM     14  H   UNL     1      -4.721  -1.858   1.631  0.00  0.00    -0.089 HD
ENDBRANCH  10  13
ENDBRANCH   7  10
ENDBRANCH   5   6
BRANCH   5  15
ATOM     15  C   UNL     1       0.002  -0.004   0.002  0.00  0.00    +0.067 C 
BRANCH  15  19
ATOM     16  C   UNL     1      -0.056   4.267   0.025  0.00  0.00    +0.000 A 
ATOM     17  C   UNL     1       1.151   3.592   0.010  0.00  0.00    +0.000 A 
ATOM     18  C   UNL     1       1.169   2.210   0.003  0.00  0.00    +0.004 A 
ATOM     19  C   UNL     1      -0.018   1.503   0.010  0.00  0.00    -0.045 A 
ATOM     20  C   UNL     1      -1.225   2.178   0.020  0.00  0.00    +0.004 A 
ATOM     21  C   UNL     1      -1.244   3.560   0.032  0.00  0.00    +0.000 A 
ENDBRANCH  15  19
ENDBRANCH   5  15
ENDBRANCH   1   5
BRANCH   3  22
ATOM     22  C   UNL     1       1.520  -4.040   1.244  0.00  0.00    +0.186 C 
BRANCH  22  23
ATOM     23  C   UNL     1       2.926  -4.411   1.636  0.00  0.00    +0.328 C 
ATOM     24  O   UNL     1       3.729  -3.546   1.896  0.00  0.00    -0.249 OA
BRANCH  23  25
ATOM     25  O   UNL     1       3.287  -5.702   1.698  0.00  0.00    -0.459 OA
BRANCH  25  26
ATOM     26  C   UNL     1       4.658  -5.986   2.083  0.00  0.00    +0.267 C 
BRANCH  26  27
ATOM     27  C   UNL     1       4.877  -7.477   2.097  0.00  0.00    -0.010 A 
ATOM     28  C   UNL     1       4.653  -8.198   3.255  0.00  0.00    +0.009 A 
ATOM     29  C   UNL     1       4.850  -9.566   3.267  0.00  0.00    +0.033 A 
ATOM     30  C   UNL     1       5.281 -10.212   2.124  0.00  0.00    +0.126 A 
ATOM     31  C   UNL     1       5.510  -9.491   0.967  0.00  0.00    +0.033 A 
ATOM     32  C   UNL     1       5.309  -8.123   0.954  0.00  0.00    +0.009 A 
BRANCH  30  33
ATOM     33  N   UNL     1       5.496 -11.676   2.138  0.00  0.00    +0.056 N 
ATOM     34  O   UNL     1       5.876 -12.246   1.130  0.00  0.00    -0.126 OA
ATOM     35  O   UNL     1       5.294 -12.312   3.157  0.00  0.00    -0.126 OA
ENDBRANCH  30  33
ENDBRANCH  26  27
ENDBRANCH  25  26
ENDBRANCH  23  25
ENDBRANCH  22  23
BRANCH  22  36
ATOM     36  C   UNL     1       1.224  -4.573  -0.160  0.00  0.00    +0.069 C 
BRANCH  36  37
ATOM     37  C   UNL     1      -0.219  -4.310  -0.503  0.00  0.00    -0.045 A 
ATOM     38  C   UNL     1      -1.185  -5.251  -0.199  0.00  0.00    +0.004 A 
ATOM     39  C   UNL     1      -2.510  -5.007  -0.510  0.00  0.00    +0.000 A 
ATOM     40  C   UNL     1      -2.867  -3.827  -1.135  0.00  0.00    +0.000 A 
ATOM     41  C   UNL     1      -1.901  -2.888  -1.444  0.00  0.00    +0.000 A 
ATOM     42  C   UNL     1      -0.577  -3.130  -1.128  0.00  0.00    +0.004 A 
ENDBRANCH  36  37
ENDBRANCH  22  36
ENDBRANCH   3  22
TORSDOF 14
