REMARK  Name = ZINC20181098
REMARK  9 active torsions:
REMARK  status: ('A' for Active; 'I' for Inactive)
REMARK    1  A    between atoms: C_1  and  C_2
REMARK    2  A    between atoms: C_5  and  C_36
REMARK    3  A    between atoms: N_8  and  C_10
REMARK    4  A    between atoms: C_10  and  C_11
REMARK    5  A    between atoms: C_11  and  C_12
REMARK    6  A    between atoms: C_12  and  N_13
REMARK    7  A    between atoms: C_14  and  C_16
REMARK    8  A    between atoms: C_16  and  N_17
REMARK    9  A    between atoms: C_26  and  C_27
REMARK                            x       y       z     vdW  Elec       q    Type
REMARK                         _______ _______ _______ _____ _____    ______ ____
ROOT
ATOM      1  N   UNL     1      -0.485   2.199   7.793  0.00  0.00    -0.257 N 
ATOM      2  C   UNL     1      -1.046   0.950   8.024  0.00  0.00    +0.051 A 
ATOM      3  C   UNL     1      -2.041   0.497   7.159  0.00  0.00    +0.024 A 
ATOM      4  C   UNL     1      -2.624  -0.739   7.350  0.00  0.00    +0.002 A 
ATOM      5  C   UNL     1      -2.231  -1.546   8.402  0.00  0.00    +0.001 A 
ATOM      6  C   UNL     1      -1.246  -1.113   9.269  0.00  0.00    +0.017 A 
ATOM      7  C   UNL     1      -0.658   0.128   9.084  0.00  0.00    +0.034 A 
ATOM      8  S   UNL     1       0.598   0.684  10.196  0.00  0.00    -0.082 S 
ATOM      9  C   UNL     1       1.500   1.815   9.170  0.00  0.00    +0.076 C 
ATOM     10  C   UNL     1       2.850   1.917   9.229  0.00  0.00    +0.028 C 
ATOM     11  C   UNL     1       0.694   2.639   8.240  0.00  0.00    +0.258 C 
ATOM     12  O   UNL     1       1.107   3.726   7.884  0.00  0.00    -0.269 OA
ENDROOT
BRANCH  10  13
ATOM     13  C   UNL     1       3.571   2.725   8.234  0.00  0.00    -0.022 A 
ATOM     14  C   UNL     1       4.682   3.485   8.617  0.00  0.00    +0.008 A 
ATOM     15  C   UNL     1       5.353   4.239   7.678  0.00  0.00    +0.002 A 
ATOM     16  C   UNL     1       4.930   4.248   6.360  0.00  0.00    +0.020 A 
ATOM     17  C   UNL     1       3.831   3.498   5.973  0.00  0.00    +0.042 A 
ATOM     18  C   UNL     1       3.153   2.733   6.899  0.00  0.00    +0.028 A 
ATOM     19 CL   UNL     1       3.312   3.516   4.316  0.00  0.00    -0.084 Cl
ENDBRANCH  10  13
BRANCH   1  20
ATOM     20  C   UNL     1      -1.264   3.127   6.970  0.00  0.00    +0.209 C 
BRANCH  20  22
ATOM     21  N   UNL     1      -1.397   3.790   4.590  0.00  0.00    -0.314 N 
ATOM     22  C   UNL     1      -0.816   3.024   5.535  0.00  0.00    +0.231 C 
ATOM     23  O   UNL     1       0.067   2.250   5.229  0.00  0.00    -0.274 OA
ATOM     24  H   UNL     1      -2.198   4.492   4.867  0.00  0.00    +0.149 HD
BRANCH  21  25
ATOM     25  C   UNL     1      -0.961   3.689   3.195  0.00  0.00    +0.102 C 
BRANCH  25  26
ATOM     26  C   UNL     1      -1.775   4.659   2.336  0.00  0.00    +0.000 C 
BRANCH  26  27
ATOM     27  C   UNL     1      -1.320   4.554   0.878  0.00  0.00    -0.077 C 
BRANCH  27  33
ATOM     28  C   UNL     1      -4.201   7.496   0.004  0.00  0.00    +0.005 C 
ATOM     29  C   UNL     1      -4.321   6.160  -0.732  0.00  0.00    -0.031 C 
ATOM     30  C   UNL     1      -3.772   6.308  -2.153  0.00  0.00    +0.003 C 
ATOM     31  C   UNL     1      -2.286   6.669  -2.083  0.00  0.00    -0.031 C 
ATOM     32  C   UNL     1      -1.539   5.587  -1.300  0.00  0.00    -0.076 C 
ATOM     33  N   UNL     1      -2.101   5.485   0.053  0.00  0.00    +0.380 N 
ATOM     34  C   UNL     1      -3.516   5.092   0.013  0.00  0.00    -0.076 C 
ATOM     35  C   UNL     1      -1.715   6.760  -3.499  0.00  0.00    +0.005 C 
ATOM     36  H   UNL     1      -2.043   6.481   0.517  0.00  0.00    -0.082 HD
ENDBRANCH  27  33
ENDBRANCH  26  27
ENDBRANCH  25  26
ENDBRANCH  21  25
ENDBRANCH  20  22
ENDBRANCH   1  20
TORSDOF 7
