REMARK  Name = ZINC39971224
REMARK  8 active torsions:
REMARK  status: ('A' for Active; 'I' for Inactive)
REMARK    1  A    between atoms: C_1  and  C_2
REMARK    2  A    between atoms: C_2  and  C_3
REMARK    3  A    between atoms: N_9  and  S_10
REMARK    4  A    between atoms: S_10  and  C_13
REMARK    5  A    between atoms: C_16  and  N_19
REMARK    6  A    between atoms: N_19  and  C_20
REMARK    7  A    between atoms: C_20  and  N_22
REMARK    8  A    between atoms: C_30  and  C_32
REMARK                            x       y       z     vdW  Elec       q    Type
REMARK                         _______ _______ _______ _____ _____    ______ ____
ROOT
ATOM      1  C   UNL     1      -1.768   2.704   1.871  0.00  0.00    +0.106 A 
ATOM      2  C   UNL     1      -0.940   3.442   1.045  0.00  0.00    +0.030 A 
ATOM      3  C   UNL     1      -1.270   4.742   0.716  0.00  0.00    +0.025 A 
ATOM      4  C   UNL     1      -2.435   5.309   1.216  0.00  0.00    +0.033 A 
ATOM      5  C   UNL     1      -3.265   4.566   2.046  0.00  0.00    +0.025 A 
ATOM      6  C   UNL     1      -2.932   3.264   2.366  0.00  0.00    +0.030 A 
ENDROOT
BRANCH   1   7
ATOM      7  S   UNL     1      -1.344   1.046   2.288  0.00  0.00    +0.061 S 
ATOM      8  O   UNL     1      -1.866   0.808   3.588  0.00  0.00    -0.153 OA
ATOM      9  O   UNL     1       0.035   0.890   1.981  0.00  0.00    -0.153 OA
BRANCH   7  15
ATOM     10  C   UNL     1      -1.689  -0.179  -0.112  0.00  0.00    +0.080 C 
ATOM     11  C   UNL     1      -1.573  -1.688  -0.348  0.00  0.00    +0.021 C 
ATOM     12  C   UNL     1      -2.916  -2.353  -0.037  0.00  0.00    +0.003 C 
ATOM     13  C   UNL     1      -3.274  -2.120   1.433  0.00  0.00    +0.017 C 
ATOM     14  C   UNL     1      -3.409  -0.616   1.689  0.00  0.00    +0.110 C 
ATOM     15  N   UNL     1      -2.175   0.053   1.255  0.00  0.00    -0.174 NA
BRANCH  10  17
ATOM     16  C   UNL     1       0.125   0.350  -1.747  0.00  0.00    +0.005 C 
ATOM     17  C   UNL     1      -0.316   0.474  -0.287  0.00  0.00    +0.017 C 
ENDBRANCH  10  17
ENDBRANCH   7  15
ENDBRANCH   1   7
BRANCH   4  18
ATOM     18  N   UNL     1      -2.771   6.626   0.886  0.00  0.00    -0.296 N 
ATOM     19  H   UNL     1      -2.234   7.117   0.245  0.00  0.00    +0.154 HD
BRANCH  18  20
ATOM     20  C   UNL     1      -3.841   7.212   1.458  0.00  0.00    +0.142 C 
ATOM     21  S   UNL     1      -5.319   7.319   0.601  0.00  0.00    -0.018 S 
BRANCH  20  22
ATOM     22  N   UNL     1      -3.748   7.713   2.706  0.00  0.00    -0.279 N 
ATOM     23  C   UNL     1      -4.815   8.243   3.438  0.00  0.00    +0.039 A 
ATOM     24  C   UNL     1      -6.157   8.374   3.078  0.00  0.00    +0.024 A 
ATOM     25  C   UNL     1      -7.062   8.932   3.956  0.00  0.00    +0.002 A 
ATOM     26  C   UNL     1      -6.646   9.365   5.202  0.00  0.00    +0.000 A 
ATOM     27  C   UNL     1      -5.318   9.238   5.566  0.00  0.00    +0.005 A 
ATOM     28  C   UNL     1      -4.408   8.680   4.689  0.00  0.00    -0.024 A 
ATOM     29  C   UNL     1      -2.924   8.427   4.828  0.00  0.00    +0.059 C 
ATOM     30  C   UNL     1      -2.516   7.777   3.495  0.00  0.00    +0.082 C 
ATOM     31  C   UNL     1      -1.474   8.643   2.784  0.00  0.00    +0.029 C 
ENDBRANCH  20  22
ENDBRANCH  18  20
ENDBRANCH   4  18
TORSDOF 6
