REMARK  Name = ZINC44499808
REMARK  6 active torsions:
REMARK  status: ('A' for Active; 'I' for Inactive)
REMARK    1  A    between atoms: C_1  and  C_2
REMARK    2  A    between atoms: C_5  and  O_33
REMARK    3  A    between atoms: C_17  and  C_32
REMARK    4  A    between atoms: C_21  and  S_25
REMARK    5  A    between atoms: S_25  and  C_26
REMARK    6  A    between atoms: N_30  and  C_31
REMARK                            x       y       z     vdW  Elec       q    Type
REMARK                         _______ _______ _______ _____ _____    ______ ____
ROOT
ATOM      1  C   UNL     1       0.383   0.807   0.711  0.00  0.00    +0.016 C 
ATOM      2  C   UNL     1       0.152  -0.704   0.611  0.00  0.00    -0.008 C 
ATOM      3  C   UNL     1       0.977  -1.258  -0.540  0.00  0.00    +0.014 C 
ATOM      4  C   UNL     1       2.199  -2.012  -0.026  0.00  0.00    +0.032 C 
ATOM      5  C   UNL     1       2.942  -1.267   1.072  0.00  0.00    +0.119 C 
ATOM      6  C   UNL     1       2.053  -1.070   2.304  0.00  0.00    +0.062 C 
ATOM      7  C   UNL     1       0.619  -1.348   1.895  0.00  0.00    -0.065 C 
ATOM      8  C   UNL     1      -0.114  -2.118   2.637  0.00  0.00    -0.027 C 
ATOM      9  C   UNL     1      -1.529  -2.499   2.293  0.00  0.00    +0.031 C 
ATOM     10  C   UNL     1      -1.674  -2.378   0.771  0.00  0.00    +0.001 C 
ATOM     11  C   UNL     1      -1.346  -0.930   0.403  0.00  0.00    +0.003 C 
ATOM     12  C   UNL     1      -1.776  -0.581  -1.009  0.00  0.00    +0.005 C 
ATOM     13  C   UNL     1      -3.255  -0.862  -1.290  0.00  0.00    +0.015 C 
ATOM     14  C   UNL     1      -3.904  -1.608  -0.151  0.00  0.00    +0.030 C 
ATOM     15  C   UNL     1      -3.017  -2.797   0.268  0.00  0.00    +0.007 C 
ATOM     16  C   UNL     1      -3.949  -3.544   1.234  0.00  0.00    +0.027 C 
ATOM     17  C   UNL     1      -5.314  -3.458   0.496  0.00  0.00    +0.121 C 
ATOM     18  C   UNL     1      -5.187  -2.333  -0.525  0.00  0.00    +0.153 C 
ATOM     19  O   UNL     1      -5.928  -2.061  -1.430  0.00  0.00    -0.296 OA
ATOM     20  C   UNL     1      -4.248  -0.674   1.006  0.00  0.00    +0.019 C 
ENDROOT
BRANCH   5  21
ATOM     21  O   UNL     1       3.392  -0.000   0.586  0.00  0.00    -0.391 OA
ATOM     22  H   UNL     1       3.874   0.523   1.241  0.00  0.00    +0.210 HD
ENDBRANCH   5  21
BRANCH  17  23
ATOM     23  S   UNL     1      -6.639  -3.087   1.677  0.00  0.00    -0.077 S 
BRANCH  23  24
ATOM     24  C   UNL     1      -8.109  -3.172   0.709  0.00  0.00    +0.169 A 
ATOM     25  N   UNL     1      -8.170  -3.452  -0.572  0.00  0.00    -0.230 NA
ATOM     26  C   UNL     1      -9.453  -3.427  -0.971  0.00  0.00    +0.131 A 
ATOM     27  C   UNL     1     -10.220  -3.123   0.089  0.00  0.00    +0.107 A 
ATOM     28  N   UNL     1      -9.375  -2.964   1.164  0.00  0.00    -0.329 N 
ATOM     29  C   UNL     1      -9.764  -2.631   2.537  0.00  0.00    +0.151 C 
ENDBRANCH  23  24
ENDBRANCH  17  23
TORSDOF 3
