REMARK  Name = ZINC59167382
REMARK  9 active torsions:
REMARK  status: ('A' for Active; 'I' for Inactive)
REMARK    1  A    between atoms: C_1  and  C_2
REMARK    2  A    between atoms: C_2  and  C_4
REMARK    3  A    between atoms: C_2  and  O_18
REMARK    4  A    between atoms: N_6  and  N_7
REMARK    5  A    between atoms: C_8  and  C_9
REMARK    6  A    between atoms: C_10  and  O_17
REMARK    7  A    between atoms: C_12  and  O_16
REMARK    8  A    between atoms: C_14  and  O_15
REMARK    9  A    between atoms: O_18  and  C_19
REMARK                            x       y       z     vdW  Elec       q    Type
REMARK                         _______ _______ _______ _____ _____    ______ ____
ROOT
ATOM      1  C   UNL     1       0.627  -0.284  -1.345  0.00  0.00    +0.273 C 
ATOM      2  O   UNL     1      -0.044  -0.757  -2.238  0.00  0.00    -0.270 OA
ATOM      3  N   UNL     1       1.928  -0.002  -1.556  0.00  0.00    -0.204 N 
ATOM      4  H   UNL     1       2.464   0.375  -0.841  0.00  0.00    +0.177 HD
ENDROOT
BRANCH   1   6
ATOM      5  C   UNL     1       0.005   1.494   0.268  0.00  0.00    +0.062 C 
ATOM      6  C   UNL     1       0.005  -0.013   0.001  0.00  0.00    +0.257 C 
BRANCH   6   7
ATOM      7  O   UNL     1      -1.339  -0.499   0.012  0.00  0.00    -0.478 OA
BRANCH   7   8
ATOM      8  C   UNL     1      -1.869  -0.818   1.222  0.00  0.00    +0.140 A 
ATOM      9  C   UNL     1      -1.155  -0.562   2.383  0.00  0.00    +0.048 A 
ATOM     10  C   UNL     1      -1.696  -0.887   3.612  0.00  0.00    +0.023 A 
ATOM     11  C   UNL     1      -2.950  -1.468   3.686  0.00  0.00    +0.043 A 
ATOM     12  C   UNL     1      -3.665  -1.724   2.529  0.00  0.00    +0.043 A 
ATOM     13  C   UNL     1      -3.129  -1.395   1.298  0.00  0.00    +0.084 A 
ATOM     14 CL   UNL     1      -4.029  -1.711  -0.153  0.00  0.00    -0.080 Cl
ATOM     15 CL   UNL     1      -3.627  -1.875   5.232  0.00  0.00    -0.083 Cl
ENDBRANCH   7   8
ENDBRANCH   6   7
ENDBRANCH   1   6
BRANCH   3  16
ATOM     16  N   UNL     1       2.505  -0.255  -2.807  0.00  0.00    -0.187 NA
ATOM     17  C   UNL     1       3.759   0.017  -3.010  0.00  0.00    +0.145 C 
BRANCH  17  18
ATOM     18  C   UNL     1       4.366  -0.248  -4.324  0.00  0.00    +0.078 A 
ATOM     19  C   UNL     1       3.592  -0.789  -5.361  0.00  0.00    +0.132 A 
ATOM     20  C   UNL     1       4.170  -1.035  -6.594  0.00  0.00    +0.091 A 
ATOM     21  C   UNL     1       5.511  -0.749  -6.806  0.00  0.00    +0.124 A 
ATOM     22  C   UNL     1       6.284  -0.214  -5.784  0.00  0.00    +0.091 A 
ATOM     23  C   UNL     1       5.719   0.043  -4.547  0.00  0.00    +0.132 A 
BRANCH  23  24
ATOM     24  O   UNL     1       6.475   0.572  -3.550  0.00  0.00    -0.506 OA
ATOM     25  H   UNL     1       6.913  -0.089  -2.997  0.00  0.00    +0.292 HD
ENDBRANCH  23  24
BRANCH  21  26
ATOM     26  O   UNL     1       6.072  -0.994  -8.019  0.00  0.00    -0.507 OA
ATOM     27  H   UNL     1       6.018  -0.250  -8.634  0.00  0.00    +0.292 HD
ENDBRANCH  21  26
BRANCH  19  28
ATOM     28  O   UNL     1       2.280  -1.070  -5.156  0.00  0.00    -0.506 OA
ATOM     29  H   UNL     1       1.683  -0.337  -5.360  0.00  0.00    +0.292 HD
ENDBRANCH  19  28
ENDBRANCH  17  18
ENDBRANCH   3  16
TORSDOF 8
