REMARK  Name = ZINC61277954
REMARK  3 active torsions:
REMARK  status: ('A' for Active; 'I' for Inactive)
REMARK    1  A    between atoms: C_6  and  N_7
REMARK    2  A    between atoms: C_10  and  S_12
REMARK    3  A    between atoms: S_12  and  C_13
REMARK                            x       y       z     vdW  Elec       q    Type
REMARK                         _______ _______ _______ _____ _____    ______ ____
ROOT
ATOM      1  C   UNL     1      -0.017   1.388   0.010  0.00  0.00    +0.025 A 
ATOM      2  C   UNL     1       1.161   2.102   0.002  0.00  0.00    +0.032 A 
ATOM      3  C   UNL     1       2.383   1.426  -0.013  0.00  0.00    +0.090 A 
ATOM      4  C   UNL     1       2.400   0.021  -0.021  0.00  0.00    +0.069 A 
ATOM      5  C   UNL     1       1.208  -0.686  -0.014  0.00  0.00    +0.050 A 
ATOM      6  C   UNL     1       0.002  -0.004   0.002  0.00  0.00    +0.027 A 
ATOM      7  N   UNL     1       3.735  -0.348  -0.035  0.00  0.00    -0.333 N 
ATOM      8  H   UNL     1       4.080  -1.254  -0.044  0.00  0.00    +0.168 HD
ATOM      9  C   UNL     1       4.473   0.802  -0.036  0.00  0.00    +0.173 A 
ATOM     10  N   UNL     1       3.678   1.842  -0.023  0.00  0.00    -0.222 NA
ENDROOT
BRANCH   6  11
ATOM     11  N   UNL     1      -1.202  -0.717   0.010  0.00  0.00    -0.358 N 
ATOM     12  H   UNL     1      -2.047  -0.242   0.020  0.00  0.00    +0.142 HD
ATOM     13  H   UNL     1      -1.191  -1.687   0.004  0.00  0.00    +0.142 HD
ENDBRANCH   6  11
BRANCH   9  14
ATOM     14  S   UNL     1       6.234   0.874  -0.052  0.00  0.00    -0.032 S 
BRANCH  14  15
ATOM     15  C   UNL     1       6.590   2.600  -0.047  0.00  0.00    +0.111 A 
ATOM     16  C   UNL     1       7.911   3.052  -0.062  0.00  0.00    +0.006 A 
ATOM     17  C   UNL     1       8.141   4.412  -0.057  0.00  0.00    +0.049 A 
ATOM     18  N   UNL     1       7.106   5.242  -0.038  0.00  0.00    -0.240 NA
ATOM     19  C   UNL     1       5.870   4.784  -0.025  0.00  0.00    +0.222 A 
ATOM     20  N   UNL     1       5.605   3.494  -0.033  0.00  0.00    -0.228 NA
ATOM     21  C   UNL     1       9.630   4.678  -0.076  0.00  0.00    +0.056 C 
ATOM     22  C   UNL     1      10.284   3.344   0.343  0.00  0.00    +0.011 C 
ATOM     23  C   UNL     1       9.224   2.306  -0.085  0.00  0.00    +0.040 C 
ENDBRANCH  14  15
ENDBRANCH   9  14
TORSDOF 3
