REMARK  Name = ZINC09244697
REMARK  8 active torsions:
REMARK  status: ('A' for Active; 'I' for Inactive)
REMARK    1  A    between atoms: C_1  and  C_2
REMARK    2  A    between atoms: C_2  and  N_3
REMARK    3  A    between atoms: C_14  and  N_16
REMARK    4  A    between atoms: C_17  and  C_19
REMARK    5  A    between atoms: C_19  and  C_21
REMARK    6  A    between atoms: C_19  and  O_22
REMARK    7  A    between atoms: O_22  and  C_23
REMARK    8  A    between atoms: C_23  and  C_25
REMARK                            x       y       z     vdW  Elec       q    Type
REMARK                         _______ _______ _______ _____ _____    ______ ____
ROOT
ATOM      1  N   UNL     1      -0.711   8.840   0.052  0.00  0.00    -0.282 N 
ATOM      2  C   UNL     1      -0.124  10.049   0.153  0.00  0.00    +0.258 C 
ATOM      3  O   UNL     1       1.085  10.139   0.142  0.00  0.00    -0.271 OA
ATOM      4  H   UNL     1      -1.677   8.773  -0.006  0.00  0.00    +0.155 HD
ENDROOT
BRANCH   1  16
ATOM      5  N   UNL     1       2.574   4.375  -0.163  0.00  0.00    -0.340 N 
ATOM      6  C   UNL     1       3.660   4.870  -0.862  0.00  0.00    +0.050 A 
ATOM      7  C   UNL     1       4.855   4.286  -1.272  0.00  0.00    +0.026 A 
ATOM      8  C   UNL     1       5.782   5.029  -1.970  0.00  0.00    +0.002 A 
ATOM      9  C   UNL     1       5.539   6.362  -2.267  0.00  0.00    +0.001 A 
ATOM     10  C   UNL     1       4.358   6.955  -1.876  0.00  0.00    +0.010 A 
ATOM     11  C   UNL     1       3.413   6.216  -1.169  0.00  0.00    +0.008 A 
ATOM     12  C   UNL     1       2.087   6.537  -0.609  0.00  0.00    +0.009 A 
ATOM     13  C   UNL     1       1.617   5.364  -0.000  0.00  0.00    +0.050 A 
ATOM     14  C   UNL     1       0.371   5.367   0.620  0.00  0.00    +0.028 A 
ATOM     15  C   UNL     1      -0.391   6.515   0.634  0.00  0.00    +0.025 A 
ATOM     16  C   UNL     1       0.074   7.679   0.031  0.00  0.00    +0.034 A 
ATOM     17  C   UNL     1       1.310   7.693  -0.591  0.00  0.00    +0.034 A 
BRANCH   5  19
ATOM     18  C   UNL     1       3.029   2.920   1.750  0.00  0.00    +0.027 C 
ATOM     19  C   UNL     1       2.453   3.003   0.335  0.00  0.00    +0.119 C 
ENDBRANCH   5  19
ENDBRANCH   1  16
BRANCH   2  20
ATOM     20  C   UNL     1      -0.971  11.289   0.281  0.00  0.00    +0.259 C 
ATOM     21  C   UNL     1      -1.783  11.487  -1.000  0.00  0.00    +0.062 C 
BRANCH  20  22
ATOM     22  O   UNL     1      -0.112  12.441   0.493  0.00  0.00    -0.448 OA
BRANCH  22  23
ATOM     23  C   UNL     1      -0.621  13.459   1.215  0.00  0.00    +0.361 C 
ATOM     24  O   UNL     1      -1.751  13.385   1.656  0.00  0.00    -0.243 OA
BRANCH  23  25
ATOM     25  C   UNL     1       0.194  14.662   1.470  0.00  0.00    +0.175 A 
ATOM     26  C   UNL     1      -0.355  15.781   2.253  0.00  0.00    +0.021 A 
ATOM     27  C   UNL     1      -1.636  15.765   2.794  0.00  0.00    +0.011 A 
ATOM     28  C   UNL     1      -2.077  16.850   3.522  0.00  0.00    +0.001 A 
ATOM     29  C   UNL     1      -1.256  17.951   3.724  0.00  0.00    +0.001 A 
ATOM     30  C   UNL     1       0.019  17.985   3.202  0.00  0.00    +0.014 A 
ATOM     31  C   UNL     1       0.483  16.900   2.465  0.00  0.00    +0.050 A 
ATOM     32  C   UNL     1       1.827  16.853   1.873  0.00  0.00    +0.272 A 
ATOM     33  O   UNL     1       2.601  17.783   2.010  0.00  0.00    -0.266 OA
ATOM     34  N   UNL     1       2.184  15.755   1.174  0.00  0.00    -0.242 N 
ATOM     35  H   UNL     1       3.072  15.728   0.785  0.00  0.00    +0.192 HD
ATOM     36  N   UNL     1       1.414  14.749   0.998  0.00  0.00    -0.164 NA
ENDBRANCH  23  25
ENDBRANCH  22  23
ENDBRANCH  20  22
ENDBRANCH   2  20
TORSDOF 6
