REMARK  Name = ZINC13476824
REMARK  7 active torsions:
REMARK  status: ('A' for Active; 'I' for Inactive)
REMARK    1  A    between atoms: C_1  and  C_2
REMARK    2  A    between atoms: C_6  and  C_8
REMARK    3  A    between atoms: C_8  and  O_10
REMARK    4  A    between atoms: O_10  and  C_11
REMARK    5  A    between atoms: C_14  and  C_19
REMARK    6  A    between atoms: C_16  and  O_17
REMARK    7  A    between atoms: O_17  and  C_18
REMARK                            x       y       z     vdW  Elec       q    Type
REMARK                         _______ _______ _______ _____ _____    ______ ____
ROOT
ATOM      1  C   UNL     1       0.855   7.350   0.136  0.00  0.00    +0.173 A 
ATOM      2  C   UNL     1      -0.430   7.875   0.092  0.00  0.00    +0.051 A 
ATOM      3  C   UNL     1      -0.621   9.239   0.077  0.00  0.00    +0.012 A 
ATOM      4  C   UNL     1       0.482  10.100   0.107  0.00  0.00    -0.020 A 
ATOM      5  C   UNL     1       1.777   9.571   0.152  0.00  0.00    +0.057 A 
ATOM      6  C   UNL     1       1.959   8.201   0.171  0.00  0.00    +0.163 A 
ENDROOT
BRANCH   4   7
ATOM      7  C   UNL     1       0.281  11.555   0.092  0.00  0.00    +0.028 C 
ATOM      8  C   UNL     1      -0.898  12.073  -0.335  0.00  0.00    +0.077 C 
ATOM      9  C   UNL     1      -1.374  13.471  -0.317  0.00  0.00    +0.256 C 
ATOM     10  O   UNL     1      -0.689  14.374   0.126  0.00  0.00    -0.269 OA
ATOM     11  N   UNL     1      -2.583  13.691  -0.805  0.00  0.00    -0.270 N 
ATOM     12  C   UNL     1      -3.339  12.688  -1.295  0.00  0.00    +0.118 C 
ATOM     13  S   UNL     1      -4.913  12.771  -1.964  0.00  0.00    -0.027 S 
ATOM     14  S   UNL     1      -2.299  11.252  -1.083  0.00  0.00    -0.061 S 
ATOM     15  H   UNL     1      -2.934  14.595  -0.812  0.00  0.00    +0.156 HD
ENDBRANCH   4   7
BRANCH   6  16
ATOM     16  O   UNL     1       3.216   7.684   0.220  0.00  0.00    -0.491 OA
ATOM     17  C   UNL     1       4.300   8.614   0.254  0.00  0.00    +0.277 C 
ENDBRANCH   6  16
BRANCH   1  18
ATOM     18  O   UNL     1       1.038   6.004   0.150  0.00  0.00    -0.419 OA
BRANCH  18  19
ATOM     19  C   UNL     1       1.198   5.422   1.354  0.00  0.00    +0.345 C 
ATOM     20  O   UNL     1       1.269   6.106   2.356  0.00  0.00    -0.245 OA
BRANCH  19  26
ATOM     21  C   UNL     1       1.705   1.312   4.138  0.00  0.00    +0.044 C 
ATOM     22  C   UNL     1       1.532   1.970   2.793  0.00  0.00    -0.050 A 
ATOM     23  C   UNL     1       1.457   1.193   1.650  0.00  0.00    +0.003 A 
ATOM     24  C   UNL     1       1.292   1.788   0.412  0.00  0.00    +0.001 A 
ATOM     25  C   UNL     1       1.207   3.161   0.308  0.00  0.00    +0.015 A 
ATOM     26  C   UNL     1       1.288   3.951   1.457  0.00  0.00    +0.060 A 
ATOM     27  C   UNL     1       1.455   3.344   2.704  0.00  0.00    +0.018 A 
ENDBRANCH  19  26
ENDBRANCH  18  19
ENDBRANCH   1  18
TORSDOF 5
