REMARK  Name = ZINC63271165
REMARK  5 active torsions:
REMARK  status: ('A' for Active; 'I' for Inactive)
REMARK    1  A    between atoms: N_17  and  C_18
REMARK    2  A    between atoms: C_18  and  C_19
REMARK    3  A    between atoms: C_19  and  C_20
REMARK    4  A    between atoms: C_20  and  C_21
REMARK    5  A    between atoms: N_23  and  C_24
REMARK                            x       y       z     vdW  Elec       q    Type
REMARK                         _______ _______ _______ _____ _____    ______ ____
ROOT
ATOM      1  C   UNL     1      -0.011   1.419   1.129  0.00  0.00    +0.001 A 
ATOM      2  C   UNL     1       1.173   2.168   1.088  0.00  0.00    +0.002 A 
ATOM      3  C   UNL     1       2.389   1.601   0.946  0.00  0.00    +0.026 A 
ATOM      4  C   UNL     1       2.517   0.190   0.829  0.00  0.00    +0.043 A 
ATOM      5  N   UNL     1       3.571  -0.584   0.705  0.00  0.00    -0.376 N 
ATOM      6  C   UNL     1       3.118  -1.964   0.550  0.00  0.00    +0.124 C 
ATOM      7  C   UNL     1       3.712  -2.885   1.623  0.00  0.00    +0.138 C 
ATOM      8  N   UNL     1       2.914  -4.121   1.648  0.00  0.00    -0.283 N 
ATOM      9  C   UNL     1       1.478  -4.077   1.942  0.00  0.00    +0.114 C 
ATOM     10  C   UNL     1       0.776  -3.169   0.916  0.00  0.00    +0.052 C 
ATOM     11  C   UNL     1       1.614  -1.921   0.762  0.00  0.00    -0.036 C 
ATOM     12  C   UNL     1       1.280  -0.628   0.876  0.00  0.00    -0.001 A 
ATOM     13  C   UNL     1      -0.003   0.071   1.030  0.00  0.00    +0.010 A 
ATOM     14  C   UNL     1       3.509  -5.304   1.399  0.00  0.00    +0.302 C 
ATOM     15  O   UNL     1       4.678  -5.339   1.064  0.00  0.00    -0.253 OA
ATOM     16  N   UNL     1       2.808  -6.449   1.520  0.00  0.00    -0.299 N 
ATOM     17  H   UNL     1       1.859  -6.418   1.715  0.00  0.00    +0.150 HD
ATOM     18  H   UNL     1       4.495  -0.289   0.715  0.00  0.00    +0.160 HD
ENDROOT
BRANCH  16  19
ATOM     19  C   UNL     1       3.481  -7.740   1.356  0.00  0.00    +0.106 C 
BRANCH  19  20
ATOM     20  C   UNL     1       2.467  -8.871   1.541  0.00  0.00    +0.028 C 
BRANCH  20  21
ATOM     21  C   UNL     1       3.169 -10.219   1.370  0.00  0.00    +0.097 C 
BRANCH  21  22
ATOM     22  C   UNL     1       2.171 -11.333   1.553  0.00  0.00    +0.217 C 
ATOM     23  O   UNL     1       1.011 -11.073   1.796  0.00  0.00    -0.275 OA
ATOM     24  N   UNL     1       2.566 -12.617   1.446  0.00  0.00    -0.285 N 
ATOM     25  H   UNL     1       3.505 -12.827   1.322  0.00  0.00    +0.155 HD
BRANCH  24  26
ATOM     26  C   UNL     1       1.630 -13.639   1.513  0.00  0.00    +0.033 C 
ATOM     27  C   UNL     1       1.772 -14.646   2.442  0.00  0.00    +0.029 C 
ATOM     28  C   UNL     1       0.740 -15.591   2.457  0.00  0.00    -0.016 C 
ATOM     29  C   UNL     1       0.705 -16.905   2.758  0.00  0.00    +0.025 C 
ATOM     30  C   UNL     1      -0.524 -17.448   2.337  0.00  0.00    +0.106 C 
ATOM     31  N   UNL     1      -1.329 -16.537   1.864  0.00  0.00    -0.279 NA
ATOM     32  C   UNL     1      -0.679 -15.245   2.035  0.00  0.00    +0.158 C 
ATOM     33  C   UNL     1      -0.595 -14.406   0.796  0.00  0.00    +0.006 C 
ATOM     34  C   UNL     1       0.483 -13.646   0.599  0.00  0.00    +0.021 C 
ENDBRANCH  24  26
ENDBRANCH  21  22
ENDBRANCH  20  21
ENDBRANCH  19  20
ENDBRANCH  16  19
TORSDOF 5
