REMARK  Name = ZINC13984904
REMARK  6 active torsions:
REMARK  status: ('A' for Active; 'I' for Inactive)
REMARK    1  A    between atoms: C_4  and  C_7
REMARK    2  A    between atoms: C_7  and  C_8
REMARK    3  A    between atoms: N_12  and  C_30
REMARK    4  A    between atoms: N_17  and  S_20
REMARK    5  A    between atoms: S_20  and  C_23
REMARK    6  A    between atoms: C_30  and  C_31
REMARK                            x       y       z     vdW  Elec       q    Type
REMARK                         _______ _______ _______ _____ _____    ______ ____
ROOT
ATOM      1  C   UNL     1       4.723  -3.965   2.249  0.00  0.00    +0.023 C 
ATOM      2  C   UNL     1       6.173  -3.664   2.561  0.00  0.00    +0.201 C 
ATOM      3  O   UNL     1       7.009  -4.476   2.894  0.00  0.00    -0.277 OA
ATOM      4  N   UNL     1       6.378  -2.339   2.405  0.00  0.00    -0.309 N 
ATOM      5  C   UNL     1       5.126  -1.694   2.001  0.00  0.00    +0.006 C 
ATOM      6  N   UNL     1       4.236  -2.772   1.514  0.00  0.00    +0.401 N 
ATOM      7  C   UNL     1       5.386  -0.692   0.879  0.00  0.00    +0.023 C 
ATOM      8  C   UNL     1       6.336   0.400   1.382  0.00  0.00    +0.109 C 
ATOM      9  N   UNL     1       5.777   0.984   2.609  0.00  0.00    -0.177 NA
ATOM     10  C   UNL     1       5.424   0.091   3.721  0.00  0.00    +0.109 C 
ATOM     11  C   UNL     1       4.481  -0.997   3.197  0.00  0.00    +0.023 C 
ATOM     12  H   UNL     1       4.343  -2.899   0.519  0.00  0.00    -0.082 HD
ATOM     13  H   UNL     1       3.275  -2.576   1.750  0.00  0.00    -0.082 HD
ENDROOT
BRANCH   9  14
ATOM     14  S   UNL     1       5.550   2.620   2.736  0.00  0.00    +0.061 S 
ATOM     15  O   UNL     1       5.553   2.924   4.124  0.00  0.00    -0.153 OA
ATOM     16  O   UNL     1       6.452   3.227   1.821  0.00  0.00    -0.153 OA
BRANCH  14  17
ATOM     17  C   UNL     1       3.926   2.967   2.147  0.00  0.00    +0.106 A 
ATOM     18  C   UNL     1       3.721   3.244   0.808  0.00  0.00    +0.030 A 
ATOM     19  C   UNL     1       2.447   3.517   0.346  0.00  0.00    +0.022 A 
ATOM     20  C   UNL     1       1.377   3.513   1.224  0.00  0.00    +0.041 A 
ATOM     21  C   UNL     1       1.583   3.236   2.563  0.00  0.00    +0.022 A 
ATOM     22  C   UNL     1       2.857   2.958   3.023  0.00  0.00    +0.030 A 
ATOM     23 CL   UNL     1      -0.223   3.856   0.644  0.00  0.00    -0.084 Cl
ENDBRANCH  14  17
ENDBRANCH   9  14
BRANCH   1  24
ATOM     24  C   UNL     1       4.615  -5.213   1.370  0.00  0.00    +0.028 C 
BRANCH  24  28
ATOM     25  C   UNL     1       0.499  -6.092   0.640  0.00  0.00    +0.000 A 
ATOM     26  C   UNL     1       1.192  -5.261  -0.221  0.00  0.00    +0.000 A 
ATOM     27  C   UNL     1       2.523  -4.976   0.016  0.00  0.00    +0.003 A 
ATOM     28  C   UNL     1       3.163  -5.522   1.113  0.00  0.00    -0.048 A 
ATOM     29  C   UNL     1       2.470  -6.352   1.974  0.00  0.00    +0.003 A 
ATOM     30  C   UNL     1       1.139  -6.638   1.738  0.00  0.00    +0.000 A 
ENDBRANCH  24  28
ENDBRANCH   1  24
BRANCH   4  31
ATOM     31  C   UNL     1       7.656  -1.652   2.609  0.00  0.00    +0.141 C 
BRANCH  31  32
ATOM     32  C   UNL     1       8.462  -1.703   1.337  0.00  0.00    -0.030 A 
ATOM     33  C   UNL     1       8.397  -2.818   0.522  0.00  0.00    +0.005 A 
ATOM     34  C   UNL     1       9.137  -2.865  -0.645  0.00  0.00    +0.000 A 
ATOM     35  C   UNL     1       9.941  -1.797  -0.997  0.00  0.00    +0.000 A 
ATOM     36  C   UNL     1      10.005  -0.682  -0.183  0.00  0.00    +0.000 A 
ATOM     37  C   UNL     1       9.262  -0.633   0.982  0.00  0.00    +0.005 A 
ENDBRANCH  31  32
ENDBRANCH   4  31
TORSDOF 6
