REMARK  Name = ZINC59639212
REMARK  7 active torsions:
REMARK  status: ('A' for Active; 'I' for Inactive)
REMARK    1  A    between atoms: C_1  and  C_2
REMARK    2  A    between atoms: C_2  and  O_3
REMARK    3  A    between atoms: O_3  and  C_4
REMARK    4  A    between atoms: C_4  and  C_6
REMARK    5  A    between atoms: C_7  and  C_28
REMARK    6  A    between atoms: C_12  and  C_14
REMARK    7  A    between atoms: C_17  and  C_19
REMARK                            x       y       z     vdW  Elec       q    Type
REMARK                         _______ _______ _______ _____ _____    ______ ____
ROOT
ATOM      1  C   UNL     1      -2.800  -2.431   0.231  0.00  0.00    +0.081 C 
ATOM      2  C   UNL     1      -2.985  -3.731  -0.085  0.00  0.00    +0.021 C 
ATOM      3  N   UNL     1      -4.237  -4.235  -0.292  0.00  0.00    -0.273 N 
ATOM      4  C   UNL     1      -5.355  -3.504  -0.204  0.00  0.00    +0.304 C 
ATOM      5  O   UNL     1      -6.426  -4.042  -0.406  0.00  0.00    -0.252 OA
ATOM      6  N   UNL     1      -5.332  -2.192   0.103  0.00  0.00    -0.285 N 
ATOM      7  C   UNL     1      -4.029  -1.553   0.352  0.00  0.00    +0.179 C 
ATOM      8  C   UNL     1      -1.789  -4.640  -0.210  0.00  0.00    +0.061 C 
ATOM      9  H   UNL     1      -4.321  -5.175  -0.516  0.00  0.00    +0.156 HD
ATOM     10  H   UNL     1      -6.155  -1.681   0.161  0.00  0.00    +0.151 HD
ENDROOT
BRANCH   7  11
ATOM     11  C   UNL     1      -4.049  -0.971   1.742  0.00  0.00    +0.131 A 
ATOM     12  C   UNL     1      -3.656   0.273   2.078  0.00  0.00    +0.047 A 
ATOM     13  C   UNL     1      -3.841   0.402   3.470  0.00  0.00    +0.050 A 
ATOM     14  C   UNL     1      -4.342  -0.783   3.909  0.00  0.00    +0.137 A 
ATOM     15  O   UNL     1      -4.468  -1.604   2.850  0.00  0.00    -0.457 OA
BRANCH  14  16
ATOM     16  C   UNL     1      -4.694  -1.110   5.307  0.00  0.00    +0.037 A 
ATOM     17  C   UNL     1      -3.784  -0.861   6.335  0.00  0.00    +0.034 A 
ATOM     18  C   UNL     1      -4.117  -1.169   7.639  0.00  0.00    +0.060 A 
ATOM     19  C   UNL     1      -5.354  -1.725   7.927  0.00  0.00    +0.061 A 
ATOM     20  C   UNL     1      -6.261  -1.975   6.912  0.00  0.00    +0.042 A 
ATOM     21  C   UNL     1      -5.940  -1.666   5.605  0.00  0.00    +0.053 A 
ATOM     22 CL   UNL     1      -7.082  -1.973   4.334  0.00  0.00    -0.083 Cl
ATOM     23 CL   UNL     1      -5.766  -2.110   9.569  0.00  0.00    -0.082 Cl
ATOM     24 CL   UNL     1      -2.986  -0.860   8.919  0.00  0.00    -0.082 Cl
ENDBRANCH  14  16
ENDBRANCH   7  11
BRANCH   1  25
ATOM     25  C   UNL     1      -1.503  -1.907   0.446  0.00  0.00    +0.339 C 
ATOM     26  O   UNL     1      -0.543  -2.654   0.473  0.00  0.00    -0.245 OA
BRANCH  25  27
ATOM     27  O   UNL     1      -1.332  -0.581   0.622  0.00  0.00    -0.462 OA
BRANCH  27  29
ATOM     28  C   UNL     1      -0.000   1.398   1.013  0.00  0.00    +0.048 C 
ATOM     29  C   UNL     1       0.004  -0.122   0.835  0.00  0.00    +0.229 C 
ENDBRANCH  27  29
ENDBRANCH  25  27
ENDBRANCH   1  25
TORSDOF 5
