REMARK  Name = ZINC59310726
REMARK  7 active torsions:
REMARK  status: ('A' for Active; 'I' for Inactive)
REMARK    1  A    between atoms: C_1  and  C_2
REMARK    2  A    between atoms: C_2  and  C_23
REMARK    3  A    between atoms: N_3  and  N_4
REMARK    4  A    between atoms: C_7  and  S_10
REMARK    5  A    between atoms: S_10  and  C_11
REMARK    6  A    between atoms: C_11  and  C_12
REMARK    7  A    between atoms: N_14  and  C_15
REMARK                            x       y       z     vdW  Elec       q    Type
REMARK                         _______ _______ _______ _____ _____    ______ ____
ROOT
ATOM      1  N   UNL     1       0.094   0.042   2.322  0.00  0.00    -0.205 N 
ATOM      2  C   UNL     1       0.104  -0.656   3.516  0.00  0.00    +0.232 A 
ATOM      3  N   UNL     1       0.119  -1.966   3.647  0.00  0.00    -0.186 NA
ATOM      4  C   UNL     1       0.125  -2.288   4.945  0.00  0.00    +0.211 A 
ATOM      5  N   UNL     1       0.114  -1.186   5.658  0.00  0.00    -0.144 NA
ATOM      6  N   UNL     1       0.106  -0.113   4.752  0.00  0.00    -0.245 N 
ATOM      7  H   UNL     1       0.087   1.012   2.326  0.00  0.00    +0.177 HD
ATOM      8  H   UNL     1       0.100   0.832   4.971  0.00  0.00    +0.192 HD
ENDROOT
BRANCH   1  11
ATOM      9  C   UNL     1       0.074   1.500   0.007  0.00  0.00    +0.063 C 
ATOM     10  C   UNL     1       0.084  -0.007  -0.001  0.00  0.00    +0.040 C 
ATOM     11  N   UNL     1       0.093  -0.653   1.105  0.00  0.00    -0.189 NA
BRANCH  10  12
ATOM     12  C   UNL     1       0.084  -0.754  -1.310  0.00  0.00    +0.011 C 
ATOM     13  C   UNL     1       1.327  -0.372  -2.115  0.00  0.00    +0.016 C 
ATOM     14  C   UNL     1       1.326  -1.130  -3.444  0.00  0.00    -0.010 C 
ATOM     15  C   UNL     1       1.338  -2.636  -3.172  0.00  0.00    +0.007 C 
ATOM     16  C   UNL     1       0.095  -3.018  -2.366  0.00  0.00    -0.010 C 
ATOM     17  C   UNL     1       0.095  -2.260  -1.038  0.00  0.00    +0.016 C 
ATOM     18  C   UNL     1      -1.161  -2.653  -3.161  0.00  0.00    +0.007 C 
ATOM     19  C   UNL     1      -1.172  -1.147  -3.433  0.00  0.00    -0.010 C 
ATOM     20  C   UNL     1       0.071  -0.765  -4.239  0.00  0.00    +0.007 C 
ATOM     21  C   UNL     1      -1.172  -0.389  -2.104  0.00  0.00    +0.016 C 
ENDBRANCH  10  12
ENDBRANCH   1  11
BRANCH   4  22
ATOM     22  S   UNL     1       0.145  -3.926   5.593  0.00  0.00    -0.075 S 
BRANCH  22  23
ATOM     23  C   UNL     1       0.145  -3.687   7.392  0.00  0.00    +0.173 C 
BRANCH  23  24
ATOM     24  C   UNL     1       0.162  -5.029   8.077  0.00  0.00    +0.228 C 
ATOM     25  O   UNL     1       0.172  -6.046   7.418  0.00  0.00    -0.275 OA
ATOM     26  N   UNL     1       0.165  -5.098   9.423  0.00  0.00    -0.283 N 
ATOM     27  H   UNL     1       0.222  -4.286   9.950  0.00  0.00    +0.155 HD
BRANCH  26  28
ATOM     28  C   UNL     1       0.086  -6.343  10.061  0.00  0.00    +0.069 A 
ATOM     29  C   UNL     1       0.693  -7.454   9.493  0.00  0.00    +0.027 A 
ATOM     30  C   UNL     1       0.614  -8.681  10.124  0.00  0.00    +0.022 A 
ATOM     31  C   UNL     1      -0.070  -8.803  11.321  0.00  0.00    +0.044 A 
ATOM     32  C   UNL     1      -0.677  -7.698  11.890  0.00  0.00    +0.060 A 
ATOM     33  C   UNL     1      -0.597  -6.466  11.266  0.00  0.00    +0.146 A 
ATOM     34  F   UNL     1      -1.184  -5.385  11.825  0.00  0.00    -0.203 F 
ATOM     35 CL   UNL     1      -0.168 -10.347  12.109  0.00  0.00    -0.083 Cl
ENDBRANCH  26  28
ENDBRANCH  23  24
ENDBRANCH  22  23
ENDBRANCH   4  22
TORSDOF 6
