REMARK  Name = ZINC06662741
REMARK  7 active torsions:
REMARK  status: ('A' for Active; 'I' for Inactive)
REMARK    1  A    between atoms: C_1  and  C_2
REMARK    2  A    between atoms: C_2  and  C_27
REMARK    3  A    between atoms: C_7  and  O_26
REMARK    4  A    between atoms: C_9  and  O_13
REMARK    5  A    between atoms: O_13  and  C_14
REMARK    6  A    between atoms: C_14  and  C_15
REMARK    7  A    between atoms: N_17  and  C_18
REMARK                            x       y       z     vdW  Elec       q    Type
REMARK                         _______ _______ _______ _____ _____    ______ ____
ROOT
ATOM      1  C   UNL     1       6.665  -7.476  -1.238  0.00  0.00    +0.056 C 
ATOM      2  C   UNL     1       6.440  -7.578   0.272  0.00  0.00    +0.112 C 
ATOM      3  C   UNL     1       7.716  -7.149   1.011  0.00  0.00    +0.127 C 
ATOM      4  C   UNL     1       7.987  -5.703   0.636  0.00  0.00    +0.174 C 
ATOM      5  O   UNL     1       9.111  -5.301   0.418  0.00  0.00    -0.292 OA
ATOM      6  C   UNL     1       6.820  -4.818   0.550  0.00  0.00    +0.101 A 
ATOM      7  C   UNL     1       6.982  -3.426   0.464  0.00  0.00    +0.134 A 
ATOM      8  C   UNL     1       5.866  -2.615   0.365  0.00  0.00    +0.092 A 
ATOM      9  C   UNL     1       4.595  -3.176   0.365  0.00  0.00    +0.128 A 
ATOM     10  C   UNL     1       4.429  -4.552   0.456  0.00  0.00    +0.092 A 
ATOM     11  C   UNL     1       5.532  -5.383   0.552  0.00  0.00    +0.139 A 
ATOM     12  O   UNL     1       5.363  -6.722   0.652  0.00  0.00    -0.485 OA
ATOM     13  C   UNL     1       6.098  -9.024   0.640  0.00  0.00    +0.056 C 
ENDROOT
BRANCH   7  14
ATOM     14  O   UNL     1       8.224  -2.881   0.471  0.00  0.00    -0.506 OA
ATOM     15  H   UNL     1       8.615  -2.781  -0.408  0.00  0.00    +0.292 HD
ENDBRANCH   7  14
BRANCH   9  16
ATOM     16  O   UNL     1       3.506  -2.373   0.270  0.00  0.00    -0.483 OA
BRANCH  16  17
ATOM     17  C   UNL     1       3.743  -0.967   0.179  0.00  0.00    +0.324 C 
BRANCH  17  18
ATOM     18  C   UNL     1       2.426  -0.241   0.081  0.00  0.00    +0.255 C 
ATOM     19  O   UNL     1       1.387  -0.866   0.088  0.00  0.00    -0.272 OA
ATOM     20  N   UNL     1       2.404   1.103  -0.014  0.00  0.00    -0.280 N 
ATOM     21  H   UNL     1       3.234   1.598  -0.100  0.00  0.00    +0.155 HD
BRANCH  20  22
ATOM     22  C   UNL     1       1.180   1.787   0.012  0.00  0.00    +0.069 A 
ATOM     23  C   UNL     1       0.076   1.214   0.627  0.00  0.00    +0.029 A 
ATOM     24  C   UNL     1      -1.130   1.887   0.647  0.00  0.00    +0.040 A 
ATOM     25  C   UNL     1      -1.237   3.138   0.063  0.00  0.00    +0.126 A 
ATOM     26  C   UNL     1      -0.137   3.713  -0.551  0.00  0.00    +0.078 A 
ATOM     27  C   UNL     1       1.071   3.041  -0.579  0.00  0.00    +0.147 A 
ATOM     28  F   UNL     1       2.144   3.603  -1.178  0.00  0.00    -0.203 F 
ATOM     29  F   UNL     1      -2.416   3.796   0.088  0.00  0.00    -0.205 F 
ENDBRANCH  20  22
ENDBRANCH  17  18
ENDBRANCH  16  17
ENDBRANCH   9  16
TORSDOF 5
