REMARK  Name = ZINC06198186
REMARK  11 active torsions:
REMARK  status: ('A' for Active; 'I' for Inactive)
REMARK    1  A    between atoms: C_1  and  C_2
REMARK    2  A    between atoms: C_2  and  C_3
REMARK    3  A    between atoms: C_10  and  C_15
REMARK    4  A    between atoms: C_15  and  C_17
REMARK    5  A    between atoms: C_15  and  N_76
REMARK    6  A    between atoms: N_21  and  C_22
REMARK    7  A    between atoms: C_27  and  C_28
REMARK    8  A    between atoms: C_27  and  N_76
REMARK    9  A    between atoms: C_28  and  C_29
REMARK   10  A    between atoms: C_35  and  C_36
REMARK   11  A    between atoms: C_35  and  N_76
REMARK                            x       y       z     vdW  Elec       q    Type
REMARK                         _______ _______ _______ _____ _____    ______ ____
ROOT
ATOM      1  C   UNL     1       3.247  -2.025  -2.150  0.00  0.00    +0.039 C 
ENDROOT
BRANCH   1   9
ATOM      2  C   UNL     1      -0.206  -0.532  -7.063  0.00  0.00    -0.047 A 
ATOM      3  C   UNL     1      -1.271  -0.000  -6.349  0.00  0.00    +0.005 A 
ATOM      4  C   UNL     1      -1.248   0.031  -4.971  0.00  0.00    +0.026 A 
ATOM      5  C   UNL     1      -0.147  -0.473  -4.287  0.00  0.00    +0.049 A 
ATOM      6  C   UNL     1       0.931  -1.012  -5.015  0.00  0.00    -0.001 A 
ATOM      7  C   UNL     1       0.886  -1.034  -6.413  0.00  0.00    +0.013 A 
ATOM      8  C   UNL     1       2.088  -1.535  -4.286  0.00  0.00    +0.017 A 
ATOM      9  C   UNL     1       2.074  -1.490  -2.931  0.00  0.00    +0.011 A 
ATOM     10  C   UNL     1       0.968  -0.940  -2.249  0.00  0.00    +0.251 A 
ATOM     11  O   UNL     1       0.978  -0.905  -1.031  0.00  0.00    -0.268 OA
ATOM     12  N   UNL     1      -0.097  -0.453  -2.910  0.00  0.00    -0.322 N 
ATOM     13  H   UNL     1      -0.864  -0.071  -2.394  0.00  0.00    +0.169 HD
BRANCH   2  15
ATOM     14  C   UNL     1      -0.893  -1.865  -9.038  0.00  0.00    +0.009 C 
ATOM     15  C   UNL     1      -0.254  -0.556  -8.569  0.00  0.00    +0.032 C 
ENDBRANCH   2  15
ENDBRANCH   1   9
BRANCH   1  16
ATOM     16  C   UNL     1       2.811  -3.222  -1.345  0.00  0.00    +0.143 A 
ATOM     17  N   UNL     1       2.269  -3.207  -0.152  0.00  0.00    -0.115 NA
ATOM     18  N   UNL     1       2.037  -4.426   0.196  0.00  0.00    -0.023 NA
ATOM     19  N   UNL     1       2.425  -5.218  -0.742  0.00  0.00    -0.044 NA
ATOM     20  N   UNL     1       2.908  -4.514  -1.709  0.00  0.00    -0.227 N 
BRANCH  20  21
ATOM     21  C   UNL     1       3.459  -5.025  -2.966  0.00  0.00    +0.111 C 
ATOM     22  C   UNL     1       2.399  -5.869  -3.703  0.00  0.00    +0.027 C 
ATOM     23  C   UNL     1       3.211  -7.025  -4.340  0.00  0.00    +0.002 C 
ATOM     24  C   UNL     1       4.267  -7.342  -3.252  0.00  0.00    +0.002 C 
ATOM     25  C   UNL     1       4.647  -5.961  -2.680  0.00  0.00    +0.027 C 
ENDBRANCH  20  21
ENDBRANCH   1  16
BRANCH   1  26
ATOM     26  N   UNL     1       3.731  -0.980  -1.223  0.00  0.00    +0.392 N 
ATOM     27  H   UNL     1       3.072  -0.898  -0.440  0.00  0.00    -0.080 HD
BRANCH  26  28
ATOM     28  C   UNL     1       3.809   0.319  -1.924  0.00  0.00    -0.072 C 
BRANCH  28  29
ATOM     29  C   UNL     1       4.093   1.417  -0.896  0.00  0.00    +0.016 C 
BRANCH  29  30
ATOM     30  C   UNL     1       4.155   2.752  -1.592  0.00  0.00    -0.049 A 
ATOM     31  C   UNL     1       5.360   3.224  -2.078  0.00  0.00    +0.003 A 
ATOM     32  C   UNL     1       5.415   4.446  -2.721  0.00  0.00    +0.000 A 
ATOM     33  C   UNL     1       4.267   5.202  -2.869  0.00  0.00    +0.000 A 
ATOM     34  C   UNL     1       3.063   4.733  -2.377  0.00  0.00    +0.000 A 
ATOM     35  C   UNL     1       3.007   3.508  -1.739  0.00  0.00    +0.003 A 
ENDBRANCH  29  30
ENDBRANCH  28  29
ENDBRANCH  26  28
BRANCH  26  36
ATOM     36  C   UNL     1       5.061  -1.350  -0.695  0.00  0.00    -0.042 C 
BRANCH  36  37
ATOM     37  C   UNL     1       4.884  -2.417   0.355  0.00  0.00    -0.064 A 
ATOM     38  C   UNL     1       5.061  -3.747   0.025  0.00  0.00    +0.002 A 
ATOM     39  C   UNL     1       4.899  -4.726   0.987  0.00  0.00    +0.000 A 
ATOM     40  C   UNL     1       4.560  -4.374   2.280  0.00  0.00    +0.000 A 
ATOM     41  C   UNL     1       4.383  -3.043   2.611  0.00  0.00    +0.000 A 
ATOM     42  C   UNL     1       4.545  -2.065   1.648  0.00  0.00    +0.002 A 
ENDBRANCH  36  37
ENDBRANCH  26  36
ENDBRANCH   1  26
TORSDOF 10
