REMARK  Name = ZINC20703951
REMARK  5 active torsions:
REMARK  status: ('A' for Active; 'I' for Inactive)
REMARK    1  A    between atoms: C_4  and  N_33
REMARK    2  A    between atoms: C_6  and  C_7
REMARK    3  A    between atoms: C_18  and  S_23
REMARK    4  A    between atoms: S_23  and  N_26
REMARK    5  A    between atoms: N_26  and  C_27
REMARK                            x       y       z     vdW  Elec       q    Type
REMARK                         _______ _______ _______ _____ _____    ______ ____
ROOT
ATOM      1  C   UNL     1      -0.079   6.003   0.035  0.00  0.00    +0.105 C 
ATOM      2  C   UNL     1       0.266   6.525   1.418  0.00  0.00    +0.029 C 
ATOM      3  C   UNL     1      -0.760   6.282   2.533  0.00  0.00    +0.033 C 
ATOM      4  C   UNL     1      -0.509   7.480   3.450  0.00  0.00    -0.030 C 
ATOM      5  C   UNL     1       0.003   8.487   2.752  0.00  0.00    -0.023 C 
ATOM      6  C   UNL     1       0.107   8.072   1.330  0.00  0.00    +0.049 C 
ATOM      7  C   UNL     1       1.166   8.590   0.437  0.00  0.00    -0.018 A 
ATOM      8  C   UNL     1       1.766   9.815   0.632  0.00  0.00    +0.034 A 
ATOM      9  C   UNL     1       2.724  10.272  -0.253  0.00  0.00    +0.106 A 
ATOM     10  C   UNL     1       3.085   9.498  -1.341  0.00  0.00    +0.030 A 
ATOM     11  C   UNL     1       2.498   8.266  -1.540  0.00  0.00    +0.025 A 
ATOM     12  C   UNL     1       1.538   7.794  -0.652  0.00  0.00    +0.031 A 
ATOM     13  N   UNL     1       0.968   6.533  -0.865  0.00  0.00    -0.336 N 
ATOM     14  H   UNL     1       1.313   5.934  -1.721  0.00  0.00    +0.147 HD
ENDROOT
BRANCH   1  20
ATOM     15  C   UNL     1       1.147   3.822   0.012  0.00  0.00    +0.007 A 
ATOM     16  C   UNL     1       1.167   2.440   0.004  0.00  0.00    +0.022 A 
ATOM     17  C   UNL     1      -0.021   1.732   0.012  0.00  0.00    +0.071 A 
ATOM     18  C   UNL     1      -1.229   2.408   0.021  0.00  0.00    +0.145 A 
ATOM     19  C   UNL     1      -1.247   3.789   0.034  0.00  0.00    +0.039 A 
ATOM     20  C   UNL     1      -0.059   4.497   0.027  0.00  0.00    -0.025 A 
ATOM     21 CL   UNL     1       0.002  -0.004   0.002  0.00  0.00    -0.081 Cl
BRANCH  18  22
ATOM     22  N   UNL     1      -2.501   1.651   0.023  0.00  0.00    +0.058 N 
ATOM     23  O   UNL     1      -3.563   2.246   0.031  0.00  0.00    -0.126 OA
ATOM     24  O   UNL     1      -2.485   0.433   0.016  0.00  0.00    -0.126 OA
ENDBRANCH  18  22
ENDBRANCH   1  20
BRANCH   9  25
ATOM     25  S   UNL     1       3.486  11.840   0.004  0.00  0.00    +0.059 S 
ATOM     26  O   UNL     1       3.954  12.277  -1.265  0.00  0.00    -0.153 OA
ATOM     27  O   UNL     1       2.582  12.607   0.787  0.00  0.00    -0.153 OA
BRANCH  25  28
ATOM     28  N   UNL     1       4.827  11.586   0.941  0.00  0.00    -0.187 NA
ATOM     29  H   UNL     1       4.802  11.870   2.003  0.00  0.00    +0.148 HD
BRANCH  28  30
ATOM     30  C   UNL     1       5.945  10.796   0.420  0.00  0.00    +0.077 C 
ATOM     31  C   UNL     1       5.800   9.343   0.877  0.00  0.00    +0.020 C 
ATOM     32  C   UNL     1       6.968   8.518   0.333  0.00  0.00    +0.002 C 
ATOM     33  C   UNL     1       8.285   9.089   0.861  0.00  0.00    +0.000 C 
ATOM     34  C   UNL     1       8.431  10.542   0.405  0.00  0.00    +0.002 C 
ATOM     35  C   UNL     1       7.263  11.367   0.949  0.00  0.00    +0.020 C 
ENDBRANCH  28  30
ENDBRANCH  25  28
ENDBRANCH   9  25
TORSDOF 5
