REMARK  Name = ZINC38688753
REMARK  13 active torsions:
REMARK  status: ('A' for Active; 'I' for Inactive)
REMARK    1  A    between atoms: C_1  and  C_2
REMARK    2  A    between atoms: C_6  and  C_39
REMARK    3  A    between atoms: C_7  and  C_12
REMARK    4  A    between atoms: C_10  and  C_11
REMARK    5  A    between atoms: C_12  and  O_14
REMARK    6  A    between atoms: O_14  and  C_15
REMARK    7  A    between atoms: C_22  and  N_38
REMARK    8  A    between atoms: C_23  and  C_36
REMARK    9  A    between atoms: C_24  and  C_26
REMARK   10  A    between atoms: C_28  and  O_34
REMARK   11  A    between atoms: C_31  and  O_32
REMARK   12  A    between atoms: O_32  and  C_33
REMARK   13  A    between atoms: O_34  and  C_35
REMARK                            x       y       z     vdW  Elec       q    Type
REMARK                         _______ _______ _______ _____ _____    ______ ____
ROOT
ATOM      1  C   UNL     1       0.148  -6.654   4.393  0.00  0.00    +0.136 A 
ATOM      2  C   UNL     1       0.237  -7.805   3.623  0.00  0.00    +0.047 A 
ATOM      3  C   UNL     1       0.291  -9.042   4.234  0.00  0.00    +0.012 A 
ATOM      4  C   UNL     1       0.256  -9.140   5.614  0.00  0.00    +0.008 A 
ATOM      5  C   UNL     1       0.167  -7.994   6.388  0.00  0.00    +0.138 A 
ATOM      6  C   UNL     1       0.119  -6.748   5.775  0.00  0.00    +0.093 A 
ATOM      7  O   UNL     1       0.132  -8.069   7.741  0.00  0.00    -0.441 OA
ATOM      8  C   UNL     1      -0.202  -9.225   8.339  0.00  0.00    +0.199 C 
ATOM      9  C   UNL     1      -0.137 -10.412   7.692  0.00  0.00    +0.098 C 
ATOM     10  C   UNL     1       0.316 -10.498   6.261  0.00  0.00    +0.102 C 
ENDROOT
BRANCH  10  11
ATOM     11  C   UNL     1       1.732 -11.011   6.216  0.00  0.00    +0.010 A 
ATOM     12  C   UNL     1       2.743 -10.303   6.837  0.00  0.00    +0.053 A 
ATOM     13  C   UNL     1       4.046 -10.775   6.795  0.00  0.00    +0.121 A 
ATOM     14  C   UNL     1       4.335 -11.958   6.130  0.00  0.00    +0.049 A 
ATOM     15  C   UNL     1       3.324 -12.665   5.509  0.00  0.00    +0.049 A 
ATOM     16  C   UNL     1       2.020 -12.196   5.555  0.00  0.00    +0.124 A 
BRANCH  16  17
ATOM     17  O   UNL     1       1.024 -12.895   4.949  0.00  0.00    -0.495 OA
ATOM     18  C   UNL     1       1.392 -14.107   4.287  0.00  0.00    +0.277 C 
ENDBRANCH  16  17
BRANCH  13  19
ATOM     19  O   UNL     1       5.042 -10.079   7.407  0.00  0.00    -0.495 OA
ATOM     20  C   UNL     1       6.360 -10.624   7.324  0.00  0.00    +0.277 C 
ENDBRANCH  13  19
ENDBRANCH  10  11
BRANCH   8  21
ATOM     21  N   UNL     1      -0.621  -9.201   9.646  0.00  0.00    -0.328 N 
ATOM     22  H   UNL     1      -0.673  -8.359  10.124  0.00  0.00    +0.145 HD
ATOM     23  H   UNL     1      -0.866 -10.027  10.092  0.00  0.00    +0.145 HD
ENDBRANCH   8  21
BRANCH   9  24
ATOM     24  C   UNL     1      -0.507 -11.610   8.383  0.00  0.00    +0.101 C 
ATOM     25  N   UNL     1      -0.800 -12.560   8.932  0.00  0.00    -0.191 NA
ENDBRANCH   9  24
BRANCH   1  26
ATOM     26  O   UNL     1       0.095  -5.436   3.793  0.00  0.00    -0.420 OA
BRANCH  26  27
ATOM     27  C   UNL     1       1.216  -4.685   3.783  0.00  0.00    +0.380 C 
ATOM     28  O   UNL     1       2.206  -5.064   4.378  0.00  0.00    -0.241 OA
BRANCH  27  35
ATOM     29  C   UNL     1      -0.275   1.334  -0.269  0.00  0.00    +0.044 C 
ATOM     30  C   UNL     1       0.479   0.349   0.587  0.00  0.00    -0.044 A 
ATOM     31  C   UNL     1       1.797   0.610   0.937  0.00  0.00    +0.004 A 
ATOM     32  C   UNL     1       2.495  -0.271   1.712  0.00  0.00    +0.012 A 
ATOM     33  C   UNL     1       1.877  -1.443   2.157  0.00  0.00    +0.024 A 
ATOM     34  C   UNL     1       2.308  -2.575   2.976  0.00  0.00    +0.010 A 
ATOM     35  C   UNL     1       1.240  -3.411   3.055  0.00  0.00    +0.216 A 
ATOM     36  O   UNL     1       0.204  -2.893   2.362  0.00  0.00    -0.448 OA
ATOM     37  C   UNL     1       0.541  -1.713   1.806  0.00  0.00    +0.139 A 
ATOM     38  C   UNL     1      -0.151  -0.798   1.020  0.00  0.00    -0.005 A 
ATOM     39  C   UNL     1      -1.584  -1.064   0.636  0.00  0.00    +0.048 C 
ATOM     40  C   UNL     1       3.663  -2.774   3.605  0.00  0.00    +0.048 C 
ENDBRANCH  27  35
ENDBRANCH  26  27
ENDBRANCH   1  26
TORSDOF 8
