REMARK  Name = ZINC12566805
REMARK  15 active torsions:
REMARK  status: ('A' for Active; 'I' for Inactive)
REMARK    1  A    between atoms: C_1  and  C_2
REMARK    2  A    between atoms: C_4  and  C_33
REMARK    3  A    between atoms: C_7  and  C_14
REMARK    4  A    between atoms: C_14  and  N_15
REMARK    5  A    between atoms: N_15  and  C_16
REMARK    6  A    between atoms: N_15  and  C_20
REMARK    7  A    between atoms: C_16  and  C_17
REMARK    8  A    between atoms: C_17  and  N_63
REMARK    9  A    between atoms: C_18  and  N_63
REMARK   10  A    between atoms: C_19  and  N_63
REMARK   11  A    between atoms: C_20  and  N_22
REMARK   12  A    between atoms: N_22  and  C_23
REMARK   13  A    between atoms: C_28  and  C_29
REMARK   14  A    between atoms: C_29  and  O_31
REMARK   15  A    between atoms: O_31  and  C_32
REMARK                            x       y       z     vdW  Elec       q    Type
REMARK                         _______ _______ _______ _____ _____    ______ ____
ROOT
ATOM      1  N   UNL     1       5.454   4.630  -1.383  0.00  0.00    -0.310 N 
ENDROOT
BRANCH   1   2
ATOM      2  C   UNL     1       5.111   5.787  -1.983  0.00  0.00    +0.137 C 
ATOM      3  S   UNL     1       4.593   7.119  -1.042  0.00  0.00    -0.018 S 
BRANCH   2   4
ATOM      4  N   UNL     1       5.174   5.894  -3.325  0.00  0.00    -0.296 N 
ATOM      5  H   UNL     1       5.531   5.163  -3.854  0.00  0.00    +0.154 HD
BRANCH   4   6
ATOM      6  C   UNL     1       4.727   7.053  -3.953  0.00  0.00    +0.047 A 
ATOM      7  C   UNL     1       3.604   7.716  -3.476  0.00  0.00    +0.024 A 
ATOM      8  C   UNL     1       3.165   8.868  -4.097  0.00  0.00    +0.002 A 
ATOM      9  C   UNL     1       3.833   9.366  -5.204  0.00  0.00    +0.001 A 
ATOM     10  C   UNL     1       4.946   8.720  -5.695  0.00  0.00    +0.017 A 
ATOM     11  C   UNL     1       5.406   7.555  -5.074  0.00  0.00    +0.080 A 
BRANCH  11  12
ATOM     12  C   UNL     1       6.596   6.858  -5.593  0.00  0.00    +0.341 C 
ATOM     13  O   UNL     1       6.948   5.806  -5.098  0.00  0.00    -0.245 OA
BRANCH  12  14
ATOM     14  O   UNL     1       7.293   7.388  -6.618  0.00  0.00    -0.464 OA
ATOM     15  C   UNL     1       8.454   6.646  -7.078  0.00  0.00    +0.280 C 
ENDBRANCH  12  14
ENDBRANCH  11  12
ENDBRANCH   4   6
ENDBRANCH   2   4
ENDBRANCH   1   2
BRANCH   1  16
ATOM     16  C   UNL     1       5.292   4.480   0.065  0.00  0.00    +0.147 C 
BRANCH  16  23
ATOM     17  C   UNL     1      -2.220   2.391   1.747  0.00  0.00    +0.044 C 
ATOM     18  C   UNL     1      -0.875   3.005   1.456  0.00  0.00    -0.048 A 
ATOM     19  C   UNL     1      -0.731   4.386   1.484  0.00  0.00    +0.007 A 
ATOM     20  C   UNL     1       0.480   4.963   1.224  0.00  0.00    -0.041 A 
ATOM     21  C   UNL     1       1.583   4.156   0.926  0.00  0.00    +0.002 A 
ATOM     22  C   UNL     1       2.895   4.742   0.643  0.00  0.00    +0.020 A 
ATOM     23  C   UNL     1       3.928   3.910   0.361  0.00  0.00    +0.035 A 
ATOM     24  C   UNL     1       3.732   2.513   0.345  0.00  0.00    +0.254 A 
ATOM     25  O   UNL     1       4.674   1.783   0.089  0.00  0.00    -0.268 OA
ATOM     26  N   UNL     1       2.531   1.966   0.603  0.00  0.00    -0.322 N 
ATOM     27  H   UNL     1       2.431   1.001   0.584  0.00  0.00    +0.169 HD
ATOM     28  C   UNL     1       1.440   2.756   0.897  0.00  0.00    +0.050 A 
ATOM     29  C   UNL     1       0.198   2.191   1.165  0.00  0.00    +0.029 A 
ATOM     30  C   UNL     1       0.626   6.463   1.256  0.00  0.00    +0.044 C 
ENDBRANCH  16  23
ENDBRANCH   1  16
BRANCH   1  31
ATOM     31  C   UNL     1       5.991   3.523  -2.178  0.00  0.00    +0.088 C 
BRANCH  31  32
ATOM     32  C   UNL     1       4.840   2.635  -2.657  0.00  0.00    -0.060 C 
BRANCH  32  35
ATOM     33  C   UNL     1       6.191   0.626  -2.625  0.00  0.00    -0.097 C 
ATOM     34  C   UNL     1       4.300   0.789  -4.127  0.00  0.00    -0.097 C 
ATOM     35  N   UNL     1       5.395   1.536  -3.475  0.00  0.00    +0.377 N 
ATOM     36  H   UNL     1       6.005   1.934  -4.199  0.00  0.00    -0.083 HD
ENDBRANCH  32  35
ENDBRANCH  31  32
ENDBRANCH   1  31
TORSDOF 10
