REMARK  Name = ZINC39874214
REMARK  2 active torsions:
REMARK  status: ('A' for Active; 'I' for Inactive)
REMARK    1  A    between atoms: C_4  and  N_7
REMARK    2  A    between atoms: C_8  and  C_24
REMARK                            x       y       z     vdW  Elec       q    Type
REMARK                         _______ _______ _______ _____ _____    ______ ____
ROOT
ATOM      1  N   UNL     1       3.620  -0.650  -0.037  0.00  0.00    -0.253 N 
ATOM      2  C   UNL     1       3.796  -2.111  -0.053  0.00  0.00    +0.150 C 
ATOM      3  C   UNL     1       5.271  -2.344  -0.064  0.00  0.00    +0.072 A 
ATOM      4  C   UNL     1       6.053  -3.584  -0.071  0.00  0.00    +0.199 A 
ATOM      5  O   UNL     1       5.558  -4.684  -0.246  0.00  0.00    -0.287 OA
ATOM      6  C   UNL     1       7.505  -3.372   0.154  0.00  0.00    +0.066 A 
ATOM      7  C   UNL     1       8.351  -4.460   0.373  0.00  0.00    +0.035 A 
ATOM      8  C   UNL     1       9.696  -4.244   0.585  0.00  0.00    +0.042 A 
ATOM      9  C   UNL     1      10.202  -2.950   0.581  0.00  0.00    +0.023 A 
ATOM     10  C   UNL     1       9.376  -1.871   0.365  0.00  0.00    +0.048 A 
ATOM     11  C   UNL     1       8.012  -2.063   0.145  0.00  0.00    +0.140 A 
ATOM     12  O   UNL     1       7.225  -0.985  -0.075  0.00  0.00    -0.450 OA
ATOM     13  C   UNL     1       5.885  -1.124  -0.061  0.00  0.00    +0.199 A 
ATOM     14  C   UNL     1       4.844  -0.082  -0.047  0.00  0.00    +0.287 C 
ATOM     15  O   UNL     1       5.056   1.114  -0.043  0.00  0.00    -0.266 OA
ATOM     16 CL   UNL     1      10.757  -5.590   0.859  0.00  0.00    -0.084 Cl
ENDROOT
BRANCH   2  17
ATOM     17  C   UNL     1       3.180  -2.721   1.180  0.00  0.00    -0.021 A 
ATOM     18  C   UNL     1       3.309  -2.089   2.403  0.00  0.00    +0.006 A 
ATOM     19  C   UNL     1       2.745  -2.648   3.534  0.00  0.00    +0.002 A 
ATOM     20  C   UNL     1       2.053  -3.841   3.444  0.00  0.00    +0.020 A 
ATOM     21  C   UNL     1       1.923  -4.474   2.221  0.00  0.00    +0.041 A 
ATOM     22  C   UNL     1       2.483  -3.911   1.088  0.00  0.00    +0.025 A 
ATOM     23 CL   UNL     1       1.054  -5.972   2.107  0.00  0.00    -0.084 Cl
ENDBRANCH   2  17
BRANCH   1  27
ATOM     24  C   UNL     1      -0.017   1.379   0.010  0.00  0.00    +0.000 A 
ATOM     25  C   UNL     1       1.169   2.090   0.002  0.00  0.00    +0.002 A 
ATOM     26  C   UNL     1       2.377   1.420  -0.013  0.00  0.00    +0.023 A 
ATOM     27  C   UNL     1       2.400   0.031  -0.021  0.00  0.00    +0.038 A 
ATOM     28  C   UNL     1       1.206  -0.680  -0.013  0.00  0.00    +0.023 A 
ATOM     29  C   UNL     1       0.002  -0.004   0.002  0.00  0.00    +0.002 A 
ENDBRANCH   1  27
TORSDOF 2
