REMARK  Name = ZINC38545633
REMARK  13 active torsions:
REMARK  status: ('A' for Active; 'I' for Inactive)
REMARK    1  A    between atoms: C_1  and  C_2
REMARK    2  A    between atoms: C_5  and  O_40
REMARK    3  A    between atoms: C_7  and  C_38
REMARK    4  A    between atoms: C_7  and  C_39
REMARK    5  A    between atoms: C_12  and  C_37
REMARK    6  A    between atoms: C_20  and  C_30
REMARK    7  A    between atoms: C_20  and  C_31
REMARK    8  A    between atoms: C_24  and  C_29
REMARK    9  A    between atoms: C_27  and  C_28
REMARK   10  A    between atoms: C_31  and  O_33
REMARK   11  A    between atoms: O_33  and  C_34
REMARK   12  A    between atoms: C_34  and  C_35
REMARK   13  A    between atoms: C_35  and  N_36
REMARK                            x       y       z     vdW  Elec       q    Type
REMARK                         _______ _______ _______ _____ _____    ______ ____
ROOT
ATOM      1  C   UNL     1       0.049   1.554   0.550  0.00  0.00    +0.012 C 
ATOM      2  C   UNL     1       0.080   0.007   0.400  0.00  0.00    -0.022 C 
ATOM      3  C   UNL     1      -1.371  -0.464   0.352  0.00  0.00    +0.010 C 
ATOM      4  C   UNL     1      -2.070  -0.219   1.690  0.00  0.00    +0.032 C 
ATOM      5  C   UNL     1      -1.339  -1.016   2.767  0.00  0.00    +0.120 C 
ATOM      6  C   UNL     1       0.108  -0.543   2.900  0.00  0.00    -0.006 C 
ATOM      7  C   UNL     1       0.852  -0.570   1.572  0.00  0.00    +0.004 C 
ATOM      8  C   UNL     1       1.326  -1.990   1.259  0.00  0.00    +0.005 C 
ATOM      9  C   UNL     1       2.237  -1.974   0.037  0.00  0.00    +0.008 C 
ATOM     10  C   UNL     1       1.543  -1.453  -1.211  0.00  0.00    -0.016 C 
ATOM     11  C   UNL     1       0.727  -0.215  -0.963  0.00  0.00    +0.025 C 
ATOM     12  C   UNL     1      -0.276   0.067  -2.043  0.00  0.00    -0.022 C 
ATOM     13  C   UNL     1      -0.527  -0.726  -3.063  0.00  0.00    +0.000 C 
ATOM     14  C   UNL     1       0.190  -2.008  -3.224  0.00  0.00    -0.041 C 
ATOM     15  C   UNL     1       0.175  -2.626  -4.394  0.00  0.00    -0.052 C 
ATOM     16  C   UNL     1      -0.564  -1.998  -5.558  0.00  0.00    +0.050 C 
ATOM     17  C   UNL     1      -1.595  -2.990  -6.097  0.00  0.00    +0.075 C 
ATOM     18  C   UNL     1      -0.884  -4.259  -6.572  0.00  0.00    +0.093 C 
ATOM     19  C   UNL     1      -0.073  -4.836  -5.441  0.00  0.00    +0.144 C 
ATOM     20  O   UNL     1      -0.148  -6.014  -5.179  0.00  0.00    -0.296 OA
ATOM     21  C   UNL     1       0.843  -3.950  -4.633  0.00  0.00    +0.048 C 
ATOM     22  C   UNL     1       1.211  -4.654  -3.336  0.00  0.00    +0.019 C 
ATOM     23  C   UNL     1       1.857  -3.667  -2.364  0.00  0.00    +0.013 C 
ATOM     24  C   UNL     1       0.873  -2.561  -2.002  0.00  0.00    -0.001 C 
ATOM     25  C   UNL     1      -0.223  -3.235  -1.166  0.00  0.00    +0.016 C 
ATOM     26  C   UNL     1       2.116  -3.715  -5.447  0.00  0.00    +0.024 C 
ATOM     27  C   UNL     1      -2.339  -2.354  -7.273  0.00  0.00    +0.023 C 
ATOM     28  C   UNL     1       2.715  -0.941  -2.107  0.00  0.00    +0.012 C 
ATOM     29  C   UNL     1       0.131   0.857   3.532  0.00  0.00    +0.014 C 
ATOM     30  C   UNL     1       0.795  -1.472   3.924  0.00  0.00    +0.014 C 
ENDROOT
BRANCH  17  31
ATOM     31  C   UNL     1      -2.580  -3.335  -5.012  0.00  0.00    +0.314 C 
ATOM     32  O   UNL     1      -2.470  -2.838  -3.916  0.00  0.00    -0.250 OA
BRANCH  31  33
ATOM     33  O   UNL     1      -3.580  -4.195  -5.262  0.00  0.00    -0.466 OA
BRANCH  33  34
ATOM     34  C   UNL     1      -4.478  -4.477  -4.187  0.00  0.00    +0.213 C 
BRANCH  34  35
ATOM     35  C   UNL     1      -5.542  -5.469  -4.658  0.00  0.00    -0.045 C 
BRANCH  35  36
ATOM     36  N   UNL     1      -4.906  -6.754  -4.979  0.00  0.00    +0.380 N 
ATOM     37  H   UNL     1      -4.225  -6.618  -5.712  0.00  0.00    -0.090 HD
ATOM     38  H   UNL     1      -4.447  -7.117  -4.157  0.00  0.00    -0.090 HD
ATOM     39  H   UNL     1      -5.608  -7.408  -5.290  0.00  0.00    -0.090 HD
ENDBRANCH  35  36
ENDBRANCH  34  35
ENDBRANCH  33  34
ENDBRANCH  31  33
ENDBRANCH  17  31
BRANCH   5  40
ATOM     40  O   UNL     1      -2.011  -0.852   4.019  0.00  0.00    -0.391 OA
ATOM     41  H   UNL     1      -2.930  -1.153   4.015  0.00  0.00    +0.210 HD
ENDBRANCH   5  40
TORSDOF 6
