REMARK  Name = ZINC36365604
REMARK  5 active torsions:
REMARK  status: ('A' for Active; 'I' for Inactive)
REMARK    1  A    between atoms: C_1  and  C_2
REMARK    2  A    between atoms: N_8  and  C_31
REMARK    3  A    between atoms: C_13  and  O_30
REMARK    4  A    between atoms: C_18  and  C_27
REMARK    5  A    between atoms: C_19  and  C_20
REMARK                            x       y       z     vdW  Elec       q    Type
REMARK                         _______ _______ _______ _____ _____    ______ ____
ROOT
ATOM      1  C   UNL     1      -0.534   1.483   0.107  0.00  0.00    +0.045 C 
ATOM      2  C   UNL     1      -0.445  -0.021   0.086  0.00  0.00    -0.029 A 
ATOM      3  C   UNL     1      -0.717  -0.744  -1.066  0.00  0.00    +0.005 A 
ATOM      4  C   UNL     1      -0.638  -2.121  -1.099  0.00  0.00    +0.001 A 
ATOM      5  C   UNL     1      -0.280  -2.854   0.029  0.00  0.00    +0.007 A 
ATOM      6  C   UNL     1      -0.008  -2.142   1.177  0.00  0.00    -0.005 A 
ATOM      7  C   UNL     1      -0.079  -0.743   1.222  0.00  0.00    +0.043 A 
ATOM      8  N   UNL     1       0.246  -0.286   2.487  0.00  0.00    -0.273 N 
ATOM      9  C   UNL     1       0.546  -1.297   3.329  0.00  0.00    +0.236 C 
ATOM     10  O   UNL     1       0.865  -1.195   4.495  0.00  0.00    -0.274 OA
ATOM     11  C   UNL     1       0.397  -2.583   2.546  0.00  0.00    +0.115 C 
ATOM     12  C   UNL     1       1.738  -3.321   2.513  0.00  0.00    +0.121 C 
ATOM     13  C   UNL     1       1.547  -4.765   2.154  0.00  0.00    +0.189 C 
ATOM     14  N   UNL     1       0.501  -5.461   2.450  0.00  0.00    -0.216 NA
ATOM     15  C   UNL     1      -0.564  -4.867   3.122  0.00  0.00    +0.087 A 
ATOM     16  C   UNL     1      -0.624  -3.481   3.166  0.00  0.00    +0.036 A 
ATOM     17  S   UNL     1      -2.006  -3.109   4.014  0.00  0.00    -0.082 S 
ATOM     18  C   UNL     1      -2.576  -4.760   4.374  0.00  0.00    +0.110 A 
ATOM     19  C   UNL     1      -1.597  -5.553   3.767  0.00  0.00    +0.031 A 
ATOM     20  C   UNL     1       0.264   1.129   2.867  0.00  0.00    +0.138 C 
ENDROOT
BRANCH  19  21
ATOM     21  C   UNL     1      -1.650  -7.031   3.807  0.00  0.00    +0.004 A 
ATOM     22  C   UNL     1      -1.044  -7.727   4.854  0.00  0.00    +0.010 A 
ATOM     23  C   UNL     1      -1.097  -9.105   4.885  0.00  0.00    +0.001 A 
ATOM     24  C   UNL     1      -1.751  -9.798   3.881  0.00  0.00    +0.001 A 
ATOM     25  C   UNL     1      -2.354  -9.116   2.840  0.00  0.00    +0.020 A 
ATOM     26  C   UNL     1      -2.313  -7.736   2.800  0.00  0.00    +0.049 A 
ATOM     27 CL   UNL     1      -3.078  -6.881   1.497  0.00  0.00    -0.083 Cl
ENDBRANCH  19  21
BRANCH  18  28
ATOM     28  C   UNL     1      -3.725  -5.164   5.091  0.00  0.00    +0.394 C 
ATOM     29  O   UNL     1      -4.482  -4.322   5.560  0.00  0.00    -0.240 OA
ATOM     30  O   UNL     1      -3.964  -6.356   5.245  0.00  0.00    -0.240 OA
ENDBRANCH  18  28
BRANCH  13  31
ATOM     31  O   UNL     1       2.538  -5.380   1.474  0.00  0.00    -0.495 OA
ATOM     32  H   UNL     1       2.360  -6.308   1.272  0.00  0.00    +0.293 HD
ENDBRANCH  13  31
TORSDOF 3
