REMARK  Name = ZINC11865361
REMARK  6 active torsions:
REMARK  status: ('A' for Active; 'I' for Inactive)
REMARK    1  A    between atoms: C_1  and  O_2
REMARK    2  A    between atoms: O_2  and  C_3
REMARK    3  A    between atoms: C_6  and  C_9
REMARK    4  A    between atoms: C_18  and  O_36
REMARK    5  A    between atoms: C_19  and  C_20
REMARK    6  A    between atoms: C_20  and  N_61
REMARK                            x       y       z     vdW  Elec       q    Type
REMARK                         _______ _______ _______ _____ _____    ______ ____
ROOT
ATOM      1  C   UNL     1       2.337   1.553  -0.011  0.00  0.00    +0.064 A 
ATOM      2  C   UNL     1       1.090   2.092   0.003  0.00  0.00    +0.208 A 
ATOM      3  O   UNL     1      -0.016   1.343   0.009  0.00  0.00    -0.462 OA
ATOM      4  C   UNL     1       0.002  -0.004   0.002  0.00  0.00    +0.143 A 
ATOM      5  C   UNL     1       1.226  -0.697  -0.013  0.00  0.00    +0.065 A 
ATOM      6  C   UNL     1       2.474   0.087  -0.021  0.00  0.00    +0.200 A 
ATOM      7  O   UNL     1       3.567  -0.453  -0.033  0.00  0.00    -0.286 OA
ATOM      8  C   UNL     1       1.247  -2.092  -0.022  0.00  0.00    +0.019 A 
ATOM      9  C   UNL     1       0.071  -2.788  -0.015  0.00  0.00    +0.046 A 
ATOM     10  C   UNL     1      -1.146  -2.111   0.001  0.00  0.00    +0.122 A 
ATOM     11  C   UNL     1      -1.183  -0.727   0.009  0.00  0.00    +0.020 A 
ENDROOT
BRANCH   1  15
ATOM     12  C   UNL     1       5.778   4.053  -0.028  0.00  0.00    +0.120 A 
ATOM     13  C   UNL     1       4.755   4.277  -0.939  0.00  0.00    +0.046 A 
ATOM     14  C   UNL     1       3.638   3.468  -0.936  0.00  0.00    +0.012 A 
ATOM     15  C   UNL     1       3.537   2.425  -0.017  0.00  0.00    -0.011 A 
ATOM     16  C   UNL     1       4.563   2.206   0.900  0.00  0.00    +0.012 A 
ATOM     17  C   UNL     1       5.680   3.015   0.889  0.00  0.00    +0.046 A 
BRANCH  12  19
ATOM     18  C   UNL     1       7.892   4.565   0.931  0.00  0.00    +0.277 C 
ATOM     19  O   UNL     1       6.878   4.852  -0.033  0.00  0.00    -0.495 OA
ENDBRANCH  12  19
ENDBRANCH   1  15
BRANCH  10  20
ATOM     20  O   UNL     1      -2.307  -2.815   0.007  0.00  0.00    -0.506 OA
ATOM     21  H   UNL     1      -2.651  -3.014  -0.874  0.00  0.00    +0.292 HD
ENDBRANCH  10  20
BRANCH  11  22
ATOM     22  C   UNL     1      -2.507  -0.007   0.026  0.00  0.00    -0.036 C 
BRANCH  22  36
ATOM     23  C   UNL     1      -1.957   1.018  -2.095  0.00  0.00    -0.073 C 
ATOM     24  C   UNL     1      -2.438   1.320  -3.506  0.00  0.00    -0.007 C 
ATOM     25  C   UNL     1      -2.806   0.030  -4.244  0.00  0.00    +0.011 C 
ATOM     26  C   UNL     1      -3.868  -0.693  -3.408  0.00  0.00    +0.020 C 
ATOM     27  C   UNL     1      -3.249  -1.030  -2.041  0.00  0.00    -0.069 C 
ATOM     28  C   UNL     1      -5.029   0.244  -3.162  0.00  0.00    +0.023 A 
ATOM     29  C   UNL     1      -6.251  -0.316  -2.955  0.00  0.00    +0.022 A 
ATOM     30  C   UNL     1      -7.359   0.484  -2.659  0.00  0.00    +0.007 A 
ATOM     31  C   UNL     1      -7.189   1.835  -2.562  0.00  0.00    +0.070 A 
ATOM     32  C   UNL     1      -5.918   2.380  -2.785  0.00  0.00    +0.251 A 
ATOM     33  O   UNL     1      -5.745   3.581  -2.654  0.00  0.00    -0.268 OA
ATOM     34  N   UNL     1      -4.876   1.588  -3.143  0.00  0.00    -0.312 N 
ATOM     35  C   UNL     1      -3.630   2.261  -3.510  0.00  0.00    +0.126 C 
ATOM     36  N   UNL     1      -2.975   0.252  -1.352  0.00  0.00    +0.383 N 
ATOM     37  H   UNL     1      -3.842   0.800  -1.312  0.00  0.00    -0.081 HD
ENDBRANCH  22  36
ENDBRANCH  11  22
TORSDOF 5
