REMARK  Name = ZINC62802589
REMARK  2 active torsions:
REMARK  status: ('A' for Active; 'I' for Inactive)
REMARK    1  A    between atoms: C_5  and  C_11
REMARK    2  A    between atoms: N_20  and  N_21
REMARK                            x       y       z     vdW  Elec       q    Type
REMARK                         _______ _______ _______ _____ _____    ______ ____
ROOT
ATOM      1  C   UNL     1       6.084   1.933  -0.044  0.00  0.00    +0.163 A 
ATOM      2  N   UNL     1       7.194   1.201  -0.064  0.00  0.00    -0.211 NA
ATOM      3  C   UNL     1       8.396   1.750  -0.072  0.00  0.00    +0.144 A 
ATOM      4  C   UNL     1       8.514   3.169  -0.061  0.00  0.00    +0.049 A 
ATOM      5  C   UNL     1       9.705   3.999  -0.067  0.00  0.00    +0.021 A 
ATOM      6  C   UNL     1       9.573   5.334  -0.053  0.00  0.00    +0.048 A 
ATOM      7  S   UNL     1       7.807   5.579  -0.030  0.00  0.00    -0.077 S 
ATOM      8  C   UNL     1       7.294   3.881  -0.040  0.00  0.00    +0.114 A 
ATOM      9  N   UNL     1       6.133   3.259  -0.037  0.00  0.00    -0.220 NA
ATOM     10  N   UNL     1       9.527   0.954  -0.093  0.00  0.00    -0.267 N 
ATOM     11  H   UNL     1      10.407   1.363  -0.099  0.00  0.00    +0.167 HD
ENDROOT
BRANCH   1  16
ATOM     12  C   UNL     1      -0.017   1.389   0.010  0.00  0.00    +0.020 A 
ATOM     13  C   UNL     1       1.158   2.086   0.002  0.00  0.00    +0.011 A 
ATOM     14  C   UNL     1       2.363   1.357  -0.013  0.00  0.00    +0.001 A 
ATOM     15  C   UNL     1       3.606   2.007  -0.021  0.00  0.00    +0.021 A 
ATOM     16  C   UNL     1       4.766   1.254  -0.036  0.00  0.00    +0.020 A 
ATOM     17  C   UNL     1       4.704  -0.149  -0.043  0.00  0.00    +0.014 A 
ATOM     18  C   UNL     1       3.510  -0.795  -0.036  0.00  0.00    +0.029 A 
ATOM     19  C   UNL     1       2.310  -0.059  -0.020  0.00  0.00    +0.071 A 
ATOM     20  N   UNL     1       1.126  -0.679  -0.012  0.00  0.00    -0.255 NA
ATOM     21  C   UNL     1       0.002  -0.004   0.002  0.00  0.00    +0.111 A 
ENDBRANCH   1  16
BRANCH  10  22
ATOM     22  N   UNL     1       9.405  -0.406  -0.103  0.00  0.00    -0.255 NA
ATOM     23  H   UNL     1       8.840  -0.712  -0.881  0.00  0.00    +0.140 HD
ATOM     24  H   UNL     1      10.311  -0.850  -0.118  0.00  0.00    +0.140 HD
ENDBRANCH  10  22
TORSDOF 2
