REMARK  Name = ZINC14977260
REMARK  14 active torsions:
REMARK  status: ('A' for Active; 'I' for Inactive)
REMARK    1  A    between atoms: C_1  and  C_2
REMARK    2  A    between atoms: C_3  and  C_8
REMARK    3  A    between atoms: N_5  and  C_7
REMARK    4  A    between atoms: C_8  and  N_9
REMARK    5  A    between atoms: N_9  and  C_10
REMARK    6  A    between atoms: N_9  and  C_11
REMARK    7  A    between atoms: C_11  and  C_13
REMARK    8  A    between atoms: C_11  and  C_21
REMARK    9  A    between atoms: C_13  and  C_14
REMARK   10  A    between atoms: N_24  and  C_27
REMARK   11  A    between atoms: C_27  and  C_28
REMARK   12  A    between atoms: C_31  and  O_35
REMARK   13  A    between atoms: C_32  and  O_34
REMARK   14  A    between atoms: O_35  and  C_36
REMARK                            x       y       z     vdW  Elec       q    Type
REMARK                         _______ _______ _______ _____ _____    ______ ____
ROOT
ATOM      1  C   UNL     1      -0.820   1.619  -0.809  0.00  0.00    +0.064 C 
ENDROOT
BRANCH   1   2
ATOM      2  C   UNL     1       0.134   1.357  -1.976  0.00  0.00    +0.003 C 
ATOM      3  C   UNL     1       0.406  -0.146  -2.086  0.00  0.00    -0.014 C 
ATOM      4  C   UNL     1       1.409  -0.397  -3.214  0.00  0.00    -0.078 C 
ATOM      5  N   UNL     1       2.656   0.327  -2.934  0.00  0.00    +0.382 N 
ATOM      6  C   UNL     1       2.426   1.776  -2.872  0.00  0.00    -0.078 C 
ATOM      7  C   UNL     1       1.455   2.092  -1.732  0.00  0.00    -0.014 C 
ATOM      8  H   UNL     1       3.017   0.002  -1.947  0.00  0.00    -0.081 HD
BRANCH   5   9
ATOM      9  C   UNL     1       3.689  -0.000  -3.926  0.00  0.00    -0.043 C 
BRANCH   9  10
ATOM     10  C   UNL     1       3.725  -1.491  -4.140  0.00  0.00    -0.060 A 
ATOM     11  C   UNL     1       4.555  -2.280  -3.364  0.00  0.00    +0.005 A 
ATOM     12  C   UNL     1       4.588  -3.649  -3.553  0.00  0.00    +0.049 A 
ATOM     13  C   UNL     1       3.796  -4.233  -4.529  0.00  0.00    +0.161 A 
ATOM     14  C   UNL     1       2.966  -3.439  -5.314  0.00  0.00    +0.159 A 
ATOM     15  C   UNL     1       2.933  -2.067  -5.115  0.00  0.00    +0.051 A 
BRANCH  14  16
ATOM     16  O   UNL     1       2.187  -4.007  -6.272  0.00  0.00    -0.503 OA
ATOM     17  H   UNL     1       1.530  -3.378  -6.892  0.00  0.00    +0.292 HD
ENDBRANCH  14  16
BRANCH  13  18
ATOM     18  O   UNL     1       3.831  -5.579  -4.719  0.00  0.00    -0.491 OA
ATOM     19  C   UNL     1       4.707  -6.331  -3.877  0.00  0.00    +0.277 C 
ENDBRANCH  13  18
ENDBRANCH   9  10
ENDBRANCH   5   9
ENDBRANCH   1   2
BRANCH   1  20
ATOM     20  N   UNL     1      -2.208   1.480  -1.271  0.00  0.00    -0.298 NA
ATOM     21  C   UNL     1      -2.420   0.178  -1.917  0.00  0.00    +0.105 C 
BRANCH  20  22
ATOM     22  C   UNL     1      -2.576   2.581  -2.171  0.00  0.00    +0.123 C 
BRANCH  22  25
ATOM     23  C   UNL     1      -4.622   3.627   0.012  0.00  0.00    +0.068 C 
ATOM     24  C   UNL     1      -4.979   3.094  -1.352  0.00  0.00    +0.064 A 
ATOM     25  C   UNL     1      -4.075   2.633  -2.315  0.00  0.00    +0.007 A 
ATOM     26  C   UNL     1      -4.786   2.235  -3.396  0.00  0.00    +0.113 A 
ATOM     27  N   UNL     1      -6.092   2.444  -3.129  0.00  0.00    -0.274 N 
ATOM     28  N   UNL     1      -6.188   2.987  -1.841  0.00  0.00    -0.176 NA
ATOM     29  C   UNL     1      -7.212   2.153  -4.027  0.00  0.00    +0.172 C 
ENDBRANCH  22  25
ENDBRANCH  20  22
ENDBRANCH   1  20
BRANCH   1  30
ATOM     30  C   UNL     1      -0.551   0.609   0.308  0.00  0.00    +0.054 C 
BRANCH  30  31
ATOM     31  C   UNL     1      -1.444   0.909   1.483  0.00  0.00    -0.046 A 
ATOM     32  C   UNL     1      -1.060   1.850   2.421  0.00  0.00    +0.006 A 
ATOM     33  C   UNL     1      -1.881   2.129   3.497  0.00  0.00    +0.038 A 
ATOM     34  C   UNL     1      -3.084   1.460   3.641  0.00  0.00    +0.123 A 
ATOM     35  C   UNL     1      -3.466   0.514   2.704  0.00  0.00    +0.038 A 
ATOM     36  C   UNL     1      -2.645   0.240   1.627  0.00  0.00    +0.006 A 
ATOM     37  F   UNL     1      -3.885   1.729   4.695  0.00  0.00    -0.205 F 
ENDBRANCH  30  31
ENDBRANCH   1  30
TORSDOF 10
