REMARK  Name = ZINC09232874
REMARK  4 active torsions:
REMARK  status: ('A' for Active; 'I' for Inactive)
REMARK    1  A    between atoms: C_1  and  C_2
REMARK    2  A    between atoms: N_27  and  C_30
REMARK    3  A    between atoms: C_30  and  C_31
REMARK    4  A    between atoms: C_31  and  C_32
REMARK                            x       y       z     vdW  Elec       q    Type
REMARK                         _______ _______ _______ _____ _____    ______ ____
ROOT
ATOM      1  C   UNL     1      -0.018   1.503   0.010  0.00  0.00    +0.047 C 
ATOM      2  C   UNL     1       0.002  -0.004   0.002  0.00  0.00    -0.009 A 
ATOM      3  C   UNL     1       0.006  -0.685  -1.178  0.00  0.00    +0.008 A 
ATOM      4  C   UNL     1       0.025  -2.087  -1.168  0.00  0.00    +0.019 A 
ATOM      5  C   UNL     1       0.032  -2.758   0.004  0.00  0.00    +0.096 A 
ATOM      6  N   UNL     1       0.021  -2.088   1.191  0.00  0.00    -0.269 N 
ATOM      7  C   UNL     1       0.023  -0.721   1.214  0.00  0.00    +0.122 A 
ATOM      8  N   UNL     1       0.041  -0.059   2.367  0.00  0.00    -0.329 N 
ATOM      9  C   UNL     1       0.051  -0.701   3.533  0.00  0.00    +0.109 A 
ATOM     10  C   UNL     1       0.046  -2.094   3.556  0.00  0.00    +0.057 A 
ATOM     11  C   UNL     1       0.016  -2.785   2.347  0.00  0.00    +0.263 A 
ATOM     12  O   UNL     1       0.001  -4.006   2.333  0.00  0.00    -0.267 OA
ATOM     13  C   UNL     1       0.073  -2.853   4.853  0.00  0.00    +0.071 C 
ATOM     14  C   UNL     1      -0.459  -1.989   5.998  0.00  0.00    +0.146 C 
ATOM     15  C   UNL     1       0.283  -0.642   5.992  0.00  0.00    +0.099 C 
ATOM     16  N   UNL     1       0.066  -0.003   4.716  0.00  0.00    -0.312 N 
ATOM     17  C   UNL     1      -0.153   1.486   4.715  0.00  0.00    +0.107 C 
ATOM     18  C   UNL     1       1.111   2.038   5.240  0.00  0.00    +0.019 C 
ATOM     19  C   UNL     1       1.530   1.524   6.604  0.00  0.00    +0.002 C 
ATOM     20  C   UNL     1       2.482   0.445   6.189  0.00  0.00    +0.002 C 
ATOM     21  C   UNL     1       1.783  -0.953   6.354  0.00  0.00    +0.024 C 
ATOM     22  C   UNL     1      -0.207  -2.683   7.307  0.00  0.00    +0.238 C 
ATOM     23  O   UNL     1       0.930  -2.970   7.612  0.00  0.00    -0.274 OA
ATOM     24  N   UNL     1      -1.204  -2.992   8.148  0.00  0.00    -0.239 N 
ATOM     25  C   UNL     1      -2.485  -2.709   7.867  0.00  0.00    +0.315 C 
ATOM     26  N   UNL     1      -2.834  -2.104   6.721  0.00  0.00    -0.224 N 
ATOM     27  C   UNL     1      -1.928  -1.743   5.802  0.00  0.00    +0.240 C 
ATOM     28  O   UNL     1      -2.304  -1.202   4.785  0.00  0.00    -0.274 OA
ATOM     29  O   UNL     1      -3.348  -3.008   8.667  0.00  0.00    -0.252 OA
ATOM     30  H   UNL     1      -0.993  -3.434   8.985  0.00  0.00    +0.159 HD
ATOM     31  H   UNL     1       0.046   0.911   2.358  0.00  0.00    +0.168 HD
ENDROOT
BRANCH  26  32
ATOM     32  C   UNL     1      -4.250  -1.830   6.467  0.00  0.00    +0.122 C 
BRANCH  32  33
ATOM     33  C   UNL     1      -4.609  -0.448   7.017  0.00  0.00    +0.054 C 
BRANCH  33  34
ATOM     34  C   UNL     1      -6.066  -0.166   6.755  0.00  0.00    -0.046 A 
ATOM     35  C   UNL     1      -6.451   0.451   5.579  0.00  0.00    +0.004 A 
ATOM     36  C   UNL     1      -7.787   0.710   5.339  0.00  0.00    +0.000 A 
ATOM     37  C   UNL     1      -8.739   0.351   6.275  0.00  0.00    +0.000 A 
ATOM     38  C   UNL     1      -8.355  -0.267   7.450  0.00  0.00    +0.000 A 
ATOM     39  C   UNL     1      -7.019  -0.530   7.688  0.00  0.00    +0.004 A 
ENDBRANCH  33  34
ENDBRANCH  32  33
ENDBRANCH  26  32
TORSDOF 3
