REMARK  Name = ZINC06473648
REMARK  7 active torsions:
REMARK  status: ('A' for Active; 'I' for Inactive)
REMARK    1  A    between atoms: C_1  and  C_2
REMARK    2  A    between atoms: C_2  and  C_25
REMARK    3  A    between atoms: N_9  and  C_24
REMARK    4  A    between atoms: C_11  and  C_12
REMARK    5  A    between atoms: N_13  and  N_14
REMARK    6  A    between atoms: C_15  and  C_17
REMARK    7  A    between atoms: C_20  and  O_23
REMARK                            x       y       z     vdW  Elec       q    Type
REMARK                         _______ _______ _______ _____ _____    ______ ____
ROOT
ATOM      1  C   UNL     1       1.118   2.061   0.180  0.00  0.00    +0.132 C 
ATOM      2  N   UNL     1      -0.011   1.412   0.161  0.00  0.00    -0.188 NA
ENDROOT
BRANCH   1  13
ATOM      3  C   UNL     1       5.248   0.591   0.957  0.00  0.00    +0.022 C 
ATOM      4  C   UNL     1       4.918   1.449  -0.266  0.00  0.00    +0.030 C 
ATOM      5  C   UNL     1       5.826   2.656  -0.328  0.00  0.00    -0.015 A 
ATOM      6  C   UNL     1       7.193   2.786  -0.443  0.00  0.00    +0.006 A 
ATOM      7  C   UNL     1       7.768   4.044  -0.469  0.00  0.00    +0.000 A 
ATOM      8  C   UNL     1       6.967   5.169  -0.379  0.00  0.00    +0.002 A 
ATOM      9  C   UNL     1       5.599   5.043  -0.265  0.00  0.00    +0.024 A 
ATOM     10  C   UNL     1       5.012   3.778  -0.238  0.00  0.00    +0.038 A 
ATOM     11  N   UNL     1       3.674   3.403  -0.130  0.00  0.00    -0.306 N 
ATOM     12  C   UNL     1       3.527   2.035  -0.142  0.00  0.00    +0.022 C 
ATOM     13  C   UNL     1       2.374   1.350  -0.056  0.00  0.00    +0.041 C 
ATOM     14  C   UNL     1       2.561   4.349  -0.018  0.00  0.00    +0.135 C 
ATOM     15  C   UNL     1       5.040   0.625  -1.548  0.00  0.00    +0.022 C 
ENDBRANCH   1  13
BRANCH   2  16
ATOM     16  N   UNL     1      -0.022   0.033  -0.085  0.00  0.00    -0.203 N 
ATOM     17  C   UNL     1      -1.190  -0.639  -0.104  0.00  0.00    +0.263 C 
ATOM     18  O   UNL     1      -2.235  -0.047   0.092  0.00  0.00    -0.268 OA
ATOM     19  H   UNL     1       0.811  -0.439  -0.241  0.00  0.00    +0.178 HD
BRANCH  17  20
ATOM     20  C   UNL     1      -1.202  -2.091  -0.363  0.00  0.00    +0.039 A 
ATOM     21  C   UNL     1      -0.004  -2.772  -0.594  0.00  0.00    +0.016 A 
ATOM     22  C   UNL     1      -0.019  -4.128  -0.831  0.00  0.00    +0.046 A 
ATOM     23  C   UNL     1      -1.225  -4.819  -0.850  0.00  0.00    +0.117 A 
ATOM     24  C   UNL     1      -2.420  -4.145  -0.626  0.00  0.00    +0.046 A 
ATOM     25  C   UNL     1      -2.413  -2.790  -0.383  0.00  0.00    +0.016 A 
BRANCH  23  26
ATOM     26  O   UNL     1      -1.236  -6.155  -1.089  0.00  0.00    -0.507 OA
ATOM     27  H   UNL     1      -1.314  -6.386  -2.025  0.00  0.00    +0.292 HD
ENDBRANCH  23  26
ENDBRANCH  17  20
ENDBRANCH   2  16
TORSDOF 4
