REMARK  Name = ZINC58913821
REMARK  9 active torsions:
REMARK  status: ('A' for Active; 'I' for Inactive)
REMARK    1  A    between atoms: C_1  and  C_2
REMARK    2  A    between atoms: C_7  and  N_8
REMARK    3  A    between atoms: C_9  and  C_11
REMARK    4  A    between atoms: N_13  and  N_14
REMARK    5  A    between atoms: C_15  and  C_16
REMARK    6  A    between atoms: C_18  and  C_32
REMARK    7  A    between atoms: N_19  and  C_22
REMARK    8  A    between atoms: C_20  and  C_21
REMARK    9  A    between atoms: C_27  and  C_28
REMARK                            x       y       z     vdW  Elec       q    Type
REMARK                         _______ _______ _______ _____ _____    ______ ____
ROOT
ATOM      1  N   UNL     1      -0.351   0.057   7.240  0.00  0.00    -0.187 NA
ATOM      2  C   UNL     1      -0.430  -0.599   8.360  0.00  0.00    +0.140 C 
ENDROOT
BRANCH   2   3
ATOM      3  C   UNL     1      -0.539   0.131   9.634  0.00  0.00    +0.016 A 
ATOM      4  C   UNL     1      -0.629  -0.452  10.977  0.00  0.00    +0.032 A 
ATOM      5  C   UNL     1      -0.712   0.578  11.838  0.00  0.00    +0.022 A 
ATOM      6  N   UNL     1      -0.680   1.748  11.133  0.00  0.00    -0.317 N 
ATOM      7  C   UNL     1      -0.570   1.487   9.803  0.00  0.00    +0.030 A 
ATOM      8  C   UNL     1      -0.498   2.515   8.704  0.00  0.00    +0.064 C 
ATOM      9  C   UNL     1      -0.823   0.461  13.336  0.00  0.00    +0.064 C 
BRANCH   6  10
ATOM     10  C   UNL     1      -0.745   3.028  11.698  0.00  0.00    +0.058 A 
ATOM     11  C   UNL     1       0.422   3.688  12.062  0.00  0.00    +0.027 A 
ATOM     12  C   UNL     1       0.355   4.950  12.619  0.00  0.00    +0.002 A 
ATOM     13  C   UNL     1      -0.873   5.557  12.813  0.00  0.00    +0.001 A 
ATOM     14  C   UNL     1      -2.036   4.903  12.451  0.00  0.00    +0.014 A 
ATOM     15  C   UNL     1      -1.975   3.643  11.889  0.00  0.00    +0.079 A 
BRANCH  15  16
ATOM     16  C   UNL     1      -3.242   2.933  11.489  0.00  0.00    +0.419 C 
ATOM     17  F   UNL     1      -4.343   3.747  11.777  0.00  0.00    -0.166 F 
ATOM     18  F   UNL     1      -3.211   2.661  10.117  0.00  0.00    -0.166 F 
ATOM     19  F   UNL     1      -3.350   1.734  12.200  0.00  0.00    -0.166 F 
ENDBRANCH  15  16
ENDBRANCH   6  10
ENDBRANCH   2   3
BRANCH   1  22
ATOM     20  C   UNL     1      -0.167   0.042   4.867  0.00  0.00    +0.318 C 
ATOM     21  O   UNL     1      -0.183   1.257   4.872  0.00  0.00    -0.263 OA
ATOM     22  N   UNL     1      -0.248  -0.637   6.028  0.00  0.00    -0.199 N 
ATOM     23  H   UNL     1      -0.235  -1.607   6.024  0.00  0.00    +0.178 HD
BRANCH  20  25
ATOM     24  N   UNL     1       0.025  -0.016   2.416  0.00  0.00    -0.277 N 
ATOM     25  C   UNL     1      -0.056  -0.696   3.577  0.00  0.00    +0.305 C 
ATOM     26  O   UNL     1      -0.040  -1.910   3.572  0.00  0.00    -0.265 OA
ATOM     27  H   UNL     1       0.078   0.952   2.424  0.00  0.00    +0.155 HD
BRANCH  24  34
ATOM     28  C   UNL     1      -1.267   1.182   0.182  0.00  0.00    +0.045 C 
ATOM     29  C   UNL     1      -0.586  -0.158   0.085  0.00  0.00    -0.029 A 
ATOM     30  C   UNL     1      -0.571  -0.841  -1.116  0.00  0.00    +0.005 A 
ATOM     31  C   UNL     1       0.055  -2.071  -1.206  0.00  0.00    +0.000 A 
ATOM     32  C   UNL     1       0.667  -2.622  -0.095  0.00  0.00    +0.002 A 
ATOM     33  C   UNL     1       0.655  -1.945   1.108  0.00  0.00    +0.023 A 
ATOM     34  C   UNL     1       0.033  -0.706   1.201  0.00  0.00    +0.037 A 
ENDBRANCH  24  34
ENDBRANCH  20  25
ENDBRANCH   1  22
TORSDOF 6
