REMARK  Name = ZINC34791046
REMARK  10 active torsions:
REMARK  status: ('A' for Active; 'I' for Inactive)
REMARK    1  A    between atoms: C_1  and  C_2
REMARK    2  A    between atoms: C_2  and  N_3
REMARK    3  A    between atoms: C_6  and  C_11
REMARK    4  A    between atoms: C_14  and  C_17
REMARK    5  A    between atoms: N_23  and  C_25
REMARK    6  A    between atoms: C_25  and  C_27
REMARK    7  A    between atoms: C_25  and  C_30
REMARK    8  A    between atoms: C_27  and  C_28
REMARK    9  A    between atoms: C_27  and  C_29
REMARK   10  A    between atoms: N_32  and  C_33
REMARK                            x       y       z     vdW  Elec       q    Type
REMARK                         _______ _______ _______ _____ _____    ______ ____
ROOT
ATOM      1  N   UNL     1       0.432  -1.073   0.852  0.00  0.00    -0.257 N 
ATOM      2  C   UNL     1      -0.613  -1.168   1.725  0.00  0.00    +0.042 C 
ATOM      3  C   UNL     1      -1.871  -1.380   1.289  0.00  0.00    +0.058 C 
ATOM      4  C   UNL     1      -2.087  -1.510  -0.205  0.00  0.00    +0.142 C 
ATOM      5  N   UNL     1      -0.895  -1.394  -1.063  0.00  0.00    -0.288 N 
ATOM      6  C   UNL     1       0.299  -1.176  -0.477  0.00  0.00    +0.307 C 
ATOM      7  O   UNL     1       1.288  -1.074  -1.177  0.00  0.00    -0.252 OA
ATOM      8  C   UNL     1      -2.764  -1.438   2.379  0.00  0.00    +0.247 C 
ATOM      9  O   UNL     1      -3.964  -1.620   2.276  0.00  0.00    -0.270 OA
ATOM     10  N   UNL     1      -2.118  -1.267   3.546  0.00  0.00    -0.280 N 
ATOM     11  C   UNL     1      -0.694  -1.080   3.233  0.00  0.00    +0.160 C 
ATOM     12  H   UNL     1      -0.969  -1.468  -2.027  0.00  0.00    +0.151 HD
ENDROOT
BRANCH   4  13
ATOM     13  C   UNL     1      -2.718  -2.853  -0.468  0.00  0.00    -0.023 A 
ATOM     14  C   UNL     1      -1.935  -3.992  -0.492  0.00  0.00    +0.006 A 
ATOM     15  C   UNL     1      -2.515  -5.224  -0.733  0.00  0.00    +0.013 A 
ATOM     16  C   UNL     1      -3.877  -5.316  -0.950  0.00  0.00    +0.055 A 
ATOM     17  C   UNL     1      -4.660  -4.177  -0.926  0.00  0.00    +0.013 A 
ATOM     18  C   UNL     1      -4.081  -2.946  -0.680  0.00  0.00    +0.006 A 
BRANCH  16  19
ATOM     19  C   UNL     1      -4.508  -6.659  -1.214  0.00  0.00    +0.417 C 
ATOM     20  F   UNL     1      -4.899  -7.237  -0.002  0.00  0.00    -0.166 F 
ATOM     21  F   UNL     1      -5.629  -6.494  -2.035  0.00  0.00    -0.166 F 
ATOM     22  F   UNL     1      -3.583  -7.492  -1.851  0.00  0.00    -0.166 F 
ENDBRANCH  16  19
ENDBRANCH   4  13
BRANCH   1  24
ATOM     23  C   UNL     1       2.028   0.663   1.498  0.00  0.00    +0.025 C 
ATOM     24  C   UNL     1       1.772  -0.842   1.397  0.00  0.00    +0.111 C 
ENDBRANCH   1  24
BRANCH  10  25
ATOM     25  C   UNL     1      -2.722  -1.266   4.881  0.00  0.00    +0.165 C 
BRANCH  25  26
ATOM     26  C   UNL     1      -3.306  -2.625   5.169  0.00  0.00    +0.234 C 
ATOM     27  O   UNL     1      -3.496  -3.408   4.262  0.00  0.00    -0.274 OA
ATOM     28  N   UNL     1      -3.618  -2.971   6.434  0.00  0.00    -0.311 N 
ATOM     29  H   UNL     1      -3.534  -2.321   7.149  0.00  0.00    +0.149 HD
BRANCH  28  30
ATOM     30  C   UNL     1      -4.082  -4.329   6.729  0.00  0.00    +0.073 C 
ATOM     31  C   UNL     1      -2.875  -5.248   6.931  0.00  0.00    +0.022 C 
ATOM     32  C   UNL     1      -3.360  -6.666   7.239  0.00  0.00    +0.002 C 
ATOM     33  C   UNL     1      -4.207  -6.649   8.513  0.00  0.00    +0.000 C 
ATOM     34  C   UNL     1      -5.414  -5.730   8.312  0.00  0.00    +0.002 C 
ATOM     35  C   UNL     1      -4.929  -4.312   8.003  0.00  0.00    +0.022 C 
ENDBRANCH  28  30
ENDBRANCH  25  26
BRANCH  25  36
ATOM     36  C   UNL     1      -3.829  -0.212   4.940  0.00  0.00    +0.012 C 
ATOM     37  C   UNL     1      -4.398  -0.149   6.359  0.00  0.00    +0.009 C 
ATOM     38  C   UNL     1      -3.254   1.153   4.560  0.00  0.00    +0.009 C 
ENDBRANCH  25  36
ENDBRANCH  10  25
TORSDOF 7
