REMARK  Name = ZINC63800249
REMARK  6 active torsions:
REMARK  status: ('A' for Active; 'I' for Inactive)
REMARK    1  A    between atoms: C_7  and  C_10
REMARK    2  A    between atoms: C_10  and  C_11
REMARK    3  A    between atoms: C_11  and  C_12
REMARK    4  A    between atoms: C_12  and  C_13
REMARK    5  A    between atoms: N_15  and  C_16
REMARK    6  A    between atoms: C_18  and  C_26
REMARK                            x       y       z     vdW  Elec       q    Type
REMARK                         _______ _______ _______ _____ _____    ______ ____
ROOT
ATOM      1  C   UNL     1      -0.729  -5.309  -2.876  0.00  0.00    +0.214 C 
ATOM      2  O   UNL     1      -0.183  -4.738  -3.796  0.00  0.00    -0.276 OA
ATOM      3  N   UNL     1      -1.542  -6.356  -3.120  0.00  0.00    -0.302 N 
ATOM      4  H   UNL     1      -1.979  -6.813  -2.385  0.00  0.00    +0.150 HD
ENDROOT
BRANCH   3   5
ATOM      5  C   UNL     1      -1.766  -6.804  -4.497  0.00  0.00    +0.151 C 
ATOM      6  C   UNL     1      -1.567  -8.330  -4.637  0.00  0.00    +0.132 C 
ATOM      7  C   UNL     1      -0.905  -8.687  -5.955  0.00  0.00    -0.046 C 
ATOM      8  C   UNL     1      -0.256  -7.729  -6.591  0.00  0.00    -0.013 C 
ATOM      9  S   UNL     1      -0.419  -6.242  -5.619  0.00  0.00    -0.106 S 
ATOM     10  C   UNL     1       0.374  -8.217  -7.874  0.00  0.00    +0.042 C 
ATOM     11  C   UNL     1       0.374  -9.755  -7.745  0.00  0.00    +0.009 C 
ATOM     12  C   UNL     1      -0.806  -9.977  -6.778  0.00  0.00    +0.033 C 
BRANCH   6  13
ATOM     13  C   UNL     1      -2.909  -9.011  -4.562  0.00  0.00    +0.220 C 
ATOM     14  O   UNL     1      -3.314  -9.659  -5.504  0.00  0.00    -0.275 OA
ATOM     15  N   UNL     1      -3.659  -8.901  -3.448  0.00  0.00    -0.329 N 
ATOM     16  H   UNL     1      -3.336  -8.383  -2.694  0.00  0.00    +0.145 HD
ATOM     17  H   UNL     1      -4.523  -9.339  -3.400  0.00  0.00    +0.145 HD
ENDBRANCH   6  13
ENDBRANCH   3   5
BRANCH   1  18
ATOM     18  C   UNL     1      -0.499  -4.848  -1.460  0.00  0.00    +0.096 C 
BRANCH  18  19
ATOM     19  C   UNL     1       0.457  -3.653  -1.462  0.00  0.00    +0.014 C 
BRANCH  19  20
ATOM     20  C   UNL     1       0.691  -3.186  -0.024  0.00  0.00    +0.033 C 
BRANCH  20  27
ATOM     21  C   UNL     1      -0.016   1.348   0.009  0.00  0.00    +0.001 A 
ATOM     22  C   UNL     1       1.166   2.101   0.002  0.00  0.00    +0.002 A 
ATOM     23  C   UNL     1       2.391   1.535  -0.013  0.00  0.00    +0.026 A 
ATOM     24  C   UNL     1       2.529   0.120  -0.022  0.00  0.00    +0.043 A 
ATOM     25  N   UNL     1       3.587  -0.654  -0.037  0.00  0.00    -0.380 N 
ATOM     26  C   UNL     1       3.143  -2.053  -0.041  0.00  0.00    +0.144 C 
ATOM     27  C   UNL     1       1.631  -2.008  -0.025  0.00  0.00    -0.042 C 
ATOM     28  C   UNL     1       1.295  -0.698  -0.014  0.00  0.00    -0.001 A 
ATOM     29  C   UNL     1       0.002  -0.004   0.002  0.00  0.00    +0.010 A 
ATOM     30  H   UNL     1       4.509  -0.353  -0.045  0.00  0.00    +0.160 HD
ENDBRANCH  20  27
ENDBRANCH  19  20
ENDBRANCH  18  19
ENDBRANCH   1  18
TORSDOF 6
