REMARK  Name = ZINC02314617
REMARK  6 active torsions:
REMARK  status: ('A' for Active; 'I' for Inactive)
REMARK    1  A    between atoms: C_6  and  C_7
REMARK    2  A    between atoms: C_8  and  C_9
REMARK    3  A    between atoms: C_9  and  C_11
REMARK    4  A    between atoms: C_11  and  C_12
REMARK    5  A    between atoms: C_12  and  O_23
REMARK    6  A    between atoms: C_20  and  O_21
REMARK                            x       y       z     vdW  Elec       q    Type
REMARK                         _______ _______ _______ _____ _____    ______ ____
ROOT
ATOM      1  C   UNL     1      -4.966  -0.088   0.049  0.00  0.00    +0.128 C 
ENDROOT
BRANCH   1   2
ATOM      2  C   UNL     1      -6.114  -1.101   0.055  0.00  0.00    +0.175 C 
ATOM      3  C   UNL     1      -7.438  -0.407  -0.168  0.00  0.00    +0.020 A 
ATOM      4  C   UNL     1      -8.137   0.550   0.524  0.00  0.00    +0.024 A 
ATOM      5  C   UNL     1      -9.361   0.993   0.046  0.00  0.00    +0.018 A 
ATOM      6  C   UNL     1      -9.874   0.468  -1.128  0.00  0.00    +0.017 A 
ATOM      7  C   UNL     1      -9.177  -0.493  -1.828  0.00  0.00    +0.029 A 
ATOM      8  C   UNL     1      -7.941  -0.947  -1.354  0.00  0.00    +0.074 A 
ATOM      9  N   UNL     1      -7.070  -1.875  -1.853  0.00  0.00    -0.214 NA
ATOM     10  C   UNL     1      -6.008  -2.036  -1.133  0.00  0.00    +0.226 C 
ATOM     11 BR   UNL     1     -10.328   2.311   0.996  0.00  0.00    -0.050 Br
BRANCH  10  12
ATOM     12  O   UNL     1      -4.990  -2.882  -1.392  0.00  0.00    -0.493 OA
ATOM     13  H   UNL     1      -5.105  -3.399  -2.201  0.00  0.00    +0.294 HD
ENDBRANCH  10  12
BRANCH   2  14
ATOM     14  O   UNL     1      -6.127  -1.839   1.278  0.00  0.00    -0.374 OA
ATOM     15  H   UNL     1      -5.312  -2.332   1.449  0.00  0.00    +0.211 HD
ENDBRANCH   2  14
ENDBRANCH   1   2
BRANCH   1  16
ATOM     16  C   UNL     1      -3.650  -0.821   0.033  0.00  0.00    +0.160 C 
ATOM     17  O   UNL     1      -3.631  -2.036   0.026  0.00  0.00    -0.293 OA
BRANCH  16  19
ATOM     18  C   UNL     1      -1.257  -0.758   0.010  0.00  0.00    +0.011 C 
ATOM     19  C   UNL     1      -2.442  -0.098   0.025  0.00  0.00    +0.047 C 
BRANCH  18  25
ATOM     20  C   UNL     1      -0.017   1.396   0.010  0.00  0.00    +0.012 A 
ATOM     21  C   UNL     1       1.167   2.100   0.002  0.00  0.00    +0.050 A 
ATOM     22  C   UNL     1       2.381   1.427  -0.013  0.00  0.00    +0.166 A 
ATOM     23  C   UNL     1       2.409   0.030  -0.021  0.00  0.00    +0.167 A 
ATOM     24  C   UNL     1       1.228  -0.683  -0.014  0.00  0.00    +0.057 A 
ATOM     25  C   UNL     1       0.002  -0.004   0.002  0.00  0.00    -0.021 A 
ATOM     26  O   UNL     1       3.711  -0.379  -0.036  0.00  0.00    -0.453 OA
ATOM     27  C   UNL     1       4.470   0.772  -0.451  0.00  0.00    +0.466 C 
ATOM     28  O   UNL     1       3.665   1.886  -0.023  0.00  0.00    -0.453 OA
ENDBRANCH  18  25
ENDBRANCH  16  19
ENDBRANCH   1  16
TORSDOF 6
