REMARK  Name = ZINC34791501
REMARK  11 active torsions:
REMARK  status: ('A' for Active; 'I' for Inactive)
REMARK    1  A    between atoms: C_1  and  C_2
REMARK    2  A    between atoms: C_2  and  N_3
REMARK    3  A    between atoms: C_6  and  C_11
REMARK    4  A    between atoms: C_16  and  C_17
REMARK    5  A    between atoms: N_23  and  C_25
REMARK    6  A    between atoms: C_25  and  C_27
REMARK    7  A    between atoms: C_25  and  C_31
REMARK    8  A    between atoms: C_27  and  C_28
REMARK    9  A    between atoms: C_28  and  C_29
REMARK   10  A    between atoms: C_28  and  C_30
REMARK   11  A    between atoms: N_37  and  C_40
REMARK                            x       y       z     vdW  Elec       q    Type
REMARK                         _______ _______ _______ _____ _____    ______ ____
ROOT
ATOM      1  N   UNL     1      -1.582  -0.681   1.343  0.00  0.00    -0.257 N 
ATOM      2  C   UNL     1      -2.501  -1.158   2.233  0.00  0.00    +0.042 C 
ATOM      3  C   UNL     1      -3.714  -1.583   1.825  0.00  0.00    +0.058 C 
ATOM      4  C   UNL     1      -4.023  -1.512   0.343  0.00  0.00    +0.142 C 
ATOM      5  N   UNL     1      -2.966  -0.983  -0.534  0.00  0.00    -0.288 N 
ATOM      6  C   UNL     1      -1.803  -0.592   0.025  0.00  0.00    +0.307 C 
ATOM      7  O   UNL     1      -0.926  -0.149  -0.691  0.00  0.00    -0.252 OA
ATOM      8  C   UNL     1      -4.475  -2.025   2.926  0.00  0.00    +0.247 C 
ATOM      9  O   UNL     1      -5.609  -2.462   2.848  0.00  0.00    -0.270 OA
ATOM     10  N   UNL     1      -3.785  -1.902   4.074  0.00  0.00    -0.281 N 
ATOM     11  C   UNL     1      -2.470  -1.340   3.734  0.00  0.00    +0.160 C 
ATOM     12  H   UNL     1      -3.104  -0.913  -1.492  0.00  0.00    +0.151 HD
ENDROOT
BRANCH   4  13
ATOM     13  C   UNL     1      -5.248  -0.653   0.164  0.00  0.00    -0.011 A 
ATOM     14  C   UNL     1      -5.167   0.714   0.352  0.00  0.00    +0.006 A 
ATOM     15  C   UNL     1      -6.291   1.502   0.188  0.00  0.00    +0.000 A 
ATOM     16  C   UNL     1      -7.496   0.923  -0.165  0.00  0.00    +0.001 A 
ATOM     17  C   UNL     1      -7.577  -0.444  -0.354  0.00  0.00    +0.013 A 
ATOM     18  C   UNL     1      -6.452  -1.231  -0.194  0.00  0.00    +0.060 A 
BRANCH  18  19
ATOM     19  C   UNL     1      -6.539  -2.721  -0.405  0.00  0.00    +0.418 C 
ATOM     20  F   UNL     1      -7.861  -3.075  -0.693  0.00  0.00    -0.166 F 
ATOM     21  F   UNL     1      -5.715  -3.089  -1.474  0.00  0.00    -0.166 F 
ATOM     22  F   UNL     1      -6.121  -3.382   0.755  0.00  0.00    -0.166 F 
ENDBRANCH  18  19
ENDBRANCH   4  13
BRANCH   1  24
ATOM     23  C   UNL     1      -0.360   1.249   2.216  0.00  0.00    +0.025 C 
ATOM     24  C   UNL     1      -0.285  -0.236   1.859  0.00  0.00    +0.111 C 
ENDBRANCH   1  24
BRANCH  10  25
ATOM     25  C   UNL     1      -4.256  -2.261   5.414  0.00  0.00    +0.163 C 
BRANCH  25  26
ATOM     26  C   UNL     1      -5.487  -1.456   5.746  0.00  0.00    +0.236 C 
ATOM     27  O   UNL     1      -5.926  -0.662   4.943  0.00  0.00    -0.274 OA
ATOM     28  N   UNL     1      -6.098  -1.620   6.936  0.00  0.00    -0.302 N 
ATOM     29  C   UNL     1      -5.537  -2.591   7.897  0.00  0.00    +0.106 C 
ATOM     30  C   UNL     1      -5.565  -2.030   9.331  0.00  0.00    +0.000 C 
ATOM     31  C   UNL     1      -5.197  -0.563   9.305  0.00  0.00    -0.078 C 
ATOM     32  N   UNL     1      -6.416   0.239   9.224  0.00  0.00    +0.379 N 
ATOM     33  C   UNL     1      -6.879   0.488   7.913  0.00  0.00    -0.060 C 
ATOM     34  C   UNL     1      -7.279  -0.834   7.229  0.00  0.00    +0.089 C 
ATOM     35  C   UNL     1      -6.166   1.529   9.880  0.00  0.00    -0.096 C 
ATOM     36  H   UNL     1      -7.145  -0.238   9.733  0.00  0.00    -0.082 HD
ENDBRANCH  25  26
BRANCH  25  37
ATOM     37  C   UNL     1      -4.596  -3.752   5.453  0.00  0.00    +0.035 C 
BRANCH  37  38
ATOM     38  C   UNL     1      -3.322  -4.572   5.239  0.00  0.00    -0.015 C 
ATOM     39  C   UNL     1      -2.367  -4.344   6.412  0.00  0.00    +0.007 C 
ATOM     40  C   UNL     1      -3.679  -6.057   5.153  0.00  0.00    +0.007 C 
ENDBRANCH  37  38
ENDBRANCH  25  37
ENDBRANCH  10  25
TORSDOF 7
