REMARK  Name = ZINC31904108
REMARK  4 active torsions:
REMARK  status: ('A' for Active; 'I' for Inactive)
REMARK    1  A    between atoms: C_4  and  O_26
REMARK    2  A    between atoms: C_5  and  C_7
REMARK    3  A    between atoms: N_9  and  N_10
REMARK    4  A    between atoms: C_11  and  C_13
REMARK                            x       y       z     vdW  Elec       q    Type
REMARK                         _______ _______ _______ _____ _____    ______ ____
ROOT
ATOM      1  N   UNL     1       0.002  -0.004   0.002  0.00  0.00    -0.230 N 
ATOM      2  C   UNL     1       1.178  -0.662  -0.013  0.00  0.00    +0.267 C 
ATOM      3  O   UNL     1       2.223  -0.040  -0.019  0.00  0.00    -0.268 OA
ATOM      4  H   UNL     1      -0.943  -0.567   0.008  0.00  0.00    +0.173 HD
ENDROOT
BRANCH   2   5
ATOM      5  C   UNL     1       1.198  -2.135  -0.021  0.00  0.00    +0.123 A 
ATOM      6  C   UNL     1       0.017  -2.855  -0.013  0.00  0.00    +0.032 A 
ATOM      7  C   UNL     1       0.082  -4.271  -0.022  0.00  0.00    +0.020 A 
ATOM      8  C   UNL     1      -1.096  -5.033  -0.014  0.00  0.00    +0.027 A 
ATOM      9  C   UNL     1      -1.026  -6.397  -0.021  0.00  0.00    +0.020 A 
ATOM     10  C   UNL     1       0.206  -7.038  -0.037  0.00  0.00    +0.034 A 
ATOM     11  C   UNL     1       1.377  -6.309  -0.045  0.00  0.00    +0.062 A 
ATOM     12  C   UNL     1       1.331  -4.918  -0.037  0.00  0.00    +0.153 A 
ATOM     13  O   UNL     1       2.479  -4.207  -0.044  0.00  0.00    -0.421 OA
ATOM     14  C   UNL     1       2.471  -2.864  -0.043  0.00  0.00    +0.350 A 
ATOM     15  O   UNL     1       3.522  -2.251  -0.055  0.00  0.00    -0.244 OA
ATOM     16 BR   UNL     1       3.045  -7.200  -0.068  0.00  0.00    -0.046 Br
ATOM     17 BR   UNL     1      -2.616  -7.419  -0.011  0.00  0.00    -0.050 Br
ENDBRANCH   2   5
BRANCH   1  20
ATOM     18  C   UNL     1      -1.193   2.055   0.019  0.00  0.00    +0.264 C 
ATOM     19  O   UNL     1      -2.238   1.433   0.020  0.00  0.00    -0.269 OA
ATOM     20  N   UNL     1      -0.017   1.397   0.010  0.00  0.00    -0.230 N 
ATOM     21  H   UNL     1       0.928   1.960   0.008  0.00  0.00    +0.173 HD
BRANCH  18  26
ATOM     22  C   UNL     1      -0.041   5.627   0.033  0.00  0.00    +0.001 A 
ATOM     23  C   UNL     1      -1.250   6.303   0.042  0.00  0.00    +0.004 A 
ATOM     24  C   UNL     1      -2.441   5.605   0.044  0.00  0.00    +0.046 A 
ATOM     25  C   UNL     1      -2.434   4.218   0.036  0.00  0.00    +0.129 A 
ATOM     26  C   UNL     1      -1.213   3.530   0.027  0.00  0.00    +0.079 A 
ATOM     27  C   UNL     1      -0.015   4.249   0.031  0.00  0.00    +0.017 A 
BRANCH  25  28
ATOM     28  O   UNL     1      -3.603   3.531   0.039  0.00  0.00    -0.506 OA
ATOM     29  H   UNL     1      -3.595   2.431   0.033  0.00  0.00    +0.292 HD
ENDBRANCH  25  28
ENDBRANCH  18  26
ENDBRANCH   1  20
TORSDOF 4
