REMARK  Name = ZINC59392606
REMARK  10 active torsions:
REMARK  status: ('A' for Active; 'I' for Inactive)
REMARK    1  A    between atoms: C_1  and  C_2
REMARK    2  A    between atoms: C_7  and  O_9
REMARK    3  A    between atoms: O_9  and  C_10
REMARK    4  A    between atoms: C_10  and  C_12
REMARK    5  A    between atoms: C_13  and  C_31
REMARK    6  A    between atoms: C_18  and  C_20
REMARK    7  A    between atoms: C_21  and  O_29
REMARK    8  A    between atoms: C_24  and  O_27
REMARK    9  A    between atoms: O_27  and  C_28
REMARK   10  A    between atoms: O_29  and  C_30
REMARK                            x       y       z     vdW  Elec       q    Type
REMARK                         _______ _______ _______ _____ _____    ______ ____
ROOT
ATOM      1  C   UNL     1      -0.817  -2.051   4.235  0.00  0.00    +0.078 C 
ATOM      2  C   UNL     1      -0.420  -2.345   5.492  0.00  0.00    +0.021 C 
ATOM      3  N   UNL     1      -1.064  -3.297   6.230  0.00  0.00    -0.273 N 
ATOM      4  C   UNL     1      -2.112  -3.999   5.783  0.00  0.00    +0.304 C 
ATOM      5  O   UNL     1      -2.621  -4.827   6.514  0.00  0.00    -0.252 OA
ATOM      6  N   UNL     1      -2.623  -3.819   4.549  0.00  0.00    -0.288 N 
ATOM      7  C   UNL     1      -2.003  -2.809   3.675  0.00  0.00    +0.148 C 
ATOM      8  C   UNL     1       0.752  -1.611   6.090  0.00  0.00    +0.061 C 
ATOM      9  H   UNL     1      -0.744  -3.474   7.128  0.00  0.00    +0.156 HD
ATOM     10  H   UNL     1      -3.383  -4.339   4.245  0.00  0.00    +0.151 HD
ENDROOT
BRANCH   7  11
ATOM     11  C   UNL     1      -1.556  -3.504   2.414  0.00  0.00    +0.037 A 
ATOM     12  C   UNL     1      -1.934  -3.006   1.176  0.00  0.00    +0.127 A 
ATOM     13  C   UNL     1      -1.523  -3.645   0.016  0.00  0.00    +0.049 A 
ATOM     14  C   UNL     1      -0.737  -4.779   0.093  0.00  0.00    +0.050 A 
ATOM     15  C   UNL     1      -0.359  -5.278   1.330  0.00  0.00    +0.135 A 
ATOM     16  C   UNL     1      -0.766  -4.635   2.491  0.00  0.00    +0.068 A 
ATOM     17 BR   UNL     1      -0.245  -5.311   4.179  0.00  0.00    -0.046 Br
BRANCH  15  18
ATOM     18  O   UNL     1       0.413  -6.394   1.406  0.00  0.00    -0.494 OA
ATOM     19  C   UNL     1       0.799  -7.001   0.171  0.00  0.00    +0.277 C 
ENDBRANCH  15  18
BRANCH  12  20
ATOM     20  O   UNL     1      -2.707  -1.890   1.100  0.00  0.00    -0.495 OA
ATOM     21  C   UNL     1      -3.058  -1.432  -0.208  0.00  0.00    +0.277 C 
ENDBRANCH  12  20
ENDBRANCH   7  11
BRANCH   1  22
ATOM     22  C   UNL     1      -0.151  -1.065   3.470  0.00  0.00    +0.339 C 
ATOM     23  O   UNL     1       0.726  -0.391   3.977  0.00  0.00    -0.245 OA
BRANCH  22  24
ATOM     24  O   UNL     1      -0.488  -0.873   2.178  0.00  0.00    -0.458 OA
BRANCH  24  30
ATOM     25  C   UNL     1      -0.817   2.258   0.600  0.00  0.00    +0.011 C 
ATOM     26  C   UNL     1      -0.673   0.751   0.376  0.00  0.00    +0.027 C 
ATOM     27  C   UNL     1       0.023   0.482  -0.974  0.00  0.00    +0.007 C 
ATOM     28  C   UNL     1       1.515   0.295  -0.602  0.00  0.00    +0.004 C 
ATOM     29  C   UNL     1       1.439  -0.479   0.738  0.00  0.00    +0.045 C 
ATOM     30  C   UNL     1       0.226   0.140   1.465  0.00  0.00    +0.180 C 
ENDBRANCH  24  30
ENDBRANCH  22  24
ENDBRANCH   1  22
TORSDOF 6
