REMARK  Name = ZINC02129524
REMARK  6 active torsions:
REMARK  status: ('A' for Active; 'I' for Inactive)
REMARK    1  A    between atoms: C_1  and  N_52
REMARK    2  A    between atoms: C_8  and  O_29
REMARK    3  A    between atoms: C_10  and  C_12
REMARK    4  A    between atoms: C_13  and  O_28
REMARK    5  A    between atoms: N_18  and  C_21
REMARK    6  A    between atoms: O_29  and  C_30
REMARK                            x       y       z     vdW  Elec       q    Type
REMARK                         _______ _______ _______ _____ _____    ______ ____
ROOT
ATOM      1  C   UNL     1      -0.209  -2.305   0.905  0.00  0.00    +0.068 A 
ATOM      2  C   UNL     1      -0.968  -3.356   0.482  0.00  0.00    +0.201 A 
ATOM      3  N   UNL     1      -1.579  -4.164   1.407  0.00  0.00    -0.278 N 
ATOM      4  H   UNL     1      -2.117  -4.915   1.111  0.00  0.00    +0.173 HD
ATOM      5  C   UNL     1      -1.440  -3.919   2.723  0.00  0.00    +0.336 A 
ATOM      6  O   UNL     1      -1.992  -4.643   3.529  0.00  0.00    -0.246 OA
ATOM      7  N   UNL     1      -0.699  -2.884   3.161  0.00  0.00    -0.229 N 
ATOM      8  C   UNL     1      -0.079  -2.069   2.285  0.00  0.00    +0.267 A 
ATOM      9  O   UNL     1       0.592  -1.133   2.687  0.00  0.00    -0.267 OA
ENDROOT
BRANCH   1  19
ATOM     10  C   UNL     1       2.518  -2.699   0.018  0.00  0.00    -0.095 C 
ATOM     11  C   UNL     1       2.578  -0.371  -0.654  0.00  0.00    -0.073 C 
ATOM     12  C   UNL     1       2.173   1.022  -0.171  0.00  0.00    +0.017 C 
ATOM     13  C   UNL     1       0.674   1.107  -0.043  0.00  0.00    -0.040 A 
ATOM     14  C   UNL     1       0.089   2.362   0.037  0.00  0.00    +0.053 A 
ATOM     15  C   UNL     1      -1.284   2.492   0.161  0.00  0.00    +0.170 A 
ATOM     16  C   UNL     1      -2.082   1.353   0.205  0.00  0.00    +0.208 A 
ATOM     17  C   UNL     1      -1.494   0.099   0.122  0.00  0.00    +0.167 A 
ATOM     18  C   UNL     1      -0.114  -0.024  -0.002  0.00  0.00    -0.008 A 
ATOM     19  C   UNL     1       0.476  -1.407  -0.092  0.00  0.00    +0.007 C 
ATOM     20  O   UNL     1      -3.386   1.738   0.336  0.00  0.00    -0.449 OA
ATOM     21  C   UNL     1      -3.341   3.108   0.773  0.00  0.00    +0.467 C 
ATOM     22  O   UNL     1      -2.087   3.592   0.259  0.00  0.00    -0.452 OA
ATOM     23  N   UNL     1       1.915  -1.363   0.218  0.00  0.00    +0.386 N 
ATOM     24  H   UNL     1       2.038  -1.083   1.198  0.00  0.00    -0.081 HD
BRANCH  17  25
ATOM     25  O   UNL     1      -2.272  -1.016   0.163  0.00  0.00    -0.491 OA
ATOM     26  C   UNL     1      -2.754  -1.517  -1.086  0.00  0.00    +0.277 C 
ENDBRANCH  17  25
ENDBRANCH   1  19
BRANCH   7  27
ATOM     27  C   UNL     1      -0.572  -2.652   4.537  0.00  0.00    +0.054 A 
ATOM     28  C   UNL     1       0.460  -3.247   5.250  0.00  0.00    +0.027 A 
ATOM     29  C   UNL     1       0.586  -3.012   6.605  0.00  0.00    +0.017 A 
ATOM     30  C   UNL     1      -0.322  -2.195   7.255  0.00  0.00    +0.018 A 
ATOM     31  C   UNL     1      -1.355  -1.605   6.547  0.00  0.00    +0.017 A 
ATOM     32  C   UNL     1      -1.482  -1.832   5.191  0.00  0.00    +0.027 A 
ATOM     33 BR   UNL     1      -0.151  -1.882   9.111  0.00  0.00    -0.050 Br
ENDBRANCH   7  27
BRANCH   2  34
ATOM     34  O   UNL     1      -1.115  -3.601  -0.838  0.00  0.00    -0.493 OA
ATOM     35  H   UNL     1      -1.671  -4.367  -1.036  0.00  0.00    +0.294 HD
ENDBRANCH   2  34
TORSDOF 4
