REMARK  Name = ZINC09382656
REMARK  9 active torsions:
REMARK  status: ('A' for Active; 'I' for Inactive)
REMARK    1  A    between atoms: C_1  and  C_2
REMARK    2  A    between atoms: C_5  and  S_8
REMARK    3  A    between atoms: S_8  and  N_11
REMARK    4  A    between atoms: N_11  and  C_12
REMARK    5  A    between atoms: C_12  and  C_14
REMARK    6  A    between atoms: C_12  and  C_15
REMARK    7  A    between atoms: C_15  and  C_17
REMARK    8  A    between atoms: C_15  and  N_60
REMARK    9  A    between atoms: N_24  and  C_27
REMARK                            x       y       z     vdW  Elec       q    Type
REMARK                         _______ _______ _______ _____ _____    ______ ____
ROOT
ATOM      1  C   UNL     1       2.615  -1.751   0.105  0.00  0.00    -0.012 C 
ENDROOT
BRANCH   1   7
ATOM      2  C   UNL     1       2.078  -2.352   2.389  0.00  0.00    -0.059 C 
ATOM      3  C   UNL     1       1.511  -3.466   3.272  0.00  0.00    +0.086 C 
ATOM      4  N   UNL     1       2.365  -4.657   3.161  0.00  0.00    -0.333 N 
ATOM      5  C   UNL     1       2.434  -5.125   1.770  0.00  0.00    +0.086 C 
ATOM      6  C   UNL     1       3.001  -4.010   0.887  0.00  0.00    -0.059 C 
ATOM      7  N   UNL     1       2.121  -2.827   0.990  0.00  0.00    +0.388 N 
ATOM      8  H   UNL     1       1.172  -3.090   0.698  0.00  0.00    -0.081 HD
BRANCH   4   9
ATOM      9  C   UNL     1       1.919  -5.674   4.010  0.00  0.00    +0.030 A 
ATOM     10  C   UNL     1       1.604  -6.924   3.493  0.00  0.00    +0.026 A 
ATOM     11  C   UNL     1       1.168  -7.929   4.335  0.00  0.00    +0.040 A 
ATOM     12  C   UNL     1       1.034  -7.688   5.691  0.00  0.00    +0.124 A 
ATOM     13  C   UNL     1       1.342  -6.441   6.209  0.00  0.00    +0.040 A 
ATOM     14  C   UNL     1       1.783  -5.434   5.372  0.00  0.00    +0.026 A 
ATOM     15  F   UNL     1       0.603  -8.670   6.512  0.00  0.00    -0.205 F 
ENDBRANCH   4   9
ENDBRANCH   1   7
BRANCH   1  16
ATOM     16  C   UNL     1       1.700  -0.560   0.223  0.00  0.00    -0.022 A 
ATOM     17  C   UNL     1       2.010   0.759   0.215  0.00  0.00    +0.009 A 
ATOM     18  C   UNL     1       0.993   1.688   0.339  0.00  0.00    +0.008 A 
ATOM     19  C   UNL     1      -0.284   1.251   0.466  0.00  0.00    +0.045 A 
ATOM     20  S   UNL     1      -0.075  -0.521   0.411  0.00  0.00    -0.103 S 
ENDBRANCH   1  16
BRANCH   1  21
ATOM     21  C   UNL     1       2.613  -2.255  -1.339  0.00  0.00    +0.065 C 
ATOM     22  C   UNL     1       1.208  -2.731  -1.711  0.00  0.00    +0.024 C 
BRANCH  21  23
ATOM     23  N   UNL     1       3.014  -1.168  -2.236  0.00  0.00    -0.188 NA
ATOM     24  H   UNL     1       2.753  -0.255  -2.038  0.00  0.00    +0.148 HD
BRANCH  23  25
ATOM     25  S   UNL     1       3.912  -1.498  -3.588  0.00  0.00    +0.059 S 
ATOM     26  O   UNL     1       4.113  -0.260  -4.254  0.00  0.00    -0.153 OA
ATOM     27  O   UNL     1       4.992  -2.321  -3.167  0.00  0.00    -0.153 OA
BRANCH  25  32
ATOM     28  C   UNL     1       0.485  -4.879  -7.226  0.00  0.00    +0.044 C 
ATOM     29  C   UNL     1       1.341  -4.035  -6.317  0.00  0.00    -0.050 A 
ATOM     30  C   UNL     1       1.311  -2.656  -6.423  0.00  0.00    +0.005 A 
ATOM     31  C   UNL     1       2.096  -1.882  -5.589  0.00  0.00    +0.029 A 
ATOM     32  C   UNL     1       2.911  -2.486  -4.650  0.00  0.00    +0.105 A 
ATOM     33  C   UNL     1       2.945  -3.864  -4.548  0.00  0.00    +0.029 A 
ATOM     34  C   UNL     1       2.157  -4.638  -5.378  0.00  0.00    +0.005 A 
ENDBRANCH  25  32
ENDBRANCH  23  25
ENDBRANCH  21  23
ENDBRANCH   1  21
TORSDOF 7
