REMARK  Name = ZINC01148935
REMARK  6 active torsions:
REMARK  status: ('A' for Active; 'I' for Inactive)
REMARK    1  A    between atoms: C_1  and  C_2
REMARK    2  A    between atoms: C_3  and  C_28
REMARK    3  A    between atoms: C_4  and  C_20
REMARK    4  A    between atoms: C_10  and  C_15
REMARK    5  A    between atoms: C_28  and  O_30
REMARK    6  A    between atoms: O_30  and  C_31
REMARK                            x       y       z     vdW  Elec       q    Type
REMARK                         _______ _______ _______ _____ _____    ______ ____
ROOT
ATOM      1  C   UNL     1      -5.755   6.959  -3.767  0.00  0.00    +0.061 C 
ATOM      2  C   UNL     1      -5.100   6.945  -2.410  0.00  0.00    +0.016 C 
ATOM      3  C   UNL     1      -5.730   7.498  -1.359  0.00  0.00    +0.065 C 
ATOM      4  C   UNL     1      -5.105   7.508   0.005  0.00  0.00    +0.095 C 
ATOM      5  C   UNL     1      -3.992   6.494   0.098  0.00  0.00    +0.024 C 
ATOM      6  C   UNL     1      -3.428   5.987  -1.018  0.00  0.00    +0.016 C 
ATOM      7  N   UNL     1      -3.869   6.370  -2.256  0.00  0.00    -0.321 N 
ATOM      8  C   UNL     1      -2.298   4.991  -0.933  0.00  0.00    +0.060 C 
ATOM      9  C   UNL     1      -2.451   4.147   0.335  0.00  0.00    +0.039 C 
ATOM     10  C   UNL     1      -2.458   5.086   1.546  0.00  0.00    +0.088 C 
ATOM     11  C   UNL     1      -3.558   6.098   1.375  0.00  0.00    +0.162 C 
ATOM     12  O   UNL     1      -4.081   6.582   2.359  0.00  0.00    -0.292 OA
ATOM     13  H   UNL     1      -3.223   6.211  -3.132  0.00  0.00    +0.152 HD
ENDROOT
BRANCH   4  14
ATOM     14  C   UNL     1      -4.549   8.880   0.285  0.00  0.00    +0.003 A 
ATOM     15  C   UNL     1      -3.552   9.399  -0.519  0.00  0.00    +0.045 A 
ATOM     16  C   UNL     1      -3.041  10.660  -0.263  0.00  0.00    +0.124 A 
ATOM     17  C   UNL     1      -3.530  11.402   0.799  0.00  0.00    +0.041 A 
ATOM     18  C   UNL     1      -4.528  10.884   1.603  0.00  0.00    +0.041 A 
ATOM     19  C   UNL     1      -5.042   9.624   1.344  0.00  0.00    +0.128 A 
ATOM     20  F   UNL     1      -6.020   9.120   2.126  0.00  0.00    -0.205 F 
ATOM     21  F   UNL     1      -2.066  11.166  -1.048  0.00  0.00    -0.205 F 
ENDBRANCH   4  14
BRANCH   9  22
ATOM     22  C   UNL     1      -1.296   3.186   0.446  0.00  0.00    -0.006 A 
ATOM     23  C   UNL     1      -1.315   1.832   0.500  0.00  0.00    +0.011 A 
ATOM     24  C   UNL     1      -0.119   1.148   0.608  0.00  0.00    +0.008 A 
ATOM     25  C   UNL     1       1.039   1.852   0.645  0.00  0.00    +0.045 A 
ATOM     26  S   UNL     1       0.452   3.535   0.535  0.00  0.00    -0.101 S 
ENDBRANCH   9  22
BRANCH   3  27
ATOM     27  C   UNL     1      -7.005   8.081  -1.543  0.00  0.00    +0.337 C 
ATOM     28  O   UNL     1      -7.476   8.174  -2.661  0.00  0.00    -0.245 OA
BRANCH  27  29
ATOM     29  O   UNL     1      -7.700   8.533  -0.478  0.00  0.00    -0.465 OA
ATOM     30  C   UNL     1      -8.981   9.110  -0.737  0.00  0.00    +0.280 C 
ENDBRANCH  27  29
ENDBRANCH   3  27
TORSDOF 4
