REMARK  Name = ZINC09693156
REMARK  4 active torsions:
REMARK  status: ('A' for Active; 'I' for Inactive)
REMARK    1  A    between atoms: C_1  and  C_2
REMARK    2  A    between atoms: C_3  and  N_9
REMARK    3  A    between atoms: C_15  and  C_23
REMARK    4  A    between atoms: C_17  and  C_21
REMARK                            x       y       z     vdW  Elec       q    Type
REMARK                         _______ _______ _______ _____ _____    ______ ____
ROOT
ATOM      1  N   UNL     1       3.455   1.689  -0.749  0.00  0.00    -0.304 N 
ATOM      2  C   UNL     1       2.389   1.115   0.067  0.00  0.00    +0.222 C 
ATOM      3  N   UNL     1       1.153   1.893   0.001  0.00  0.00    -0.248 N 
ATOM      4  C   UNL     1      -0.014   1.208   0.009  0.00  0.00    +0.222 C 
ATOM      5  O   UNL     1       0.002  -0.004   0.002  0.00  0.00    -0.275 OA
ATOM      6  C   UNL     1      -1.333   1.934   0.019  0.00  0.00    +0.110 C 
ATOM      7  C   UNL     1      -1.190   3.215   0.851  0.00  0.00    +0.072 C 
ATOM      8  C   UNL     1       0.035   3.958   0.384  0.00  0.00    +0.065 C 
ATOM      9  C   UNL     1       1.141   3.269  -0.026  0.00  0.00    +0.087 C 
ATOM     10  S   UNL     1       2.529   4.184  -0.619  0.00  0.00    -0.090 S 
ATOM     11  C   UNL     1       3.854   3.010  -0.235  0.00  0.00    +0.182 C 
ENDROOT
BRANCH   1  14
ATOM     12  C   UNL     1       4.269   0.756  -3.311  0.00  0.00    +0.047 C 
ATOM     13  C   UNL     1       4.984   0.347  -2.049  0.00  0.00    -0.011 A 
ATOM     14  C   UNL     1       4.552   0.827  -0.818  0.00  0.00    +0.036 A 
ATOM     15  C   UNL     1       5.216   0.451   0.342  0.00  0.00    +0.023 A 
ATOM     16  C   UNL     1       6.298  -0.405   0.271  0.00  0.00    +0.003 A 
ATOM     17  C   UNL     1       6.726  -0.881  -0.954  0.00  0.00    +0.020 A 
ATOM     18  C   UNL     1       6.069  -0.505  -2.113  0.00  0.00    +0.046 A 
ATOM     19 CL   UNL     1       6.610  -1.106  -3.650  0.00  0.00    -0.083 Cl
ENDBRANCH   1  14
BRANCH   7  20
ATOM     20  C   UNL     1      -1.042   2.865   2.310  0.00  0.00    -0.020 A 
ATOM     21  C   UNL     1       0.005   2.065   2.727  0.00  0.00    +0.006 A 
ATOM     22  C   UNL     1       0.142   1.748   4.065  0.00  0.00    +0.000 A 
ATOM     23  C   UNL     1      -0.773   2.223   4.986  0.00  0.00    +0.001 A 
ATOM     24  C   UNL     1      -1.823   3.019   4.570  0.00  0.00    +0.020 A 
ATOM     25  C   UNL     1      -1.958   3.341   3.231  0.00  0.00    +0.045 A 
ATOM     26 CL   UNL     1      -3.278   4.340   2.708  0.00  0.00    -0.083 Cl
ENDBRANCH   7  20
BRANCH   8  27
ATOM     27  C   UNL     1       0.040   5.390   0.368  0.00  0.00    +0.098 C 
ATOM     28  N   UNL     1       0.043   6.526   0.355  0.00  0.00    -0.191 NA
ENDBRANCH   8  27
TORSDOF 3
