REMARK  Name = ZINC05946938
REMARK  13 active torsions:
REMARK  status: ('A' for Active; 'I' for Inactive)
REMARK    1  A    between atoms: C_1  and  C_2
REMARK    2  A    between atoms: C_2  and  N_63
REMARK    3  A    between atoms: C_3  and  C_4
REMARK    4  A    between atoms: C_3  and  N_63
REMARK    5  A    between atoms: C_5  and  C_6
REMARK    6  A    between atoms: C_5  and  N_63
REMARK    7  A    between atoms: C_6  and  C_7
REMARK    8  A    between atoms: C_7  and  C_8
REMARK    9  A    between atoms: C_8  and  C_10
REMARK   10  A    between atoms: C_8  and  N_11
REMARK   11  A    between atoms: C_15  and  N_33
REMARK   12  A    between atoms: C_20  and  C_22
REMARK   13  A    between atoms: C_23  and  C_24
REMARK                            x       y       z     vdW  Elec       q    Type
REMARK                         _______ _______ _______ _____ _____    ______ ____
ROOT
ATOM      1  N   UNL     1      -1.175  -0.768  -0.006  0.00  0.00    -0.326 N 
ATOM      2  C   UNL     1       0.007  -0.058  -0.023  0.00  0.00    +0.131 A 
ATOM      3  C   UNL     1       1.300  -0.741  -0.051  0.00  0.00    +0.042 A 
ATOM      4  C   UNL     1       1.403  -2.134  -0.063  0.00  0.00    +0.036 A 
ATOM      5  C   UNL     1       2.654  -2.719  -0.090  0.00  0.00    +0.025 A 
ATOM      6  C   UNL     1       3.808  -1.930  -0.105  0.00  0.00    +0.025 A 
ATOM      7  C   UNL     1       3.729  -0.570  -0.094  0.00  0.00    +0.030 A 
ATOM      8  C   UNL     1       2.473   0.054  -0.067  0.00  0.00    +0.077 A 
ATOM      9  N   UNL     1       2.345   1.388  -0.055  0.00  0.00    -0.228 NA
ATOM     10  C   UNL     1       1.153   1.957  -0.030  0.00  0.00    +0.155 A 
ATOM     11  N   UNL     1       0.011   1.267  -0.014  0.00  0.00    -0.213 NA
ATOM     12  H   UNL     1      -1.158  -1.738  -0.013  0.00  0.00    +0.148 HD
ENDROOT
BRANCH   5  13
ATOM     13  N   UNL     1       2.767  -4.112  -0.102  0.00  0.00    -0.358 N 
ATOM     14  H   UNL     1       3.643  -4.527  -0.120  0.00  0.00    +0.142 HD
ATOM     15  H   UNL     1       1.969  -4.663  -0.091  0.00  0.00    +0.142 HD
ENDBRANCH   5  13
BRANCH   1  16
ATOM     16  C   UNL     1      -2.456  -0.058   0.022  0.00  0.00    +0.069 C 
ATOM     17  C   UNL     1      -2.868   0.309  -1.405  0.00  0.00    +0.028 C 
BRANCH  16  18
ATOM     18  C   UNL     1      -3.525  -0.959   0.645  0.00  0.00    +0.020 C 
BRANCH  18  19
ATOM     19  C   UNL     1      -3.177  -1.224   2.111  0.00  0.00    -0.017 C 
BRANCH  19  20
ATOM     20  C   UNL     1      -4.245  -2.125   2.734  0.00  0.00    -0.079 C 
BRANCH  20  21
ATOM     21  N   UNL     1      -3.821  -2.486   4.103  0.00  0.00    +0.379 N 
ATOM     22  H   UNL     1      -2.817  -2.703   4.095  0.00  0.00    -0.082 HD
BRANCH  21  24
ATOM     23  C   UNL     1      -3.411  -1.667   6.371  0.00  0.00    -0.017 C 
ATOM     24  C   UNL     1      -4.059  -1.353   5.021  0.00  0.00    -0.082 C 
ENDBRANCH  21  24
BRANCH  21  25
ATOM     25  C   UNL     1      -4.566  -3.676   4.565  0.00  0.00    -0.082 C 
ATOM     26  C   UNL     1      -3.963  -4.918   3.906  0.00  0.00    -0.017 C 
ENDBRANCH  21  25
ENDBRANCH  20  21
ENDBRANCH  19  20
ENDBRANCH  18  19
ENDBRANCH  16  18
ENDBRANCH   1  16
BRANCH  10  27
ATOM     27  C   UNL     1       1.081   3.426  -0.019  0.00  0.00    +0.049 C 
ATOM     28  C   UNL     1       2.212   4.154  -0.034  0.00  0.00    +0.014 C 
BRANCH  28  29
ATOM     29  C   UNL     1       2.140   5.625  -0.023  0.00  0.00    +0.012 A 
ATOM     30  C   UNL     1       1.317   6.296  -0.934  0.00  0.00    +0.051 A 
ATOM     31  C   UNL     1       1.250   7.674  -0.914  0.00  0.00    +0.040 A 
ATOM     32  C   UNL     1       2.005   8.394  -0.002  0.00  0.00    +0.044 A 
ATOM     33  C   UNL     1       2.826   7.737   0.899  0.00  0.00    +0.040 A 
ATOM     34  C   UNL     1       2.898   6.359   0.895  0.00  0.00    +0.051 A 
ATOM     35 CL   UNL     1       3.929   5.539   2.026  0.00  0.00    -0.083 Cl
ATOM     36 CL   UNL     1       1.920  10.128   0.011  0.00  0.00    -0.083 Cl
ATOM     37 CL   UNL     1       0.377   5.396  -2.083  0.00  0.00    -0.083 Cl
ENDBRANCH  28  29
ENDBRANCH  10  27
TORSDOF 10
