REMARK  Name = ZINC12112958
REMARK  4 active torsions:
REMARK  status: ('A' for Active; 'I' for Inactive)
REMARK    1  A    between atoms: C_1  and  C_2
REMARK    2  A    between atoms: C_5  and  N_8
REMARK    3  A    between atoms: N_8  and  C_9
REMARK    4  A    between atoms: N_13  and  C_17
REMARK                            x       y       z     vdW  Elec       q    Type
REMARK                         _______ _______ _______ _____ _____    ______ ____
ROOT
ATOM      1  C   UNL     1       1.031   1.271  -0.193  0.00  0.00    +0.226 C 
ATOM      2  C   UNL     1       2.077   0.712   0.761  0.00  0.00    +0.258 C 
ATOM      3  O   UNL     1       1.781   0.213   1.826  0.00  0.00    -0.272 OA
ATOM      4  N   UNL     1       3.330   0.810   0.350  0.00  0.00    -0.199 N 
ATOM      5  C   UNL     1       3.681   1.361  -0.826  0.00  0.00    +0.287 C 
ATOM      6  O   UNL     1       4.798   1.494  -1.288  0.00  0.00    -0.262 OA
ATOM      7  S   UNL     1       2.124   1.849  -1.552  0.00  0.00    -0.035 S 
ENDROOT
BRANCH   4   8
ATOM      8  C   UNL     1       4.344   0.315   1.183  0.00  0.00    +0.045 A 
ATOM      9  C   UNL     1       4.826   1.091   2.228  0.00  0.00    +0.027 A 
ATOM     10  C   UNL     1       5.822   0.599   3.050  0.00  0.00    +0.040 A 
ATOM     11  C   UNL     1       6.346  -0.662   2.825  0.00  0.00    +0.124 A 
ATOM     12  C   UNL     1       5.870  -1.436   1.780  0.00  0.00    +0.040 A 
ATOM     13  C   UNL     1       4.871  -0.950   0.960  0.00  0.00    +0.027 A 
ATOM     14  F   UNL     1       7.324  -1.139   3.627  0.00  0.00    -0.205 F 
ENDBRANCH   4   8
BRANCH   1  15
ATOM     15  N   UNL     1       0.117   0.223  -0.654  0.00  0.00    -0.325 N 
ATOM     16  H   UNL     1       0.463  -0.648  -0.902  0.00  0.00    +0.148 HD
BRANCH  15  21
ATOM     17  C   UNL     1      -5.445   1.272  -1.011  0.00  0.00    +0.044 C 
ATOM     18  C   UNL     1      -3.967   0.993  -0.916  0.00  0.00    -0.050 A 
ATOM     19  C   UNL     1      -3.484  -0.271  -1.201  0.00  0.00    +0.005 A 
ATOM     20  C   UNL     1      -2.130  -0.529  -1.115  0.00  0.00    +0.023 A 
ATOM     21  C   UNL     1      -1.253   0.482  -0.742  0.00  0.00    +0.028 A 
ATOM     22  C   UNL     1      -1.743   1.749  -0.451  0.00  0.00    +0.023 A 
ATOM     23  C   UNL     1      -3.098   2.002  -0.544  0.00  0.00    +0.005 A 
ENDBRANCH  15  21
ENDBRANCH   1  15
TORSDOF 3
