REMARK  Name = ZINC04237250
REMARK  3 active torsions:
REMARK  status: ('A' for Active; 'I' for Inactive)
REMARK    1  A    between atoms: C_6  and  C_7
REMARK    2  A    between atoms: C_8  and  C_9
REMARK    3  A    between atoms: C_25  and  C_27
REMARK                            x       y       z     vdW  Elec       q    Type
REMARK                         _______ _______ _______ _____ _____    ______ ____
ROOT
ATOM      1  C   UNL     1      -1.453   2.195  -0.006  0.00  0.00    +0.040 A 
ATOM      2  C   UNL     1      -1.480   3.570  -0.215  0.00  0.00    +0.015 A 
ATOM      3  C   UNL     1      -2.717   4.208  -0.293  0.00  0.00    +0.022 A 
ATOM      4  C   UNL     1      -3.876   3.507  -0.148  0.00  0.00    +0.027 A 
ATOM      5  N   UNL     1      -3.856   2.185   0.141  0.00  0.00    -0.311 N 
ATOM      6  C   UNL     1      -2.681   1.509   0.156  0.00  0.00    +0.259 A 
ATOM      7  O   UNL     1      -2.682   0.299   0.310  0.00  0.00    -0.267 OA
ATOM      8  C   UNL     1      -5.057   1.423   0.486  0.00  0.00    +0.130 C 
ATOM      9  C   UNL     1      -6.331   2.106   0.023  0.00  0.00    +0.027 C 
ATOM     10  C   UNL     1      -6.300   3.584   0.413  0.00  0.00    +0.018 C 
ATOM     11  C   UNL     1      -5.168   4.263  -0.361  0.00  0.00    +0.054 C 
ATOM     12  C   UNL     1      -5.503   4.201  -1.861  0.00  0.00    +0.117 C 
ATOM     13  N   UNL     1      -5.621   2.780  -2.226  0.00  0.00    -0.300 N 
ATOM     14  C   UNL     1      -6.558   1.938  -1.473  0.00  0.00    +0.113 C 
ATOM     15  C   UNL     1      -4.885   2.263  -3.230  0.00  0.00    +0.219 C 
ATOM     16  O   UNL     1      -5.065   1.118  -3.587  0.00  0.00    -0.275 OA
ENDROOT
BRANCH  15  17
ATOM     17  C   UNL     1      -3.838   3.108  -3.909  0.00  0.00    +0.075 C 
ATOM     18  C   UNL     1      -4.439   3.760  -5.156  0.00  0.00    +0.013 C 
ATOM     19  C   UNL     1      -3.375   4.618  -5.845  0.00  0.00    +0.001 C 
ATOM     20  C   UNL     1      -2.193   3.736  -6.250  0.00  0.00    +0.000 C 
ATOM     21  C   UNL     1      -1.592   3.084  -5.003  0.00  0.00    +0.001 C 
ATOM     22  C   UNL     1      -2.655   2.226  -4.314  0.00  0.00    +0.013 C 
ENDBRANCH  15  17
BRANCH   1  24
ATOM     23  C   UNL     1      -0.167   0.128   0.142  0.00  0.00    +0.008 C 
ATOM     24  C   UNL     1      -0.175   1.470   0.052  0.00  0.00    +0.014 C 
BRANCH  23  30
ATOM     25  C   UNL     1       2.312   0.088  -0.081  0.00  0.00    +0.009 A 
ATOM     26  C   UNL     1       3.502  -0.606  -0.134  0.00  0.00    +0.020 A 
ATOM     27  C   UNL     1       3.507  -1.987  -0.042  0.00  0.00    +0.041 A 
ATOM     28  C   UNL     1       2.318  -2.682   0.111  0.00  0.00    +0.020 A 
ATOM     29  C   UNL     1       1.121  -2.001   0.171  0.00  0.00    +0.009 A 
ATOM     30  C   UNL     1       1.109  -0.606   0.078  0.00  0.00    -0.025 A 
ATOM     31 CL   UNL     1       5.010  -2.853  -0.116  0.00  0.00    -0.084 Cl
ENDBRANCH  23  30
ENDBRANCH   1  24
TORSDOF 3
