REMARK  Name = ZINC01623004
REMARK  5 active torsions:
REMARK  status: ('A' for Active; 'I' for Inactive)
REMARK    1  A    between atoms: C_1  and  C_2
REMARK    2  A    between atoms: C_3  and  C_4
REMARK    3  A    between atoms: C_3  and  C_5
REMARK    4  A    between atoms: C_15  and  C_17
REMARK    5  A    between atoms: C_18  and  C_27
REMARK                            x       y       z     vdW  Elec       q    Type
REMARK                         _______ _______ _______ _____ _____    ______ ____
ROOT
ATOM      1  C   UNL     1       3.835   5.055   2.365  0.00  0.00    +0.247 C 
ATOM      2  O   UNL     1       4.713   5.318   3.164  0.00  0.00    -0.270 OA
ATOM      3  N   UNL     1       4.053   5.218   1.045  0.00  0.00    -0.260 N 
ATOM      4  C   UNL     1       5.242   5.689   0.482  0.00  0.00    +0.040 A 
ATOM      5  C   UNL     1       6.425   6.083   1.113  0.00  0.00    +0.024 A 
ATOM      6  C   UNL     1       7.496   6.524   0.366  0.00  0.00    +0.002 A 
ATOM      7  C   UNL     1       7.409   6.580  -1.013  0.00  0.00    +0.000 A 
ATOM      8  C   UNL     1       6.242   6.191  -1.644  0.00  0.00    +0.005 A 
ATOM      9  C   UNL     1       5.165   5.749  -0.900  0.00  0.00    -0.024 A 
ATOM     10  C   UNL     1       3.794   5.274  -1.326  0.00  0.00    +0.064 C 
ATOM     11  C   UNL     1       3.078   4.928  -0.010  0.00  0.00    +0.118 C 
ENDROOT
BRANCH  11  12
ATOM     12  C   UNL     1       2.702   3.469   0.013  0.00  0.00    +0.002 A 
ATOM     13  C   UNL     1       3.509   2.441   0.317  0.00  0.00    +0.019 A 
ATOM     14  N   UNL     1       2.817   1.263   0.232  0.00  0.00    -0.358 N 
ATOM     15  H   UNL     1       3.190   0.385   0.407  0.00  0.00    +0.166 HD
ATOM     16  C   UNL     1       1.515   1.511  -0.138  0.00  0.00    +0.047 A 
ATOM     17  C   UNL     1       1.385   2.904  -0.291  0.00  0.00    +0.005 A 
ATOM     18  C   UNL     1       0.157   3.452  -0.666  0.00  0.00    +0.010 A 
ATOM     19  C   UNL     1      -0.914   2.631  -0.883  0.00  0.00    +0.001 A 
ATOM     20  C   UNL     1      -0.790   1.257  -0.739  0.00  0.00    +0.002 A 
ATOM     21  C   UNL     1       0.411   0.695  -0.364  0.00  0.00    +0.026 A 
ATOM     22  C   UNL     1       4.963   2.565   0.696  0.00  0.00    +0.063 C 
ENDBRANCH  11  12
BRANCH   1  25
ATOM     23  C   UNL     1       3.326   4.939   5.136  0.00  0.00    +0.035 C 
ATOM     24  C   UNL     1       2.280   4.499   4.144  0.00  0.00    -0.022 C 
ATOM     25  C   UNL     1       2.534   4.559   2.839  0.00  0.00    +0.008 C 
ATOM     26  C   UNL     1       1.488   4.118   1.847  0.00  0.00    +0.049 C 
ENDBRANCH   1  25
TORSDOF 2
