REMARK  Name = ZINC13550309
REMARK  4 active torsions:
REMARK  status: ('A' for Active; 'I' for Inactive)
REMARK    1  A    between atoms: C_4  and  C_7
REMARK    2  A    between atoms: C_7  and  N_8
REMARK    3  A    between atoms: N_16  and  N_17
REMARK    4  A    between atoms: N_20  and  C_21
REMARK                            x       y       z     vdW  Elec       q    Type
REMARK                         _______ _______ _______ _____ _____    ______ ____
ROOT
ATOM      1  N   UNL     1       3.738  -0.600   1.656  0.00  0.00    -0.261 N 
ATOM      2  C   UNL     1       4.562   0.230   2.409  0.00  0.00    +0.046 A 
ATOM      3  C   UNL     1       5.014   1.527   2.192  0.00  0.00    +0.025 A 
ATOM      4  C   UNL     1       5.841   2.136   3.113  0.00  0.00    +0.017 A 
ATOM      5  C   UNL     1       6.230   1.468   4.262  0.00  0.00    +0.019 A 
ATOM      6  C   UNL     1       5.791   0.179   4.495  0.00  0.00    +0.027 A 
ATOM      7  C   UNL     1       4.958  -0.443   3.572  0.00  0.00    +0.029 A 
ATOM      8  C   UNL     1       4.324  -1.781   3.517  0.00  0.00    +0.153 C 
ATOM      9  N   UNL     1       4.420  -2.746   4.399  0.00  0.00    -0.173 NA
ATOM     10  C   UNL     1       3.558  -1.789   2.256  0.00  0.00    +0.272 C 
ATOM     11  O   UNL     1       2.883  -2.709   1.833  0.00  0.00    -0.268 OA
ATOM     12 BR   UNL     1       7.365   2.320   5.513  0.00  0.00    -0.050 Br
ENDROOT
BRANCH   9  13
ATOM     13  N   UNL     1       5.310  -2.627   5.475  0.00  0.00    -0.190 N 
ATOM     14  C   UNL     1       5.327  -3.564   6.443  0.00  0.00    +0.323 C 
ATOM     15  O   UNL     1       6.099  -3.461   7.376  0.00  0.00    -0.251 OA
ATOM     16  N   UNL     1       4.487  -4.616   6.377  0.00  0.00    -0.268 N 
ATOM     17  H   UNL     1       5.915  -1.870   5.522  0.00  0.00    +0.179 HD
ATOM     18  H   UNL     1       3.925  -4.740   5.596  0.00  0.00    +0.156 HD
BRANCH  16  19
ATOM     19  C   UNL     1       4.424  -5.529   7.436  0.00  0.00    +0.035 A 
ATOM     20  C   UNL     1       4.197  -6.875   7.181  0.00  0.00    +0.023 A 
ATOM     21  C   UNL     1       4.137  -7.774   8.228  0.00  0.00    +0.002 A 
ATOM     22  C   UNL     1       4.302  -7.334   9.529  0.00  0.00    +0.000 A 
ATOM     23  C   UNL     1       4.528  -5.994   9.786  0.00  0.00    +0.002 A 
ATOM     24  C   UNL     1       4.595  -5.091   8.743  0.00  0.00    +0.023 A 
ENDBRANCH  16  19
ENDBRANCH   9  13
BRANCH   1  25
ATOM     25  C   UNL     1       3.138  -0.223   0.373  0.00  0.00    +0.149 C 
BRANCH  25  29
ATOM     26  C   UNL     1      -0.660   1.607   1.059  0.00  0.00    +0.000 A 
ATOM     27  C   UNL     1       0.483   2.382   1.017  0.00  0.00    +0.000 A 
ATOM     28  C   UNL     1       1.712   1.790   0.795  0.00  0.00    +0.005 A 
ATOM     29  C   UNL     1       1.798   0.422   0.616  0.00  0.00    -0.030 A 
ATOM     30  C   UNL     1       0.655  -0.354   0.659  0.00  0.00    +0.005 A 
ATOM     31  C   UNL     1      -0.575   0.238   0.880  0.00  0.00    +0.000 A 
ENDBRANCH  25  29
ENDBRANCH   1  25
TORSDOF 4
