REMARK  Name = ZINC57854906
REMARK  7 active torsions:
REMARK  status: ('A' for Active; 'I' for Inactive)
REMARK    1  A    between atoms: C_1  and  C_2
REMARK    2  A    between atoms: N_5  and  C_8
REMARK    3  A    between atoms: C_8  and  C_10
REMARK    4  A    between atoms: C_8  and  C_24
REMARK    5  A    between atoms: C_10  and  N_11
REMARK    6  A    between atoms: N_14  and  N_15
REMARK    7  A    between atoms: C_16  and  C_18
REMARK                            x       y       z     vdW  Elec       q    Type
REMARK                         _______ _______ _______ _____ _____    ______ ____
ROOT
ATOM      1  C   UNL     1       2.358  -4.349  -1.341  0.00  0.00    +0.095 C 
ENDROOT
BRANCH   1   2
ATOM      2  N   UNL     1       2.290  -5.808  -1.457  0.00  0.00    -0.299 N 
ATOM      3  C   UNL     1       2.895  -6.431  -2.488  0.00  0.00    +0.316 C 
ATOM      4  O   UNL     1       3.497  -5.782  -3.322  0.00  0.00    -0.251 OA
ATOM      5  N   UNL     1       2.833  -7.773  -2.595  0.00  0.00    -0.218 N 
ATOM      6  H   UNL     1       1.810  -6.325  -0.792  0.00  0.00    +0.150 HD
ATOM      7  H   UNL     1       3.268  -8.221  -3.336  0.00  0.00    +0.174 HD
BRANCH   5   8
ATOM      8  N   UNL     1       2.139  -8.520  -1.634  0.00  0.00    -0.231 N 
ATOM      9  C   UNL     1       2.077  -9.862  -1.740  0.00  0.00    +0.258 C 
ATOM     10  O   UNL     1       2.621 -10.423  -2.668  0.00  0.00    -0.271 OA
ATOM     11  H   UNL     1       1.704  -8.072  -0.892  0.00  0.00    +0.173 HD
BRANCH   9  12
ATOM     12  C   UNL     1       1.331 -10.666  -0.707  0.00  0.00    +0.205 C 
ATOM     13  C   UNL     1      -0.186 -10.354  -0.775  0.00  0.00    +0.043 C 
ATOM     14  C   UNL     1      -0.782 -11.656  -0.173  0.00  0.00    +0.031 C 
ATOM     15  C   UNL     1       0.209 -12.731  -0.671  0.00  0.00    +0.161 C 
ATOM     16  O   UNL     1       1.440 -12.070  -0.993  0.00  0.00    -0.367 OA
ENDBRANCH   9  12
ENDBRANCH   5   8
ENDBRANCH   1   2
BRANCH   1  17
ATOM     17  C   UNL     1       1.713  -3.911  -0.025  0.00  0.00    -0.020 C 
BRANCH  17  22
ATOM     18  C   UNL     1       0.553   1.656   0.397  0.00  0.00    +0.007 C 
ATOM     19  C   UNL     1       0.420   0.134   0.326  0.00  0.00    -0.018 C 
ATOM     20  C   UNL     1       0.976  -0.366  -1.011  0.00  0.00    -0.015 C 
ATOM     21  C   UNL     1       0.913  -1.895  -1.044  0.00  0.00    -0.078 C 
ATOM     22  N   UNL     1       1.713  -2.445   0.057  0.00  0.00    +0.385 N 
ATOM     23  C   UNL     1       1.144  -2.028   1.344  0.00  0.00    -0.078 C 
ATOM     24  C   UNL     1       1.216  -0.504   1.468  0.00  0.00    -0.015 C 
ATOM     25  H   UNL     1       2.661  -2.106  -0.016  0.00  0.00    -0.081 HD
ENDBRANCH  17  22
BRANCH  17  26
ATOM     26  C   UNL     1       2.497  -4.479   1.131  0.00  0.00    -0.059 A 
ATOM     27  C   UNL     1       3.663  -3.863   1.544  0.00  0.00    +0.002 A 
ATOM     28  C   UNL     1       4.382  -4.383   2.604  0.00  0.00    +0.000 A 
ATOM     29  C   UNL     1       3.934  -5.519   3.252  0.00  0.00    +0.000 A 
ATOM     30  C   UNL     1       2.766  -6.135   2.840  0.00  0.00    +0.000 A 
ATOM     31  C   UNL     1       2.046  -5.612   1.782  0.00  0.00    +0.002 A 
ENDBRANCH  17  26
ENDBRANCH   1  17
TORSDOF 6
