REMARK  Name = ZINC27431248
REMARK  6 active torsions:
REMARK  status: ('A' for Active; 'I' for Inactive)
REMARK    1  A    between atoms: C_3  and  C_27
REMARK    2  A    between atoms: C_6  and  C_7
REMARK    3  A    between atoms: C_8  and  C_9
REMARK    4  A    between atoms: C_13  and  C_18
REMARK    5  A    between atoms: N_19  and  N_20
REMARK    6  A    between atoms: N_28  and  N_29
REMARK                            x       y       z     vdW  Elec       q    Type
REMARK                         _______ _______ _______ _____ _____    ______ ____
ROOT
ATOM      1  C   UNL     1      -1.262  -0.757   0.010  0.00  0.00    +0.010 C 
ATOM      2  C   UNL     1      -1.244  -2.101   0.003  0.00  0.00    +0.030 C 
ENDROOT
BRANCH   2   3
ATOM      3  C   UNL     1      -2.510  -2.855   0.011  0.00  0.00    +0.083 A 
ATOM      4  C   UNL     1      -2.632  -4.216   0.010  0.00  0.00    +0.120 A 
ATOM      5  N   UNL     1      -3.970  -4.497   0.020  0.00  0.00    -0.305 N 
ATOM      6  C   UNL     1      -4.656  -5.676   0.024  0.00  0.00    +0.102 A 
ATOM      7  C   UNL     1      -6.032  -5.679   0.034  0.00  0.00    +0.011 A 
ATOM      8  C   UNL     1      -6.739  -4.450   0.041  0.00  0.00    +0.014 A 
ATOM      9  C   UNL     1      -6.051  -3.281   0.037  0.00  0.00    +0.047 A 
ATOM     10  C   UNL     1      -4.639  -3.300   0.026  0.00  0.00    +0.138 A 
ATOM     11  N   UNL     1      -3.745  -2.323   0.026  0.00  0.00    -0.228 NA
BRANCH   7  12
ATOM     12  C   UNL     1      -6.768  -6.954   0.038  0.00  0.00    +0.144 C 
ATOM     13  N   UNL     1      -8.072  -6.954   0.048  0.00  0.00    -0.154 NA
BRANCH  13  14
ATOM     14  N   UNL     1      -8.773  -8.168   0.052  0.00  0.00    -0.116 NA
ATOM     15  C   UNL     1     -10.089  -8.168   0.062  0.00  0.00    +0.220 C 
ATOM     16  N   UNL     1     -10.818  -6.992   0.063  0.00  0.00    -0.314 N 
ATOM     17  C   UNL     1     -11.983  -6.917   0.959  0.00  0.00    +0.106 C 
ATOM     18  C   UNL     1     -12.845  -8.167   0.748  0.00  0.00    +0.039 C 
ATOM     19  C   UNL     1     -11.982  -9.415   0.967  0.00  0.00    +0.132 C 
ATOM     20  N   UNL     1     -10.817  -9.345   0.065  0.00  0.00    -0.218 NA
ATOM     21  H   UNL     1     -10.570  -6.245  -0.504  0.00  0.00    +0.149 HD
ENDBRANCH  13  14
ENDBRANCH   7  12
ENDBRANCH   2   3
BRANCH   1  27
ATOM     22  C   UNL     1      -0.017   1.396   0.010  0.00  0.00    +0.008 A 
ATOM     23  C   UNL     1       1.156   2.094   0.002  0.00  0.00    +0.010 A 
ATOM     24  C   UNL     1       2.378   1.411  -0.013  0.00  0.00    -0.005 A 
ATOM     25  C   UNL     1       2.397   0.010  -0.021  0.00  0.00    +0.010 A 
ATOM     26  C   UNL     1       1.224  -0.688  -0.013  0.00  0.00    +0.008 A 
ATOM     27  C   UNL     1       0.002  -0.004   0.002  0.00  0.00    -0.025 A 
BRANCH  24  28
ATOM     28  C   UNL     1       3.640   2.162  -0.022  0.00  0.00    +0.143 C 
ATOM     29  N   UNL     1       4.780   1.524  -0.036  0.00  0.00    -0.154 NA
BRANCH  29  30
ATOM     30  N   UNL     1       5.888   2.184  -0.043  0.00  0.00    -0.118 NA
ATOM     31  C   UNL     1       7.039   1.541  -0.058  0.00  0.00    +0.201 C 
ATOM     32  N   UNL     1       7.099   0.159  -0.071  0.00  0.00    -0.316 N 
ATOM     33  C   UNL     1       8.079  -0.468  -0.973  0.00  0.00    +0.105 C 
ATOM     34  C   UNL     1       9.442   0.200  -0.757  0.00  0.00    +0.037 C 
ATOM     35  C   UNL     1       9.299   1.712  -0.962  0.00  0.00    +0.105 C 
ATOM     36  N   UNL     1       8.248   2.212  -0.066  0.00  0.00    -0.316 N 
ATOM     37  H   UNL     1       8.399   2.985   0.500  0.00  0.00    +0.149 HD
ATOM     38  H   UNL     1       6.519  -0.376   0.492  0.00  0.00    +0.149 HD
ENDBRANCH  29  30
ENDBRANCH  24  28
ENDBRANCH   1  27
TORSDOF 6
