REMARK  Name = ZINC33513768
REMARK  7 active torsions:
REMARK  status: ('A' for Active; 'I' for Inactive)
REMARK    1  A    between atoms: C_1  and  C_2
REMARK    2  A    between atoms: N_5  and  C_8
REMARK    3  A    between atoms: C_8  and  C_10
REMARK    4  A    between atoms: C_8  and  C_18
REMARK    5  A    between atoms: C_13  and  O_16
REMARK    6  A    between atoms: O_16  and  C_17
REMARK    7  A    between atoms: C_26  and  C_27
REMARK                            x       y       z     vdW  Elec       q    Type
REMARK                         _______ _______ _______ _____ _____    ______ ____
ROOT
ATOM      1  C   UNL     1       3.037   4.977   0.587  0.00  0.00    -0.004 C 
ENDROOT
BRANCH   1   2
ATOM      2  C   UNL     1       2.344   3.674   0.286  0.00  0.00    -0.020 A 
ATOM      3  C   UNL     1       0.900   3.454   0.207  0.00  0.00    +0.006 A 
ATOM      4  C   UNL     1      -0.215   4.282   0.365  0.00  0.00    +0.010 A 
ATOM      5  C   UNL     1      -1.470   3.762   0.224  0.00  0.00    +0.001 A 
ATOM      6  C   UNL     1      -1.648   2.419  -0.080  0.00  0.00    +0.002 A 
ATOM      7  C   UNL     1      -0.564   1.584  -0.235  0.00  0.00    +0.030 A 
ATOM      8  C   UNL     1       0.725   2.090  -0.096  0.00  0.00    +0.093 A 
ATOM      9  N   UNL     1       1.977   1.525  -0.194  0.00  0.00    -0.131 N 
ATOM     10  C   UNL     1       2.939   2.481   0.036  0.00  0.00    +0.095 A 
ATOM     11  O   UNL     1       2.235   0.164  -0.488  0.00  0.00    -0.163 OA
BRANCH  10  12
ATOM     12  C   UNL     1       4.399   2.244   0.016  0.00  0.00    +0.002 A 
ATOM     13  C   UNL     1       5.220   3.002  -0.820  0.00  0.00    +0.010 A 
ATOM     14  C   UNL     1       6.582   2.780  -0.830  0.00  0.00    +0.001 A 
ATOM     15  C   UNL     1       7.132   1.802  -0.021  0.00  0.00    +0.000 A 
ATOM     16  C   UNL     1       6.323   1.043   0.806  0.00  0.00    +0.001 A 
ATOM     17  C   UNL     1       4.960   1.259   0.829  0.00  0.00    +0.010 A 
ENDBRANCH  10  12
ENDBRANCH   1   2
BRANCH   1  22
ATOM     18  C   UNL     1       1.202   7.414   5.420  0.00  0.00    +0.007 C 
ATOM     19  C   UNL     1       2.062   6.696   4.378  0.00  0.00    -0.018 C 
ATOM     20  C   UNL     1       2.269   7.609   3.167  0.00  0.00    -0.015 C 
ATOM     21  C   UNL     1       3.078   6.863   2.103  0.00  0.00    -0.077 C 
ATOM     22  N   UNL     1       2.359   5.646   1.704  0.00  0.00    +0.387 N 
ATOM     23  C   UNL     1       2.190   4.732   2.841  0.00  0.00    -0.077 C 
ATOM     24  C   UNL     1       1.355   5.415   3.927  0.00  0.00    -0.015 C 
ATOM     25  H   UNL     1       1.357   5.946   1.363  0.00  0.00    -0.080 HD
ENDBRANCH   1  22
BRANCH   1  26
ATOM     26  C   UNL     1       2.992   5.863  -0.632  0.00  0.00    -0.056 A 
ATOM     27  C   UNL     1       1.821   6.517  -0.966  0.00  0.00    +0.006 A 
ATOM     28  C   UNL     1       1.778   7.334  -2.079  0.00  0.00    +0.046 A 
ATOM     29  C   UNL     1       2.908   7.489  -2.869  0.00  0.00    +0.120 A 
ATOM     30  C   UNL     1       4.081   6.827  -2.534  0.00  0.00    +0.046 A 
ATOM     31  C   UNL     1       4.120   6.016  -1.417  0.00  0.00    +0.006 A 
BRANCH  29  32
ATOM     32  O   UNL     1       2.867   8.287  -3.968  0.00  0.00    -0.495 OA
ATOM     33  C   UNL     1       1.626   8.937  -4.251  0.00  0.00    +0.277 C 
ENDBRANCH  29  32
ENDBRANCH   1  26
TORSDOF 5
