REMARK  Name = ZINC53092402
REMARK  12 active torsions:
REMARK  status: ('A' for Active; 'I' for Inactive)
REMARK    1  A    between atoms: C_1  and  C_2
REMARK    2  A    between atoms: C_6  and  O_9
REMARK    3  A    between atoms: C_7  and  C_8
REMARK    4  A    between atoms: O_9  and  C_10
REMARK    5  A    between atoms: C_10  and  C_12
REMARK    6  A    between atoms: C_10  and  C_13
REMARK    7  A    between atoms: N_15  and  N_16
REMARK    8  A    between atoms: C_17  and  C_19
REMARK    9  A    between atoms: C_19  and  C_20
REMARK   10  A    between atoms: C_19  and  C_21
REMARK   11  A    between atoms: C_19  and  N_22
REMARK   12  A    between atoms: N_25  and  C_26
REMARK                            x       y       z     vdW  Elec       q    Type
REMARK                         _______ _______ _______ _____ _____    ______ ____
ROOT
ATOM      1  C   UNL     1       0.582  -4.814   3.503  0.00  0.00    +0.270 C 
ATOM      2  O   UNL     1       0.977  -4.104   4.403  0.00  0.00    -0.270 OA
ATOM      3  N   UNL     1       0.701  -6.153   3.599  0.00  0.00    -0.231 N 
ATOM      4  H   UNL     1       0.385  -6.721   2.879  0.00  0.00    +0.173 HD
ENDROOT
BRANCH   3   5
ATOM      5  N   UNL     1       1.280  -6.725   4.739  0.00  0.00    -0.233 N 
ATOM      6  C   UNL     1       1.399  -8.064   4.835  0.00  0.00    +0.252 C 
ATOM      7  O   UNL     1       1.004  -8.774   3.934  0.00  0.00    -0.272 OA
ATOM      8  H   UNL     1       1.597  -6.157   5.459  0.00  0.00    +0.173 HD
BRANCH   6   9
ATOM      9  C   UNL     1       2.023  -8.679   6.061  0.00  0.00    +0.108 C 
ATOM     10  C   UNL     1       0.959  -8.843   7.147  0.00  0.00    +0.041 C 
ATOM     11  C   UNL     1       2.604 -10.050   5.705  0.00  0.00    +0.041 C 
BRANCH   9  12
ATOM     12  N   UNL     1       3.094  -7.809   6.553  0.00  0.00    -0.286 N 
ATOM     13  C   UNL     1       3.797  -8.159   7.648  0.00  0.00    +0.300 C 
ATOM     14  O   UNL     1       3.543  -9.197   8.227  0.00  0.00    -0.253 OA
ATOM     15  N   UNL     1       4.782  -7.357   8.101  0.00  0.00    -0.302 N 
ATOM     16  C   UNL     1       5.546  -7.738   9.292  0.00  0.00    +0.129 C 
ATOM     17  H   UNL     1       3.296  -6.980   6.091  0.00  0.00    +0.151 HD
ATOM     18  H   UNL     1       4.984  -6.529   7.639  0.00  0.00    +0.150 HD
ENDBRANCH   9  12
ENDBRANCH   6   9
ENDBRANCH   3   5
BRANCH   1  19
ATOM     19  C   UNL     1      -0.043  -4.199   2.277  0.00  0.00    +0.257 C 
ATOM     20  C   UNL     1      -1.514  -4.611   2.192  0.00  0.00    +0.062 C 
BRANCH  19  21
ATOM     21  O   UNL     1       0.050  -2.776   2.358  0.00  0.00    -0.480 OA
BRANCH  21  27
ATOM     22  C   UNL     1       0.438   1.473  -0.013  0.00  0.00    +0.044 C 
ATOM     23  C   UNL     1       0.221  -0.018  -0.009  0.00  0.00    -0.044 A 
ATOM     24  C   UNL     1       0.006  -0.688  -1.200  0.00  0.00    +0.004 A 
ATOM     25  C   UNL     1      -0.194  -2.056  -1.200  0.00  0.00    +0.004 A 
ATOM     26  C   UNL     1      -0.179  -2.757  -0.009  0.00  0.00    +0.046 A 
ATOM     27  C   UNL     1       0.036  -2.088   1.186  0.00  0.00    +0.125 A 
ATOM     28  C   UNL     1       0.242  -0.716   1.183  0.00  0.00    -0.006 A 
ATOM     29  C   UNL     1       0.482   0.014   2.479  0.00  0.00    +0.048 C 
ENDBRANCH  21  27
ENDBRANCH  19  21
ENDBRANCH   1  19
TORSDOF 6
