REMARK  Name = ZINC20590227
REMARK  4 active torsions:
REMARK  status: ('A' for Active; 'I' for Inactive)
REMARK    1  A    between atoms: C_5  and  C_6
REMARK    2  A    between atoms: N_8  and  C_9
REMARK    3  A    between atoms: C_9  and  C_10
REMARK    4  A    between atoms: C_10  and  C_11
REMARK                            x       y       z     vdW  Elec       q    Type
REMARK                         _______ _______ _______ _____ _____    ______ ____
ROOT
ATOM      1  C   UNL     1      -2.940  -5.459   0.002  0.00  0.00    +0.217 C 
ATOM      2  O   UNL     1      -4.054  -4.980   0.015  0.00  0.00    -0.276 OA
ATOM      3  N   UNL     1      -2.781  -6.797  -0.007  0.00  0.00    -0.301 N 
ATOM      4  C   UNL     1      -1.438  -7.392  -0.017  0.00  0.00    +0.110 C 
ATOM      5  C   UNL     1      -1.329  -8.383   1.146  0.00  0.00    +0.047 C 
ATOM      6  C   UNL     1      -2.468  -9.398   1.057  0.00  0.00    +0.064 C 
ATOM      7  C   UNL     1      -3.813  -8.678   1.157  0.00  0.00    +0.047 C 
ATOM      8  C   UNL     1      -3.949  -7.690  -0.000  0.00  0.00    +0.110 C 
ATOM      9  C   UNL     1      -2.345 -10.399   2.177  0.00  0.00    +0.057 A 
ATOM     10  C   UNL     1      -2.507 -11.730   2.003  0.00  0.00    +0.039 A 
ATOM     11  N   UNL     1      -2.323 -12.319   3.213  0.00  0.00    -0.349 N 
ATOM     12  H   UNL     1      -2.374 -13.268   3.407  0.00  0.00    +0.166 HD
ATOM     13  C   UNL     1      -2.054 -11.329   4.097  0.00  0.00    +0.171 A 
ATOM     14  N   UNL     1      -2.070 -10.184   3.465  0.00  0.00    -0.348 N 
ATOM     15  C   UNL     1      -2.835 -12.360   0.674  0.00  0.00    +0.070 C 
ATOM     16  C   UNL     1      -3.326 -11.249  -0.266  0.00  0.00    +0.088 C 
ATOM     17  N   UNL     1      -2.389 -10.118  -0.224  0.00  0.00    -0.305 NA
ATOM     18  H   UNL     1      -2.542  -9.492  -1.000  0.00  0.00    +0.123 HD
ATOM     19  H   UNL     1      -1.909  -9.316   3.868  0.00  0.00    +0.166 HD
ENDROOT
BRANCH   1  20
ATOM     20  C   UNL     1      -1.733  -4.557  -0.005  0.00  0.00    +0.114 C 
BRANCH  20  21
ATOM     21  C   UNL     1      -2.187  -3.096   0.007  0.00  0.00    +0.114 C 
BRANCH  21  24
ATOM     22  C   UNL     1      -1.172  -0.881   0.009  0.00  0.00    +0.279 C 
ATOM     23  O   UNL     1      -2.290  -0.401   0.023  0.00  0.00    -0.267 OA
ATOM     24  N   UNL     1      -1.014  -2.220   0.000  0.00  0.00    -0.308 N 
ATOM     25  H   UNL     1      -0.122  -2.602  -0.011  0.00  0.00    +0.149 HD
BRANCH  22  30
ATOM     26  C   UNL     1      -0.016   1.362   0.009  0.00  0.00    +0.056 A 
ATOM     27  C   UNL     1       1.321   1.784  -0.001  0.00  0.00    +0.058 A 
ATOM     28  C   UNL     1       2.090   0.670  -0.014  0.00  0.00    +0.171 A 
ATOM     29  O   UNL     1       1.291  -0.405  -0.012  0.00  0.00    -0.444 OA
ATOM     30  C   UNL     1       0.002  -0.004   0.002  0.00  0.00    +0.191 A 
ATOM     31 BR   UNL     1       3.981   0.637  -0.033  0.00  0.00    -0.008 Br
ENDBRANCH  22  30
ENDBRANCH  21  24
ENDBRANCH  20  21
ENDBRANCH   1  20
TORSDOF 4
