REMARK  Name = ZINC00759183
REMARK  6 active torsions:
REMARK  status: ('A' for Active; 'I' for Inactive)
REMARK    1  A    between atoms: C_1  and  C_2
REMARK    2  A    between atoms: C_3  and  C_18
REMARK    3  A    between atoms: C_4  and  C_10
REMARK    4  A    between atoms: C_18  and  O_20
REMARK    5  A    between atoms: O_20  and  C_21
REMARK    6  A    between atoms: C_21  and  C_22
REMARK                            x       y       z     vdW  Elec       q    Type
REMARK                         _______ _______ _______ _____ _____    ______ ____
ROOT
ATOM      1  C   UNL     1       3.053   2.500   0.275  0.00  0.00    +0.061 C 
ATOM      2  C   UNL     1       2.057   1.375   0.164  0.00  0.00    +0.021 C 
ATOM      3  C   UNL     1       2.497   0.118  -0.061  0.00  0.00    +0.078 C 
ATOM      4  C   UNL     1       1.462  -0.984  -0.166  0.00  0.00    +0.144 C 
ATOM      5  N   UNL     1       0.051  -0.590  -0.013  0.00  0.00    -0.288 N 
ATOM      6  C   UNL     1      -0.232   0.709   0.208  0.00  0.00    +0.304 C 
ATOM      7  O   UNL     1      -1.394   1.045   0.330  0.00  0.00    -0.252 OA
ATOM      8  N   UNL     1       0.724   1.642   0.292  0.00  0.00    -0.273 N 
ATOM      9  H   UNL     1      -0.742  -1.349  -0.081  0.00  0.00    +0.151 HD
ATOM     10  H   UNL     1       0.385   2.673   0.475  0.00  0.00    +0.156 HD
ENDROOT
BRANCH   4  11
ATOM     11  C   UNL     1       1.773  -2.015   0.887  0.00  0.00    -0.021 A 
ATOM     12  C   UNL     1       1.379  -1.807   2.196  0.00  0.00    +0.007 A 
ATOM     13  C   UNL     1       1.660  -2.755   3.162  0.00  0.00    +0.022 A 
ATOM     14  C   UNL     1       2.344  -3.908   2.821  0.00  0.00    +0.059 A 
ATOM     15  C   UNL     1       2.743  -4.114   1.512  0.00  0.00    +0.060 A 
ATOM     16  C   UNL     1       2.457  -3.167   0.545  0.00  0.00    +0.027 A 
ATOM     17 CL   UNL     1       3.602  -5.561   1.083  0.00  0.00    -0.082 Cl
ATOM     18 CL   UNL     1       2.703  -5.096   4.035  0.00  0.00    -0.082 Cl
ENDBRANCH   4  11
BRANCH   3  19
ATOM     19  C   UNL     1       3.877  -0.160  -0.194  0.00  0.00    +0.339 C 
ATOM     20  O   UNL     1       4.365  -0.307  -1.300  0.00  0.00    -0.245 OA
BRANCH  19  21
ATOM     21  O   UNL     1       4.654  -0.264   0.904  0.00  0.00    -0.461 OA
BRANCH  21  22
ATOM     22  C   UNL     1       6.056  -0.440   0.693  0.00  0.00    +0.236 C 
BRANCH  22  23
ATOM     23  C   UNL     1       6.782  -0.416   2.040  0.00  0.00    +0.027 C 
ATOM     24  C   UNL     1       6.635   0.968   2.675  0.00  0.00    +0.007 C 
ATOM     25  C   UNL     1       7.360   0.991   4.022  0.00  0.00    +0.000 C 
ATOM     26  C   UNL     1       8.843   0.683   3.808  0.00  0.00    +0.000 C 
ATOM     27  C   UNL     1       8.990  -0.701   3.173  0.00  0.00    +0.000 C 
ATOM     28  C   UNL     1       8.265  -0.725   1.826  0.00  0.00    +0.007 C 
ENDBRANCH  22  23
ENDBRANCH  21  22
ENDBRANCH  19  21
ENDBRANCH   3  19
TORSDOF 5
