REMARK  Name = ZINC61856573
REMARK  4 active torsions:
REMARK  status: ('A' for Active; 'I' for Inactive)
REMARK    1  A    between atoms: C_1  and  N_2
REMARK    2  A    between atoms: N_2  and  C_3
REMARK    3  A    between atoms: N_2  and  C_13
REMARK    4  A    between atoms: C_6  and  C_10
REMARK                            x       y       z     vdW  Elec       q    Type
REMARK                         _______ _______ _______ _____ _____    ______ ____
ROOT
ATOM      1  C   UNL     1      -0.105  -0.509   1.247  0.00  0.00    +0.031 A 
ATOM      2  C   UNL     1      -0.089   0.341   2.350  0.00  0.00    +0.024 A 
ATOM      3  C   UNL     1      -0.142  -0.178   3.623  0.00  0.00    +0.014 A 
ATOM      4  C   UNL     1      -0.212  -1.561   3.810  0.00  0.00    +0.030 A 
ATOM      5  C   UNL     1      -0.229  -2.413   2.701  0.00  0.00    +0.053 A 
ATOM      6  C   UNL     1      -0.181  -1.886   1.428  0.00  0.00    +0.043 A 
ATOM      7 CL   UNL     1      -0.316  -4.132   2.927  0.00  0.00    -0.083 Cl
ENDROOT
BRANCH   4   8
ATOM      8  C   UNL     1      -0.269  -2.121   5.174  0.00  0.00    +0.096 C 
ATOM      9  N   UNL     1       0.636  -3.019   5.564  0.00  0.00    -0.387 N 
ATOM     10  N   UNL     1      -1.224  -1.729   6.017  0.00  0.00    -0.345 N 
ATOM     11  H   UNL     1       1.289  -3.356   4.931  0.00  0.00    +0.157 HD
ATOM     12  H   UNL     1      -1.882  -1.075   5.733  0.00  0.00    +0.144 HD
ATOM     13  H   UNL     1      -1.261  -2.097   6.913  0.00  0.00    +0.144 HD
ATOM     14  H   UNL     1       0.641  -3.336   6.481  0.00  0.00    +0.157 HD
ENDBRANCH   4   8
BRANCH   1  16
ATOM     15  C   UNL     1      -0.074   1.471  -0.235  0.00  0.00    +0.129 C 
ATOM     16  N   UNL     1      -0.051   0.020  -0.038  0.00  0.00    -0.328 N 
BRANCH  16  17
ATOM     17  C   UNL     1       0.030  -0.875  -1.196  0.00  0.00    +0.096 C 
ATOM     18  C   UNL     1       1.327  -0.600  -1.975  0.00  0.00    +0.046 C 
ATOM     19  C   UNL     1       1.272  -1.299  -3.354  0.00  0.00    +0.168 C 
ATOM     20  S   UNL     1      -0.532  -1.351  -3.710  0.00  0.00    -0.029 S 
ATOM     21  O   UNL     1      -0.950  -2.707  -3.786  0.00  0.00    -0.174 OA
ATOM     22  O   UNL     1      -0.816  -0.470  -4.788  0.00  0.00    -0.174 OA
ATOM     23  C   UNL     1      -1.171  -0.612  -2.148  0.00  0.00    +0.188 C 
ENDBRANCH  16  17
ENDBRANCH   1  16
TORSDOF 3
