REMARK  Name = ZINC63552506
REMARK  6 active torsions:
REMARK  status: ('A' for Active; 'I' for Inactive)
REMARK    1  A    between atoms: C_1  and  N_2
REMARK    2  A    between atoms: N_2  and  C_3
REMARK    3  A    between atoms: N_2  and  S_18
REMARK    4  A    between atoms: C_3  and  C_4
REMARK    5  A    between atoms: N_6  and  C_7
REMARK    6  A    between atoms: S_18  and  C_21
REMARK                            x       y       z     vdW  Elec       q    Type
REMARK                         _______ _______ _______ _____ _____    ______ ____
ROOT
ATOM      1  C   UNL     1      -0.018   1.461   0.010  0.00  0.00    +0.132 C 
ATOM      2  N   UNL     1       0.002  -0.004   0.002  0.00  0.00    -0.171 NA
ENDROOT
BRANCH   2   3
ATOM      3  S   UNL     1      -0.000  -0.824  -1.437  0.00  0.00    +0.061 S 
ATOM      4  O   UNL     1      -0.531  -2.115  -1.167  0.00  0.00    -0.153 OA
ATOM      5  O   UNL     1      -0.572   0.049  -2.401  0.00  0.00    -0.153 OA
BRANCH   3   6
ATOM      6  C   UNL     1       1.682  -1.059  -1.905  0.00  0.00    +0.106 A 
ATOM      7  C   UNL     1       2.321  -0.101  -2.680  0.00  0.00    +0.030 A 
ATOM      8  C   UNL     1       3.636  -0.264  -3.058  0.00  0.00    +0.028 A 
ATOM      9  C   UNL     1       4.332  -1.400  -2.660  0.00  0.00    +0.049 A 
ATOM     10  C   UNL     1       3.682  -2.369  -1.873  0.00  0.00    +0.000 A 
ATOM     11  C   UNL     1       2.348  -2.180  -1.498  0.00  0.00    +0.038 A 
ATOM     12  C   UNL     1       4.424  -3.562  -1.459  0.00  0.00    +0.015 A 
ATOM     13  C   UNL     1       5.716  -3.689  -1.849  0.00  0.00    +0.071 A 
ATOM     14  C   UNL     1       6.322  -2.687  -2.637  0.00  0.00    +0.249 A 
ATOM     15  O   UNL     1       7.485  -2.821  -2.977  0.00  0.00    -0.268 OA
ATOM     16  N   UNL     1       5.649  -1.589  -3.023  0.00  0.00    -0.322 N 
ATOM     17  H   UNL     1       6.096  -0.920  -3.565  0.00  0.00    +0.169 HD
ENDBRANCH   3   6
ENDBRANCH   2   3
BRANCH   2  18
ATOM     18  C   UNL     1       0.024  -0.743   1.267  0.00  0.00    +0.204 C 
BRANCH  18  19
ATOM     19  C   UNL     1      -1.384  -0.909   1.776  0.00  0.00    +0.231 C 
ATOM     20  O   UNL     1      -2.315  -0.455   1.145  0.00  0.00    -0.274 OA
ATOM     21  N   UNL     1      -1.610  -1.563   2.933  0.00  0.00    -0.287 N 
ATOM     22  H   UNL     1      -0.866  -1.926   3.438  0.00  0.00    +0.151 HD
BRANCH  21  23
ATOM     23  C   UNL     1      -2.979  -1.724   3.429  0.00  0.00    +0.224 C 
ATOM     24  N   UNL     1      -2.986  -2.211   4.815  0.00  0.00    -0.316 N 
ATOM     25  C   UNL     1      -3.579  -3.449   5.060  0.00  0.00    +0.043 A 
ATOM     26  C   UNL     1      -3.679  -4.074   6.315  0.00  0.00    +0.025 A 
ATOM     27  C   UNL     1      -4.284  -5.302   6.454  0.00  0.00    +0.022 A 
ATOM     28  C   UNL     1      -4.815  -5.964   5.362  0.00  0.00    +0.042 A 
ATOM     29  C   UNL     1      -4.731  -5.372   4.112  0.00  0.00    +0.036 A 
ATOM     30  C   UNL     1      -4.125  -4.143   3.975  0.00  0.00    +0.033 A 
ATOM     31  S   UNL     1      -3.838  -3.099   2.563  0.00  0.00    -0.082 S 
ATOM     32 CL   UNL     1      -5.574  -7.513   5.554  0.00  0.00    -0.084 Cl
ATOM     33  H   UNL     1      -2.593  -1.690   5.533  0.00  0.00    +0.149 HD
ENDBRANCH  21  23
ENDBRANCH  18  19
ENDBRANCH   2  18
TORSDOF 5
