REMARK  Name = ZINC51074494
REMARK  4 active torsions:
REMARK  status: ('A' for Active; 'I' for Inactive)
REMARK    1  A    between atoms: N_11  and  N_12
REMARK    2  A    between atoms: C_13  and  C_14
REMARK    3  A    between atoms: C_17  and  O_21
REMARK    4  A    between atoms: C_19  and  O_20
REMARK                            x       y       z     vdW  Elec       q    Type
REMARK                         _______ _______ _______ _____ _____    ______ ____
ROOT
ATOM      1  C   UNL     1       0.184   1.176   2.137  0.00  0.00    +0.002 A 
ATOM      2  C   UNL     1       1.222   1.930   1.610  0.00  0.00    +0.002 A 
ATOM      3  C   UNL     1       2.369   1.319   1.155  0.00  0.00    +0.030 A 
ATOM      4  C   UNL     1       2.489  -0.072   1.226  0.00  0.00    +0.091 A 
ATOM      5  C   UNL     1       1.435  -0.830   1.761  0.00  0.00    +0.067 A 
ATOM      6  C   UNL     1       0.287  -0.198   2.213  0.00  0.00    +0.028 A 
ATOM      7  N   UNL     1       1.841  -2.153   1.698  0.00  0.00    -0.325 N 
ATOM      8  H   UNL     1       1.333  -2.925   1.991  0.00  0.00    +0.169 HD
ATOM      9  C   UNL     1       3.091  -2.167   1.145  0.00  0.00    +0.214 A 
ATOM     10  N   UNL     1       3.468  -0.943   0.869  0.00  0.00    -0.213 NA
ATOM     11  N   UNL     1       3.842  -3.299   0.912  0.00  0.00    -0.207 N 
ATOM     12  H   UNL     1       3.489  -4.172   1.147  0.00  0.00    +0.177 HD
ENDROOT
BRANCH  11  13
ATOM     13  N   UNL     1       5.115  -3.189   0.338  0.00  0.00    -0.187 NA
ATOM     14  C   UNL     1       5.778  -4.260   0.020  0.00  0.00    +0.142 C 
BRANCH  14  15
ATOM     15  C   UNL     1       5.106  -5.571   0.021  0.00  0.00    +0.036 A 
ATOM     16  C   UNL     1       3.724  -5.651  -0.175  0.00  0.00    +0.016 A 
ATOM     17  C   UNL     1       3.099  -6.878  -0.174  0.00  0.00    +0.046 A 
ATOM     18  C   UNL     1       3.838  -8.039   0.023  0.00  0.00    +0.120 A 
ATOM     19  C   UNL     1       5.210  -7.970   0.218  0.00  0.00    +0.091 A 
ATOM     20  C   UNL     1       5.850  -6.743   0.213  0.00  0.00    +0.129 A 
BRANCH  20  21
ATOM     21  O   UNL     1       7.193  -6.675   0.400  0.00  0.00    -0.506 OA
ATOM     22  H   UNL     1       7.455  -6.515   1.317  0.00  0.00    +0.292 HD
ENDBRANCH  20  21
BRANCH  18  23
ATOM     23  O   UNL     1       3.215  -9.246   0.023  0.00  0.00    -0.507 OA
ATOM     24  H   UNL     1       3.161  -9.662  -0.848  0.00  0.00    +0.292 HD
ENDBRANCH  18  23
ENDBRANCH  14  15
ENDBRANCH  11  13
TORSDOF 4
