REMARK  Name = ZINC63994204
REMARK  16 active torsions:
REMARK  status: ('A' for Active; 'I' for Inactive)
REMARK    1  A    between atoms: C_1  and  C_2
REMARK    2  A    between atoms: C_2  and  C_4
REMARK    3  A    between atoms: C_2  and  N_7
REMARK    4  A    between atoms: C_4  and  O_5
REMARK    5  A    between atoms: O_5  and  C_6
REMARK    6  A    between atoms: N_7  and  C_8
REMARK    7  A    between atoms: N_14  and  C_29
REMARK    8  A    between atoms: C_15  and  C_25
REMARK    9  A    between atoms: C_17  and  N_19
REMARK   10  A    between atoms: C_20  and  C_22
REMARK   11  A    between atoms: C_22  and  O_23
REMARK   12  A    between atoms: O_23  and  C_24
REMARK   13  A    between atoms: C_25  and  O_27
REMARK   14  A    between atoms: O_27  and  C_28
REMARK   15  A    between atoms: C_29  and  C_30
REMARK   16  A    between atoms: C_30  and  C_31
REMARK                            x       y       z     vdW  Elec       q    Type
REMARK                         _______ _______ _______ _____ _____    ______ ____
ROOT
ATOM      1  C   UNL     1      -2.054  -0.661   1.226  0.00  0.00    +0.044 A 
ATOM      2  C   UNL     1      -3.361  -1.148   1.252  0.00  0.00    +0.033 A 
ATOM      3  C   UNL     1      -3.991  -1.277   2.474  0.00  0.00    +0.015 A 
ATOM      4  C   UNL     1      -3.326  -0.927   3.641  0.00  0.00    +0.105 A 
ATOM      5  N   UNL     1      -2.077  -0.465   3.571  0.00  0.00    -0.348 N 
ATOM      6  C   UNL     1      -1.441  -0.333   2.426  0.00  0.00    +0.107 A 
ATOM      7  N   UNL     1      -4.124  -1.128   4.764  0.00  0.00    -0.301 N 
ATOM      8  C   UNL     1      -5.433  -1.653   4.368  0.00  0.00    +0.208 C 
ATOM      9  C   UNL     1      -5.375  -1.764   2.835  0.00  0.00    +0.138 C 
ATOM     10  H   UNL     1      -1.621  -0.223   4.392  0.00  0.00    +0.167 HD
ENDROOT
BRANCH   9  11
ATOM     11  N   UNL     1      -5.553  -3.157   2.416  0.00  0.00    -0.304 N 
ATOM     12  C   UNL     1      -5.964  -3.437   1.164  0.00  0.00    +0.239 C 
ATOM     13  O   UNL     1      -6.187  -2.535   0.383  0.00  0.00    -0.273 OA
ATOM     14  H   UNL     1      -5.375  -3.877   3.041  0.00  0.00    +0.149 HD
BRANCH  12  15
ATOM     15  C   UNL     1      -6.147  -4.869   0.733  0.00  0.00    +0.255 C 
BRANCH  15  16
ATOM     16  O   UNL     1      -6.585  -4.905  -0.627  0.00  0.00    -0.374 OA
ATOM     17  C   UNL     1      -6.790  -6.224  -1.136  0.00  0.00    +0.194 C 
ENDBRANCH  15  16
ENDBRANCH  12  15
ENDBRANCH   9  11
BRANCH   1  18
ATOM     18  N   UNL     1      -1.372  -0.511   0.012  0.00  0.00    -0.338 N 
ATOM     19  H   UNL     1      -1.810  -0.743  -0.822  0.00  0.00    +0.146 HD
BRANCH  18  21
ATOM     20  C   UNL     1      -0.019   1.526   0.010  0.00  0.00    +0.030 C 
ATOM     21  C   UNL     1       0.002  -0.004   0.002  0.00  0.00    +0.093 C 
BRANCH  21  22
ATOM     22  C   UNL     1       0.718  -0.497  -1.257  0.00  0.00    +0.181 C 
BRANCH  22  23
ATOM     23  O   UNL     1       0.097   0.070  -2.412  0.00  0.00    -0.381 OA
ATOM     24  C   UNL     1       0.693  -0.329  -3.648  0.00  0.00    +0.194 C 
ENDBRANCH  22  23
ENDBRANCH  21  22
ENDBRANCH  18  21
ENDBRANCH   1  18
BRANCH   8  25
ATOM     25  C   UNL     1      -5.662  -3.008   4.984  0.00  0.00    +0.330 C 
ATOM     26  O   UNL     1      -4.726  -3.648   5.402  0.00  0.00    -0.249 OA
BRANCH  25  27
ATOM     27  O   UNL     1      -6.906  -3.506   5.069  0.00  0.00    -0.467 OA
ATOM     28  C   UNL     1      -7.049  -4.797   5.666  0.00  0.00    +0.280 C 
ENDBRANCH  25  27
ENDBRANCH   8  25
BRANCH   7  29
ATOM     29  C   UNL     1      -3.714  -0.855   6.144  0.00  0.00    +0.112 C 
BRANCH  29  30
ATOM     30  C   UNL     1      -4.075   0.587   6.508  0.00  0.00    +0.052 C 
BRANCH  30  31
ATOM     31  C   UNL     1      -3.653   0.868   7.927  0.00  0.00    -0.040 C 
ATOM     32  C   UNL     1      -2.498   1.442   8.333  0.00  0.00    -0.001 A 
ATOM     33  C   UNL     1      -1.332   1.956   7.603  0.00  0.00    +0.010 A 
ATOM     34  C   UNL     1      -0.303   2.486   8.302  0.00  0.00    +0.001 A 
ATOM     35  C   UNL     1      -0.320   2.556   9.701  0.00  0.00    +0.002 A 
ATOM     36  C   UNL     1      -1.355   2.104  10.441  0.00  0.00    +0.026 A 
ATOM     37  C   UNL     1      -2.491   1.528   9.811  0.00  0.00    +0.043 A 
ATOM     38  N   UNL     1      -3.600   1.026  10.300  0.00  0.00    -0.380 N 
ATOM     39  C   UNL     1      -4.438   0.570   9.185  0.00  0.00    +0.144 C 
ATOM     40  H   UNL     1      -3.829   0.970  11.240  0.00  0.00    +0.160 HD
ENDBRANCH  30  31
ENDBRANCH  29  30
ENDBRANCH   7  29
TORSDOF 12
