REMARK  Name = ZINC39988948
REMARK  5 active torsions:
REMARK  status: ('A' for Active; 'I' for Inactive)
REMARK    1  A    between atoms: C_1  and  C_2
REMARK    2  A    between atoms: C_6  and  C_8
REMARK    3  A    between atoms: C_11  and  C_35
REMARK    4  A    between atoms: C_14  and  C_16
REMARK    5  A    between atoms: C_18  and  C_29
REMARK                            x       y       z     vdW  Elec       q    Type
REMARK                         _______ _______ _______ _____ _____    ______ ____
ROOT
ATOM      1  C   UNL     1      -0.377  -3.467   3.073  0.00  0.00    +0.266 C 
ATOM      2  O   UNL     1      -0.566  -3.053   4.201  0.00  0.00    -0.268 OA
ATOM      3  N   UNL     1      -0.530  -4.778   2.802  0.00  0.00    -0.178 N 
ATOM      4  C   UNL     1      -1.001  -5.801   3.750  0.00  0.00    +0.173 C 
ATOM      5  C   UNL     1      -0.980  -7.096   2.912  0.00  0.00    +0.086 C 
ATOM      6  C   UNL     1      -0.487  -6.640   1.557  0.00  0.00    +0.056 C 
ATOM      7  N   UNL     1      -0.275  -5.389   1.576  0.00  0.00    -0.184 NA
ENDROOT
BRANCH   6   8
ATOM      8  C   UNL     1      -0.286  -7.536   0.361  0.00  0.00    +0.152 C 
ATOM      9  C   UNL     1      -0.139  -6.653  -0.863  0.00  0.00    -0.014 C 
ATOM     10  C   UNL     1       1.040  -6.785  -1.602  0.00  0.00    +0.002 A 
ATOM     11  C   UNL     1       1.258  -6.001  -2.755  0.00  0.00    +0.030 A 
ATOM     12  C   UNL     1       2.415  -6.149  -3.457  0.00  0.00    +0.042 A 
ATOM     13  C   UNL     1       3.391  -7.061  -3.060  0.00  0.00    +0.022 A 
ATOM     14  C   UNL     1       3.237  -7.844  -1.957  0.00  0.00    +0.025 A 
ATOM     15  C   UNL     1       2.067  -7.745  -1.183  0.00  0.00    +0.041 A 
ATOM     16  N   UNL     1       1.917  -8.514  -0.100  0.00  0.00    -0.284 N 
ATOM     17  C   UNL     1       0.852  -8.480   0.676  0.00  0.00    +0.230 C 
ATOM     18  O   UNL     1       0.785  -9.210   1.647  0.00  0.00    -0.274 OA
ATOM     19 CL   UNL     1       2.679  -5.183  -4.875  0.00  0.00    -0.084 Cl
ATOM     20  H   UNL     1       2.631  -9.131   0.127  0.00  0.00    +0.155 HD
BRANCH   9  21
ATOM     21  C   UNL     1      -1.152  -5.735  -1.240  0.00  0.00    -0.020 A 
ATOM     22  C   UNL     1      -0.832  -4.389  -1.480  0.00  0.00    +0.008 A 
ATOM     23  C   UNL     1      -1.823  -3.506  -1.846  0.00  0.00    +0.001 A 
ATOM     24  C   UNL     1      -3.132  -3.941  -1.977  0.00  0.00    +0.000 A 
ATOM     25  C   UNL     1      -3.458  -5.267  -1.742  0.00  0.00    +0.001 A 
ATOM     26  C   UNL     1      -2.481  -6.167  -1.381  0.00  0.00    +0.008 A 
ENDBRANCH   9  21
ENDBRANCH   6   8
BRANCH   1  32
ATOM     27  C   UNL     1       0.428   1.196   1.490  0.00  0.00    +0.044 C 
ATOM     28  C   UNL     1       0.410  -0.289   1.234  0.00  0.00    -0.050 A 
ATOM     29  C   UNL     1       0.767  -0.779  -0.010  0.00  0.00    +0.003 A 
ATOM     30  C   UNL     1       0.753  -2.141  -0.254  0.00  0.00    +0.001 A 
ATOM     31  C   UNL     1       0.382  -3.019   0.744  0.00  0.00    +0.013 A 
ATOM     32  C   UNL     1       0.021  -2.531   2.001  0.00  0.00    +0.039 A 
ATOM     33  C   UNL     1       0.043  -1.156   2.241  0.00  0.00    +0.016 A 
ENDBRANCH   1  32
BRANCH   4  34
ATOM     34  C   UNL     1      -2.399  -5.490   4.218  0.00  0.00    +0.128 A 
ATOM     35  C   UNL     1      -2.867  -5.661   5.467  0.00  0.00    +0.046 A 
ATOM     36  C   UNL     1      -4.218  -5.244   5.460  0.00  0.00    +0.041 A 
ATOM     37  C   UNL     1      -4.495  -4.843   4.206  0.00  0.00    +0.195 A 
ATOM     38  O   UNL     1      -3.388  -4.989   3.459  0.00  0.00    -0.466 OA
ENDBRANCH   4  34
TORSDOF 4
