REMARK  Name = ZINC47932030
REMARK  6 active torsions:
REMARK  status: ('A' for Active; 'I' for Inactive)
REMARK    1  A    between atoms: C_3  and  S_23
REMARK    2  A    between atoms: C_5  and  C_6
REMARK    3  A    between atoms: N_8  and  N_9
REMARK    4  A    between atoms: C_10  and  C_12
REMARK    5  A    between atoms: C_12  and  C_13
REMARK    6  A    between atoms: S_23  and  N_26
REMARK                            x       y       z     vdW  Elec       q    Type
REMARK                         _______ _______ _______ _____ _____    ______ ____
ROOT
ATOM      1  C   UNL     1      -1.173  -0.882   0.009  0.00  0.00    +0.295 C 
ATOM      2  O   UNL     1      -2.291  -0.402   0.023  0.00  0.00    -0.265 OA
ATOM      3  N   UNL     1      -1.014  -2.220   0.000  0.00  0.00    -0.228 N 
ATOM      4  H   UNL     1      -0.123  -2.603  -0.011  0.00  0.00    +0.173 HD
ENDROOT
BRANCH   1   9
ATOM      5  C   UNL     1      -0.016   1.361   0.009  0.00  0.00    +0.057 A 
ATOM      6  C   UNL     1       1.322   1.783  -0.001  0.00  0.00    +0.072 A 
ATOM      7  C   UNL     1       2.090   0.671  -0.014  0.00  0.00    +0.258 A 
ATOM      8  O   UNL     1       1.290  -0.404  -0.012  0.00  0.00    -0.432 OA
ATOM      9  C   UNL     1       0.002  -0.004   0.002  0.00  0.00    +0.193 A 
BRANCH   7  10
ATOM     10  S   UNL     1       3.851   0.640  -0.032  0.00  0.00    +0.089 S 
ATOM     11  O   UNL     1       4.230  -0.610  -0.593  0.00  0.00    -0.150 OA
ATOM     12  O   UNL     1       4.274   1.880  -0.581  0.00  0.00    -0.150 OA
BRANCH  10  13
ATOM     13  N   UNL     1       4.357   0.623   1.545  0.00  0.00    -0.201 NA
ATOM     14  H   UNL     1       3.705   0.631   2.263  0.00  0.00    +0.144 HD
ATOM     15  H   UNL     1       5.304   0.605   1.750  0.00  0.00    +0.144 HD
ENDBRANCH  10  13
ENDBRANCH   7  10
ENDBRANCH   1   9
BRANCH   3  16
ATOM     16  N   UNL     1      -2.136  -3.059   0.007  0.00  0.00    -0.234 N 
ATOM     17  C   UNL     1      -1.978  -4.397  -0.002  0.00  0.00    +0.230 C 
ATOM     18  O   UNL     1      -0.863  -4.876  -0.015  0.00  0.00    -0.274 OA
ATOM     19  H   UNL     1      -3.028  -2.676   0.018  0.00  0.00    +0.173 HD
BRANCH  17  20
ATOM     20  C   UNL     1      -3.185  -5.299   0.005  0.00  0.00    +0.104 C 
BRANCH  20  21
ATOM     21  C   UNL     1      -2.730  -6.760  -0.007  0.00  0.00    -0.020 C 
ATOM     22  C   UNL     1      -1.902  -7.026  -1.266  0.00  0.00    +0.011 C 
ATOM     23  C   UNL     1      -1.447  -8.487  -1.278  0.00  0.00    -0.010 C 
ATOM     24  C   UNL     1      -2.673  -9.402  -1.271  0.00  0.00    +0.007 C 
ATOM     25  C   UNL     1      -3.501  -9.137  -0.012  0.00  0.00    -0.010 C 
ATOM     26  C   UNL     1      -3.955  -7.676   0.000  0.00  0.00    +0.011 C 
ATOM     27  C   UNL     1      -2.648  -9.416   1.227  0.00  0.00    +0.007 C 
ATOM     28  C   UNL     1      -1.423  -8.500   1.220  0.00  0.00    -0.010 C 
ATOM     29  C   UNL     1      -0.595  -8.766  -0.039  0.00  0.00    +0.007 C 
ATOM     30  C   UNL     1      -1.877  -7.039   1.232  0.00  0.00    +0.011 C 
ENDBRANCH  20  21
ENDBRANCH  17  20
ENDBRANCH   3  16
TORSDOF 6
