REMARK  Name = ZINC45313619
REMARK  9 active torsions:
REMARK  status: ('A' for Active; 'I' for Inactive)
REMARK    1  A    between atoms: C_1  and  C_2
REMARK    2  A    between atoms: C_7  and  N_8
REMARK    3  A    between atoms: C_11  and  C_16
REMARK    4  A    between atoms: C_16  and  N_17
REMARK    5  A    between atoms: C_22  and  O_35
REMARK    6  A    between atoms: C_23  and  O_33
REMARK    7  A    between atoms: C_26  and  C_28
REMARK    8  A    between atoms: O_33  and  C_34
REMARK    9  A    between atoms: O_35  and  C_36
REMARK                            x       y       z     vdW  Elec       q    Type
REMARK                         _______ _______ _______ _____ _____    ______ ____
ROOT
ATOM      1  C   UNL     1      -0.360   0.031   7.199  0.00  0.00    +0.161 C 
ENDROOT
BRANCH   1   5
ATOM      2  N   UNL     1       0.025  -0.015   2.416  0.00  0.00    -0.283 N 
ATOM      3  C   UNL     1      -0.058  -0.712   3.606  0.00  0.00    +0.224 A 
ATOM      4  N   UNL     1      -0.162  -0.053   4.758  0.00  0.00    -0.198 NA
ATOM      5  C   UNL     1      -0.242  -0.719   5.897  0.00  0.00    +0.150 A 
ATOM      6  N   UNL     1      -0.219  -2.041   5.897  0.00  0.00    -0.198 NA
ATOM      7  C   UNL     1      -0.115  -2.706   4.749  0.00  0.00    +0.217 A 
ATOM      8  N   UNL     1      -0.041  -2.040   3.602  0.00  0.00    -0.181 NA
ATOM      9  N   UNL     1      -0.091  -4.086   4.750  0.00  0.00    -0.327 N 
ATOM     10  H   UNL     1      -0.077   0.949   2.411  0.00  0.00    +0.155 HD
ATOM     11  H   UNL     1      -0.150  -4.571   5.588  0.00  0.00    +0.145 HD
ATOM     12  H   UNL     1      -0.015  -4.570   3.913  0.00  0.00    +0.145 HD
BRANCH   2  19
ATOM     13  C   UNL     1      -1.030   1.083   0.013  0.00  0.00    +0.045 C 
ATOM     14  C   UNL     1      -0.239  -0.200   0.024  0.00  0.00    -0.029 A 
ATOM     15  C   UNL     1      -0.003  -0.876  -1.157  0.00  0.00    +0.005 A 
ATOM     16  C   UNL     1       0.723  -2.053  -1.149  0.00  0.00    +0.000 A 
ATOM     17  C   UNL     1       1.214  -2.557   0.042  0.00  0.00    +0.002 A 
ATOM     18  C   UNL     1       0.981  -1.886   1.226  0.00  0.00    +0.023 A 
ATOM     19  C   UNL     1       0.258  -0.701   1.220  0.00  0.00    +0.036 A 
ENDBRANCH   2  19
ENDBRANCH   1   5
BRANCH   1  20
ATOM     20  N   UNL     1      -1.778   0.250   7.511  0.00  0.00    -0.284 NA
ATOM     21  C   UNL     1      -2.458  -1.022   7.801  0.00  0.00    +0.090 C 
ATOM     22  C   UNL     1      -3.968  -0.788   7.754  0.00  0.00    +0.051 C 
ATOM     23  C   UNL     1      -4.331   0.401   8.607  0.00  0.00    -0.037 A 
ATOM     24  C   UNL     1      -5.656   0.562   8.984  0.00  0.00    +0.053 A 
ATOM     25  C   UNL     1      -6.036   1.639   9.763  0.00  0.00    +0.162 A 
ATOM     26  C   UNL     1      -5.081   2.567  10.170  0.00  0.00    +0.162 A 
ATOM     27  C   UNL     1      -3.760   2.401   9.793  0.00  0.00    +0.055 A 
ATOM     28  C   UNL     1      -3.384   1.316   9.013  0.00  0.00    -0.018 A 
ATOM     29  C   UNL     1      -1.931   1.175   8.639  0.00  0.00    +0.125 C 
BRANCH  29  30
ATOM     30  C   UNL     1      -1.383   2.525   8.253  0.00  0.00    +0.011 A 
ATOM     31  C   UNL     1      -0.650   3.392   8.993  0.00  0.00    +0.013 A 
ATOM     32  C   UNL     1      -0.252   4.588   8.425  0.00  0.00    +0.008 A 
ATOM     33  C   UNL     1      -0.606   4.857   7.144  0.00  0.00    +0.045 A 
ATOM     34  S   UNL     1      -1.526   3.393   6.699  0.00  0.00    -0.100 S 
ENDBRANCH  29  30
BRANCH  26  35
ATOM     35  O   UNL     1      -5.444   3.631  10.934  0.00  0.00    -0.491 OA
ATOM     36  C   UNL     1      -4.409   4.541  11.313  0.00  0.00    +0.277 C 
ENDBRANCH  26  35
BRANCH  25  37
ATOM     37  O   UNL     1      -7.337   1.793  10.130  0.00  0.00    -0.491 OA
ATOM     38  C   UNL     1      -8.260   0.802   9.675  0.00  0.00    +0.277 C 
ENDBRANCH  25  37
ENDBRANCH   1  20
TORSDOF 6
