REMARK  Name = ZINC12659668
REMARK  9 active torsions:
REMARK  status: ('A' for Active; 'I' for Inactive)
REMARK    1  A    between atoms: C_1  and  C_2
REMARK    2  A    between atoms: C_13  and  C_15
REMARK    3  A    between atoms: C_15  and  C_17
REMARK    4  A    between atoms: C_17  and  C_18
REMARK    5  A    between atoms: C_25  and  O_26
REMARK    6  A    between atoms: O_26  and  C_27
REMARK    7  A    between atoms: C_33  and  N_84
REMARK    8  A    between atoms: C_37  and  C_44
REMARK    9  A    between atoms: C_40  and  O_43
REMARK                            x       y       z     vdW  Elec       q    Type
REMARK                         _______ _______ _______ _____ _____    ______ ____
ROOT
ATOM      1  C   UNL     1       2.135  -0.516   0.019  0.00  0.00    +0.012 C 
ATOM      2  C   UNL     1       1.621   0.920  -0.286  0.00  0.00    -0.019 C 
ATOM      3  C   UNL     1       2.203   1.272  -1.628  0.00  0.00    +0.008 C 
ATOM      4  C   UNL     1       2.342   2.768  -1.885  0.00  0.00    +0.005 C 
ATOM      5  C   UNL     1       3.172   3.367  -0.747  0.00  0.00    +0.003 C 
ATOM      6  C   UNL     1       2.362   3.244   0.541  0.00  0.00    +0.000 C 
ATOM      7  C   UNL     1       2.093   1.786   0.884  0.00  0.00    -0.001 C 
ATOM      8  C   UNL     1       0.925   1.736   1.904  0.00  0.00    +0.005 C 
ATOM      9  C   UNL     1      -0.344   1.583   1.043  0.00  0.00    +0.012 C 
ATOM     10  C   UNL     1       0.099   0.831  -0.228  0.00  0.00    +0.061 C 
ATOM     11  C   UNL     1       1.068   4.042   0.406  0.00  0.00    +0.031 C 
ATOM     12  C   UNL     1       1.389   5.451  -0.010  0.00  0.00    -0.027 C 
ATOM     13  C   UNL     1       2.472   5.784  -0.645  0.00  0.00    -0.065 C 
ATOM     14  C   UNL     1       3.546   4.810  -1.034  0.00  0.00    -0.008 C 
ATOM     15  C   UNL     1       3.894   4.991  -2.512  0.00  0.00    +0.014 C 
ATOM     16  C   UNL     1       4.199   6.456  -2.823  0.00  0.00    +0.032 C 
ATOM     17  C   UNL     1       2.978   7.322  -2.513  0.00  0.00    +0.119 C 
ATOM     18  C   UNL     1       2.663   7.245  -1.017  0.00  0.00    +0.062 C 
ATOM     19  C   UNL     1       4.799   5.128  -0.206  0.00  0.00    +0.016 C 
ENDROOT
BRANCH  10  20
ATOM     20  C   UNL     1      -0.586   1.392  -1.440  0.00  0.00    +0.136 C 
ATOM     21  O   UNL     1      -0.499   2.570  -1.691  0.00  0.00    -0.297 OA
BRANCH  20  22
ATOM     22  C   UNL     1      -1.381   0.485  -2.343  0.00  0.00    +0.064 C 
BRANCH  22  23
ATOM     23  C   UNL     1      -2.089   1.322  -3.411  0.00  0.00    -0.027 C 
ATOM     24  C   UNL     1      -1.069   2.139  -4.159  0.00  0.00    -0.012 A 
ATOM     25  C   UNL     1      -1.293   3.458  -4.490  0.00  0.00    -0.040 A 
ATOM     26  C   UNL     1      -0.329   4.173  -5.185  0.00  0.00    +0.053 A 
ATOM     27  C   UNL     1       0.864   3.574  -5.548  0.00  0.00    +0.170 A 
ATOM     28  C   UNL     1       1.097   2.244  -5.215  0.00  0.00    +0.208 A 
ATOM     29  C   UNL     1       0.129   1.531  -4.521  0.00  0.00    +0.167 A 
ATOM     30  O   UNL     1       2.331   1.887  -5.679  0.00  0.00    -0.449 OA
ATOM     31  C   UNL     1       2.679   2.888  -6.653  0.00  0.00    +0.467 C 
ATOM     32  O   UNL     1       1.951   4.053  -6.221  0.00  0.00    -0.452 OA
ATOM     33  C   UNL     1      -2.573   4.160  -4.115  0.00  0.00    +0.017 C 
ATOM     34  C   UNL     1      -3.644   3.132  -3.747  0.00  0.00    -0.074 C 
ATOM     35  C   UNL     1      -4.129   1.409  -2.114  0.00  0.00    -0.095 C 
ATOM     36  N   UNL     1      -3.060   2.211  -2.752  0.00  0.00    +0.383 N 
ATOM     37  H   UNL     1      -2.578   2.759  -2.030  0.00  0.00    -0.081 HD
BRANCH  29  38
ATOM     38  O   UNL     1       0.353   0.230  -4.193  0.00  0.00    -0.491 OA
ATOM     39  C   UNL     1      -0.060  -0.758  -5.139  0.00  0.00    +0.277 C 
ENDBRANCH  29  38
ENDBRANCH  22  23
ENDBRANCH  20  22
ENDBRANCH  10  20
BRANCH  17  40
ATOM     40  O   UNL     1       3.252   8.678  -2.873  0.00  0.00    -0.391 OA
ATOM     41  H   UNL     1       2.519   9.286  -2.703  0.00  0.00    +0.210 HD
ENDBRANCH  17  40
TORSDOF 5
