REMARK  Name = ZINC21523734
REMARK  7 active torsions:
REMARK  status: ('A' for Active; 'I' for Inactive)
REMARK    1  A    between atoms: C_1  and  C_2
REMARK    2  A    between atoms: C_4  and  C_36
REMARK    3  A    between atoms: C_11  and  C_13
REMARK    4  A    between atoms: C_19  and  C_26
REMARK    5  A    between atoms: C_29  and  O_32
REMARK    6  A    between atoms: O_32  and  C_33
REMARK    7  A    between atoms: C_33  and  C_34
REMARK                            x       y       z     vdW  Elec       q    Type
REMARK                         _______ _______ _______ _____ _____    ______ ____
ROOT
ATOM      1  C   UNL     1       0.255  -6.905  -1.120  0.00  0.00    +0.066 C 
ATOM      2  C   UNL     1       1.008  -5.605  -1.241  0.00  0.00    +0.044 A 
ATOM      3  C   UNL     1       2.249  -5.568  -1.857  0.00  0.00    +0.046 A 
ATOM      4  C   UNL     1       2.908  -4.351  -1.946  0.00  0.00    +0.044 A 
ATOM      5  N   UNL     1       2.335  -3.270  -1.444  0.00  0.00    -0.216 NA
ATOM      6  C   UNL     1       1.149  -3.341  -0.862  0.00  0.00    +0.253 A 
ATOM      7  N   UNL     1       0.496  -4.487  -0.755  0.00  0.00    -0.216 NA
ATOM      8  N   UNL     1       0.576  -2.181  -0.344  0.00  0.00    -0.183 N 
ATOM      9  C   UNL     1       1.076  -0.902  -0.481  0.00  0.00    +0.137 A 
ATOM     10  C   UNL     1       0.234  -0.073   0.168  0.00  0.00    +0.038 A 
ATOM     11  C   UNL     1      -0.816  -0.862   0.713  0.00  0.00    +0.100 A 
ATOM     12  N   UNL     1      -0.601  -2.115   0.402  0.00  0.00    -0.162 NA
ATOM     13  C   UNL     1       0.287   1.411   0.350  0.00  0.00    +0.112 C 
ATOM     14  S   UNL     1       1.958   2.051   0.490  0.00  0.00    -0.138 S 
ATOM     15  C   UNL     1       2.719   1.807  -1.120  0.00  0.00    +0.166 C 
ATOM     16  C   UNL     1       2.958   0.382  -1.434  0.00  0.00    +0.228 C 
ATOM     17  O   UNL     1       3.996   0.156  -2.021  0.00  0.00    -0.275 OA
ATOM     18  N   UNL     1       2.234  -0.666  -1.182  0.00  0.00    -0.269 N 
ATOM     19  C   UNL     1       4.259  -4.262  -2.607  0.00  0.00    +0.066 C 
ATOM     20  H   UNL     1       2.749  -1.496  -1.688  0.00  0.00    +0.156 HD
ENDROOT
BRANCH  11  21
ATOM     21  C   UNL     1      -1.964  -0.350   1.502  0.00  0.00    +0.002 A 
ATOM     22  C   UNL     1      -2.228  -0.868   2.768  0.00  0.00    +0.010 A 
ATOM     23  C   UNL     1      -3.294  -0.385   3.499  0.00  0.00    +0.001 A 
ATOM     24  C   UNL     1      -4.105   0.605   2.974  0.00  0.00    +0.000 A 
ATOM     25  C   UNL     1      -3.850   1.120   1.716  0.00  0.00    +0.001 A 
ATOM     26  C   UNL     1      -2.784   0.647   0.977  0.00  0.00    +0.010 A 
ENDBRANCH  11  21
BRANCH  13  27
ATOM     27  C   UNL     1      -0.476   1.773   1.599  0.00  0.00    -0.030 A 
ATOM     28  C   UNL     1      -0.191   1.133   2.791  0.00  0.00    +0.008 A 
ATOM     29  C   UNL     1      -0.885   1.466   3.938  0.00  0.00    +0.046 A 
ATOM     30  C   UNL     1      -1.876   2.436   3.891  0.00  0.00    +0.121 A 
ATOM     31  C   UNL     1      -2.163   3.072   2.692  0.00  0.00    +0.046 A 
ATOM     32  C   UNL     1      -1.463   2.739   1.549  0.00  0.00    +0.008 A 
BRANCH  30  33
ATOM     33  O   UNL     1      -2.563   2.762   5.017  0.00  0.00    -0.488 OA
BRANCH  33  34
ATOM     34  C   UNL     1      -2.213   2.066   6.215  0.00  0.00    +0.256 C 
BRANCH  34  35
ATOM     35  C   UNL     1      -3.074   2.556   7.350  0.00  0.00    +0.006 C 
ATOM     36  C   UNL     1      -3.622   1.698   8.175  0.00  0.00    +0.007 C 
ENDBRANCH  34  35
ENDBRANCH  33  34
ENDBRANCH  30  33
ENDBRANCH  13  27
TORSDOF 5
