REMARK  Name = ZINC58849688
REMARK  10 active torsions:
REMARK  status: ('A' for Active; 'I' for Inactive)
REMARK    1  A    between atoms: C_1  and  C_2
REMARK    2  A    between atoms: C_2  and  C_3
REMARK    3  A    between atoms: C_2  and  O_4
REMARK    4  A    between atoms: O_4  and  C_5
REMARK    5  A    between atoms: C_8  and  C_11
REMARK    6  A    between atoms: C_22  and  S_27
REMARK    7  A    between atoms: S_27  and  N_30
REMARK    8  A    between atoms: N_30  and  C_31
REMARK    9  A    between atoms: C_36  and  O_37
REMARK   10  A    between atoms: O_37  and  C_38
REMARK                            x       y       z     vdW  Elec       q    Type
REMARK                         _______ _______ _______ _____ _____    ______ ____
ROOT
ATOM      1  C   UNL     1      -1.813  -6.140  -1.380  0.00  0.00    +0.105 C 
ATOM      2  C   UNL     1      -2.088  -5.898  -2.834  0.00  0.00    +0.029 C 
ATOM      3  C   UNL     1      -2.971  -4.655  -3.064  0.00  0.00    +0.033 C 
ATOM      4  C   UNL     1      -3.690  -4.957  -4.362  0.00  0.00    -0.030 C 
ATOM      5  C   UNL     1      -3.635  -6.234  -4.640  0.00  0.00    -0.023 C 
ATOM      6  C   UNL     1      -2.899  -6.974  -3.551  0.00  0.00    +0.049 C 
ATOM      7  C   UNL     1      -3.919  -7.634  -2.666  0.00  0.00    -0.018 A 
ATOM      8  C   UNL     1      -4.912  -8.398  -3.262  0.00  0.00    +0.034 A 
ATOM      9  C   UNL     1      -5.878  -9.014  -2.492  0.00  0.00    +0.109 A 
ATOM     10  C   UNL     1      -5.864  -8.872  -1.116  0.00  0.00    +0.030 A 
ATOM     11  C   UNL     1      -4.878  -8.118  -0.514  0.00  0.00    +0.025 A 
ATOM     12  C   UNL     1      -3.899  -7.500  -1.289  0.00  0.00    +0.031 A 
ATOM     13  N   UNL     1      -2.893  -6.789  -0.665  0.00  0.00    -0.336 N 
ATOM     14  H   UNL     1      -2.931  -6.700   0.300  0.00  0.00    +0.147 HD
ENDROOT
BRANCH   1  18
ATOM     15  C   UNL     1      -1.019  -2.381   0.490  0.00  0.00    +0.121 A 
ATOM     16  C   UNL     1       0.031  -3.191   0.084  0.00  0.00    +0.046 A 
ATOM     17  C   UNL     1      -0.228  -4.406  -0.519  0.00  0.00    +0.009 A 
ATOM     18  C   UNL     1      -1.533  -4.814  -0.720  0.00  0.00    -0.027 A 
ATOM     19  C   UNL     1      -2.582  -4.009  -0.318  0.00  0.00    +0.009 A 
ATOM     20  C   UNL     1      -2.328  -2.796   0.292  0.00  0.00    +0.046 A 
BRANCH  15  21
ATOM     21  O   UNL     1      -0.767  -1.185   1.085  0.00  0.00    -0.489 OA
BRANCH  21  23
ATOM     22  C   UNL     1      -1.473   0.330   2.830  0.00  0.00    +0.051 C 
ATOM     23  C   UNL     1      -1.891  -0.461   1.589  0.00  0.00    +0.167 C 
ATOM     24  C   UNL     1      -2.398   0.504   0.516  0.00  0.00    +0.051 C 
ENDBRANCH  21  23
ENDBRANCH  15  21
ENDBRANCH   1  18
BRANCH   9  25
ATOM     25  S   UNL     1      -7.132  -9.982  -3.263  0.00  0.00    +0.072 S 
ATOM     26  O   UNL     1      -8.236 -10.005  -2.368  0.00  0.00    -0.150 OA
ATOM     27  O   UNL     1      -7.245  -9.510  -4.599  0.00  0.00    -0.150 OA
BRANCH  25  28
ATOM     28  N   UNL     1      -6.565 -11.534  -3.356  0.00  0.00    -0.213 N 
ATOM     29  H   UNL     1      -6.467 -11.964  -4.220  0.00  0.00    +0.174 HD
BRANCH  28  30
ATOM     30  C   UNL     1      -6.226 -12.227  -2.187  0.00  0.00    +0.091 A 
ATOM     31  C   UNL     1      -6.964 -12.037  -1.028  0.00  0.00    +0.048 A 
ATOM     32  C   UNL     1      -6.628 -12.722   0.125  0.00  0.00    +0.043 A 
ATOM     33  C   UNL     1      -5.556 -13.598   0.125  0.00  0.00    +0.024 A 
ATOM     34  C   UNL     1      -4.817 -13.791  -1.027  0.00  0.00    +0.049 A 
ATOM     35  C   UNL     1      -5.151 -13.112  -2.187  0.00  0.00    +0.142 A 
ATOM     36 CL   UNL     1      -7.551 -12.483   1.575  0.00  0.00    -0.083 Cl
BRANCH  35  37
ATOM     37  O   UNL     1      -4.428 -13.306  -3.323  0.00  0.00    -0.493 OA
ATOM     38  C   UNL     1      -3.339 -14.229  -3.249  0.00  0.00    +0.277 C 
ENDBRANCH  35  37
ENDBRANCH  28  30
ENDBRANCH  25  28
ENDBRANCH   9  25
TORSDOF 7
