REMARK  Name = ZINC35427004
REMARK  7 active torsions:
REMARK  status: ('A' for Active; 'I' for Inactive)
REMARK    1  A    between atoms: C_1  and  C_2
REMARK    2  A    between atoms: C_2  and  O_3
REMARK    3  A    between atoms: O_3  and  C_4
REMARK    4  A    between atoms: C_4  and  C_6
REMARK    5  A    between atoms: C_6  and  N_7
REMARK    6  A    between atoms: C_22  and  C_24
REMARK    7  A    between atoms: N_32  and  C_35
REMARK                            x       y       z     vdW  Elec       q    Type
REMARK                         _______ _______ _______ _____ _____    ______ ____
ROOT
ATOM      1  N   UNL     1      -3.772  -3.353   0.029  0.00  0.00    -0.289 N 
ATOM      2  C   UNL     1      -4.613  -4.405   0.080  0.00  0.00    +0.304 C 
ATOM      3  O   UNL     1      -5.806  -4.223   0.230  0.00  0.00    -0.253 OA
ATOM      4  N   UNL     1      -4.132  -5.658  -0.037  0.00  0.00    -0.269 N 
ATOM      5  C   UNL     1      -2.692  -5.920  -0.215  0.00  0.00    +0.148 C 
ATOM      6  C   UNL     1      -2.417  -7.036  -1.197  0.00  0.00    +0.004 A 
ATOM      7  C   UNL     1      -1.838  -6.823  -2.462  0.00  0.00    -0.034 A 
ATOM      8  C   UNL     1      -1.623  -7.909  -3.253  0.00  0.00    -0.021 A 
ATOM      9  S   UNL     1      -2.213  -9.267  -2.277  0.00  0.00    -0.077 S 
ATOM     10  C   UNL     1      -2.732  -8.321  -0.877  0.00  0.00    +0.090 A 
ATOM     11  N   UNL     1      -3.348  -8.700   0.308  0.00  0.00    -0.312 N 
ATOM     12  C   UNL     1      -3.082  -9.704   1.176  0.00  0.00    +0.092 A 
ATOM     13  C   UNL     1      -3.938  -9.595   2.218  0.00  0.00    +0.020 A 
ATOM     14  C   UNL     1      -4.777  -8.488   1.964  0.00  0.00    +0.025 A 
ATOM     15  C   UNL     1      -4.415  -7.971   0.781  0.00  0.00    +0.049 A 
ATOM     16  C   UNL     1      -5.025  -6.841   0.013  0.00  0.00    +0.155 C 
ATOM     17  C   UNL     1      -1.029  -7.917  -4.623  0.00  0.00    -0.036 C 
ATOM     18  N   UNL     1      -1.047  -6.536  -5.143  0.00  0.00    +0.381 N 
ATOM     19  C   UNL     1      -0.471  -5.629  -4.142  0.00  0.00    -0.074 C 
ATOM     20  C   UNL     1      -1.442  -5.440  -2.973  0.00  0.00    +0.018 C 
ATOM     21  C   UNL     1      -0.256  -6.468  -6.379  0.00  0.00    -0.096 C 
ATOM     22  H   UNL     1      -2.821  -3.498  -0.091  0.00  0.00    +0.151 HD
ATOM     23  H   UNL     1      -1.999  -6.262  -5.337  0.00  0.00    -0.082 HD
ENDROOT
BRANCH  16  24
ATOM     24  C   UNL     1      -5.306  -7.304  -1.393  0.00  0.00    -0.021 A 
ATOM     25  C   UNL     1      -5.731  -8.599  -1.622  0.00  0.00    +0.007 A 
ATOM     26  C   UNL     1      -5.990  -9.024  -2.911  0.00  0.00    +0.020 A 
ATOM     27  C   UNL     1      -5.823  -8.153  -3.973  0.00  0.00    +0.041 A 
ATOM     28  C   UNL     1      -5.397  -6.857  -3.744  0.00  0.00    +0.020 A 
ATOM     29  C   UNL     1      -5.144  -6.431  -2.453  0.00  0.00    +0.007 A 
ATOM     30 CL   UNL     1      -6.146  -8.687  -5.593  0.00  0.00    -0.084 Cl
ENDBRANCH  16  24
BRANCH   1  31
ATOM     31  C   UNL     1      -4.295  -1.990   0.156  0.00  0.00    +0.226 C 
BRANCH  31  32
ATOM     32  C   UNL     1      -3.158  -1.005   0.067  0.00  0.00    +0.324 C 
ATOM     33  O   UNL     1      -2.027  -1.401  -0.086  0.00  0.00    -0.249 OA
BRANCH  32  34
ATOM     34  O   UNL     1      -3.402   0.311   0.159  0.00  0.00    -0.464 OA
BRANCH  34  36
ATOM     35  C   UNL     1      -2.748   2.638   0.191  0.00  0.00    +0.048 C 
ATOM     36  C   UNL     1      -2.277   1.188   0.066  0.00  0.00    +0.229 C 
ENDBRANCH  34  36
ENDBRANCH  32  34
ENDBRANCH  31  32
ENDBRANCH   1  31
TORSDOF 5
