REMARK  Name = ZINC35379127
REMARK  7 active torsions:
REMARK  status: ('A' for Active; 'I' for Inactive)
REMARK    1  A    between atoms: C_1  and  C_2
REMARK    2  A    between atoms: C_5  and  N_9
REMARK    3  A    between atoms: C_10  and  C_12
REMARK    4  A    between atoms: N_17  and  S_19
REMARK    5  A    between atoms: S_19  and  C_22
REMARK    6  A    between atoms: C_27  and  C_28
REMARK    7  A    between atoms: C_32  and  C_35
REMARK                            x       y       z     vdW  Elec       q    Type
REMARK                         _______ _______ _______ _____ _____    ______ ____
ROOT
ATOM      1  C   UNL     1      -0.136  -6.343  -1.191  0.00  0.00    +0.091 C 
ATOM      2  C   UNL     1      -1.379  -6.778  -0.411  0.00  0.00    +0.015 C 
ATOM      3  C   UNL     1      -1.458  -8.306  -0.384  0.00  0.00    +0.018 C 
ATOM      4  C   UNL     1      -1.577  -8.833  -1.817  0.00  0.00    +0.109 C 
ATOM      5  N   UNL     1      -0.462  -8.300  -2.611  0.00  0.00    -0.176 NA
ATOM      6  C   UNL     1      -0.240  -6.848  -2.633  0.00  0.00    +0.122 C 
ENDROOT
BRANCH   1   8
ATOM      7  N   UNL     1       0.057  -4.171  -0.023  0.00  0.00    -0.284 N 
ATOM      8  C   UNL     1      -0.042  -4.839  -1.190  0.00  0.00    +0.222 C 
ATOM      9  O   UNL     1      -0.055  -4.230  -2.238  0.00  0.00    -0.275 OA
ATOM     10  H   UNL     1       0.149  -4.660   0.809  0.00  0.00    +0.155 HD
BRANCH   7  15
ATOM     11  C   UNL     1      -0.064   1.502   0.016  0.00  0.00    +0.044 C 
ATOM     12  C   UNL     1      -0.031  -0.005   0.006  0.00  0.00    -0.049 A 
ATOM     13  C   UNL     1      -0.622  -0.701  -1.033  0.00  0.00    +0.005 A 
ATOM     14  C   UNL     1      -0.594  -2.082  -1.045  0.00  0.00    +0.025 A 
ATOM     15  C   UNL     1       0.028  -2.772  -0.014  0.00  0.00    +0.052 A 
ATOM     16  C   UNL     1       0.621  -2.070   1.029  0.00  0.00    +0.062 A 
ATOM     17  C   UNL     1       0.594  -0.688   1.032  0.00  0.00    +0.025 A 
ATOM     18 CL   UNL     1       1.401  -2.928   2.321  0.00  0.00    -0.082 Cl
ENDBRANCH   7  15
ENDBRANCH   1   8
BRANCH   5  19
ATOM     19  S   UNL     1       0.527  -9.317  -3.466  0.00  0.00    +0.061 S 
ATOM     20  O   UNL     1       1.760  -8.633  -3.640  0.00  0.00    -0.153 OA
ATOM     21  O   UNL     1       0.443 -10.588  -2.836  0.00  0.00    -0.153 OA
BRANCH  19  22
ATOM     22  C   UNL     1      -0.178  -9.503  -5.070  0.00  0.00    +0.112 A 
ATOM     23  C   UNL     1       0.504  -9.036  -6.180  0.00  0.00    +0.076 A 
ATOM     24  C   UNL     1      -0.049  -9.182  -7.440  0.00  0.00    +0.145 A 
ATOM     25  C   UNL     1      -1.291  -9.799  -7.586  0.00  0.00    +0.076 A 
ATOM     26  C   UNL     1      -1.968 -10.264  -6.471  0.00  0.00    +0.032 A 
ATOM     27  C   UNL     1      -1.407 -10.119  -5.215  0.00  0.00    -0.022 A 
ATOM     28  C   UNL     1      -2.139 -10.630  -4.001  0.00  0.00    +0.046 C 
ATOM     29  N   UNL     1      -1.841  -9.938  -8.868  0.00  0.00    -0.280 N 
ATOM     30  C   UNL     1      -1.042  -9.770  -9.945  0.00  0.00    +0.258 C 
ATOM     31  O   UNL     1      -1.502  -9.855 -11.064  0.00  0.00    -0.271 OA
ATOM     32  C   UNL     1       0.423  -9.474  -9.749  0.00  0.00    +0.256 C 
ATOM     33  O   UNL     1       0.607  -8.730  -8.542  0.00  0.00    -0.478 OA
ATOM     34  C   UNL     1       1.201 -10.789  -9.660  0.00  0.00    +0.062 C 
ATOM     35  H   UNL     1      -2.780 -10.153  -8.981  0.00  0.00    +0.155 HD
ENDBRANCH  19  22
ENDBRANCH   5  19
TORSDOF 4
