REMARK  Name = ZINC43399734
REMARK  4 active torsions:
REMARK  status: ('A' for Active; 'I' for Inactive)
REMARK    1  A    between atoms: C_1  and  C_2
REMARK    2  A    between atoms: C_5  and  C_20
REMARK    3  A    between atoms: C_6  and  N_8
REMARK    4  A    between atoms: N_21  and  O_22
REMARK                            x       y       z     vdW  Elec       q    Type
REMARK                         _______ _______ _______ _____ _____    ______ ____
ROOT
ATOM      1  C   UNL     1       2.367  -0.499  -1.460  0.00  0.00    +0.065 C 
ATOM      2  C   UNL     1       1.150  -0.950  -0.695  0.00  0.00    +0.040 A 
ATOM      3  C   UNL     1      -0.107  -0.714  -1.220  0.00  0.00    +0.024 A 
ATOM      4  C   UNL     1      -1.228  -1.128  -0.518  0.00  0.00    +0.016 A 
ATOM      5  C   UNL     1      -1.042  -1.774   0.707  0.00  0.00    +0.058 A 
ATOM      6  C   UNL     1       0.265  -1.977   1.174  0.00  0.00    +0.132 A 
ATOM      7  N   UNL     1       1.302  -1.567   0.461  0.00  0.00    -0.237 NA
ENDROOT
BRANCH   6   8
ATOM      8  N   UNL     1       0.472  -2.616   2.386  0.00  0.00    -0.314 N 
ATOM      9  C   UNL     1       0.729  -4.061   2.438  0.00  0.00    +0.107 C 
ATOM     10  C   UNL     1       2.024  -4.303   3.218  0.00  0.00    +0.023 C 
ATOM     11  C   UNL     1       1.922  -3.636   4.592  0.00  0.00    -0.005 C 
ATOM     12  C   UNL     1       3.206  -3.907   5.380  0.00  0.00    +0.004 C 
ATOM     13  C   UNL     1       3.114  -3.239   6.753  0.00  0.00    +0.000 C 
ATOM     14  C   UNL     1       2.937  -1.730   6.574  0.00  0.00    +0.000 C 
ATOM     15  C   UNL     1       1.651  -1.460   5.791  0.00  0.00    +0.005 C 
ATOM     16  C   UNL     1       1.735  -2.128   4.417  0.00  0.00    +0.009 C 
ATOM     17  C   UNL     1       0.446  -1.860   3.646  0.00  0.00    +0.110 C 
ENDBRANCH   6   8
BRANCH   5  18
ATOM     18  C   UNL     1      -2.204  -2.235   1.497  0.00  0.00    +0.166 C 
ATOM     19  N   UNL     1      -2.018  -2.930   2.582  0.00  0.00    -0.071 NA
ATOM     20  N   UNL     1      -3.489  -1.929   1.082  0.00  0.00    -0.340 N 
ATOM     21  H   UNL     1      -3.627  -1.412   0.274  0.00  0.00    +0.144 HD
ATOM     22  H   UNL     1      -4.251  -2.232   1.601  0.00  0.00    +0.144 HD
BRANCH  19  23
ATOM     23  O   UNL     1      -3.129  -3.462   3.281  0.00  0.00    -0.408 OA
ATOM     24  H   UNL     1      -2.892  -3.962   4.074  0.00  0.00    +0.328 HD
ENDBRANCH  19  23
ENDBRANCH   5  18
TORSDOF 3
