REMARK  Name = ZINC14461237
REMARK  6 active torsions:
REMARK  status: ('A' for Active; 'I' for Inactive)
REMARK    1  A    between atoms: C_6  and  S_7
REMARK    2  A    between atoms: S_7  and  N_10
REMARK    3  A    between atoms: N_10  and  C_11
REMARK    4  A    between atoms: C_11  and  C_12
REMARK    5  A    between atoms: C_25  and  C_28
REMARK    6  A    between atoms: C_33  and  O_34
REMARK                            x       y       z     vdW  Elec       q    Type
REMARK                         _______ _______ _______ _____ _____    ______ ____
ROOT
ATOM      1  C   UNL     1      -1.846   1.033   2.000  0.00  0.00    +0.030 A 
ATOM      2  C   UNL     1      -2.564   1.411   3.116  0.00  0.00    +0.025 A 
ATOM      3  C   UNL     1      -2.366   2.662   3.688  0.00  0.00    +0.031 A 
ATOM      4  C   UNL     1      -1.427   3.531   3.120  0.00  0.00    -0.018 A 
ATOM      5  C   UNL     1      -0.717   3.145   2.004  0.00  0.00    +0.034 A 
ATOM      6  C   UNL     1      -0.927   1.900   1.439  0.00  0.00    +0.106 A 
ATOM      7  C   UNL     1      -1.230   4.843   3.773  0.00  0.00    +0.049 C 
ATOM      8  C   UNL     1      -0.740   6.051   3.041  0.00  0.00    -0.023 C 
ATOM      9  C   UNL     1      -1.288   7.137   3.574  0.00  0.00    -0.030 C 
ATOM     10  C   UNL     1      -2.218   6.743   4.724  0.00  0.00    +0.033 C 
ATOM     11  C   UNL     1      -2.608   5.312   4.329  0.00  0.00    +0.029 C 
ATOM     12  C   UNL     1      -2.939   4.348   5.454  0.00  0.00    +0.108 C 
ATOM     13  N   UNL     1      -3.120   3.030   4.809  0.00  0.00    -0.336 N 
ATOM     14  H   UNL     1      -3.772   2.409   5.169  0.00  0.00    +0.147 HD
ENDROOT
BRANCH  12  15
ATOM     15  C   UNL     1      -1.804   4.293   6.444  0.00  0.00    +0.015 A 
ATOM     16  C   UNL     1      -0.799   3.357   6.291  0.00  0.00    +0.024 A 
ATOM     17  C   UNL     1       0.243   3.306   7.199  0.00  0.00    +0.018 A 
ATOM     18  C   UNL     1       0.282   4.191   8.261  0.00  0.00    +0.019 A 
ATOM     19  C   UNL     1      -0.720   5.129   8.417  0.00  0.00    +0.047 A 
ATOM     20  C   UNL     1      -1.764   5.186   7.504  0.00  0.00    +0.122 A 
ATOM     21 BR   UNL     1       1.617   2.024   6.987  0.00  0.00    -0.050 Br
BRANCH  20  22
ATOM     22  O   UNL     1      -2.748   6.111   7.653  0.00  0.00    -0.506 OA
ATOM     23  H   UNL     1      -3.493   5.810   8.192  0.00  0.00    +0.292 HD
ENDBRANCH  20  22
ENDBRANCH  12  15
BRANCH   6  24
ATOM     24  S   UNL     1      -0.017   1.417   0.010  0.00  0.00    +0.058 S 
ATOM     25  O   UNL     1       0.002  -0.004   0.002  0.00  0.00    -0.153 OA
ATOM     26  O   UNL     1       1.172   2.195   0.003  0.00  0.00    -0.153 OA
BRANCH  24  27
ATOM     27  N   UNL     1      -0.897   1.885  -1.312  0.00  0.00    -0.187 NA
ATOM     28  H   UNL     1      -1.263   1.218  -1.913  0.00  0.00    +0.148 HD
BRANCH  27  29
ATOM     29  C   UNL     1      -1.125   3.309  -1.574  0.00  0.00    +0.137 C 
BRANCH  29  30
ATOM     30  C   UNL     1      -1.622   3.491  -3.009  0.00  0.00    +0.134 C 
ATOM     31  C   UNL     1      -1.857   4.986  -3.297  0.00  0.00    +0.035 C 
ATOM     32  C   UNL     1      -0.932   5.291  -4.501  0.00  0.00    +0.031 C 
ATOM     33  C   UNL     1      -0.702   3.879  -5.099  0.00  0.00    +0.160 C 
ATOM     34  O   UNL     1      -0.624   3.026  -3.934  0.00  0.00    -0.375 OA
ENDBRANCH  29  30
ENDBRANCH  27  29
ENDBRANCH  24  27
ENDBRANCH   6  24
TORSDOF 6
