REMARK  Name = ZINC37260968
REMARK  2 active torsions:
REMARK  status: ('A' for Active; 'I' for Inactive)
REMARK    1  A    between atoms: C_7  and  N_12
REMARK    2  A    between atoms: N_12  and  C_13
REMARK                            x       y       z     vdW  Elec       q    Type
REMARK                         _______ _______ _______ _____ _____    ______ ____
ROOT
ATOM      1  C   UNL     1      -0.017   1.381   0.010  0.00  0.00    +0.029 A 
ATOM      2  C   UNL     1       1.167   2.095   0.002  0.00  0.00    +0.043 A 
ATOM      3  C   UNL     1       2.378   1.426  -0.014  0.00  0.00    +0.043 A 
ATOM      4  C   UNL     1       2.402   0.045  -0.024  0.00  0.00    +0.084 A 
ATOM      5  C   UNL     1       1.211  -0.676  -0.017  0.00  0.00    +0.144 A 
ATOM      6  C   UNL     1       0.002  -0.004   0.002  0.00  0.00    +0.017 A 
ATOM      7  C   UNL     1      -1.310  -0.747   0.021  0.00  0.00    +0.108 C 
ATOM      8  C   UNL     1      -1.089  -2.194  -0.427  0.00  0.00    +0.068 C 
ATOM      9  C   UNL     1       0.107  -2.762   0.347  0.00  0.00    +0.231 C 
ATOM     10  O   UNL     1       1.276  -2.034  -0.033  0.00  0.00    -0.490 OA
ATOM     11 CL   UNL     1       3.921  -0.794  -0.046  0.00  0.00    -0.080 Cl
ATOM     12 CL   UNL     1       1.134   3.831   0.012  0.00  0.00    -0.083 Cl
ENDROOT
BRANCH   7  13
ATOM     13  N   UNL     1      -2.253  -0.094  -0.890  0.00  0.00    -0.334 N 
ATOM     14  H   UNL     1      -2.349  -0.415  -1.800  0.00  0.00    +0.147 HD
BRANCH  13  15
ATOM     15  C   UNL     1      -3.020   0.999  -0.443  0.00  0.00    +0.065 A 
ATOM     16  C   UNL     1      -3.930   1.689  -1.177  0.00  0.00    +0.127 A 
ATOM     17  N   UNL     1      -4.446   2.662  -0.380  0.00  0.00    -0.283 N 
ATOM     18  H   UNL     1      -5.120   3.311  -0.634  0.00  0.00    +0.188 HD
ATOM     19  N   UNL     1      -3.832   2.561   0.875  0.00  0.00    -0.180 NA
ATOM     20  C   UNL     1      -2.984   1.564   0.839  0.00  0.00    +0.157 A 
ENDBRANCH  13  15
ENDBRANCH   7  13
TORSDOF 2
