REMARK  Name = ZINC06077295
REMARK  6 active torsions:
REMARK  status: ('A' for Active; 'I' for Inactive)
REMARK    1  A    between atoms: C_1  and  C_2
REMARK    2  A    between atoms: C_3  and  C_28
REMARK    3  A    between atoms: C_4  and  C_20
REMARK    4  A    between atoms: C_10  and  C_15
REMARK    5  A    between atoms: C_23  and  O_26
REMARK    6  A    between atoms: O_26  and  C_27
REMARK                            x       y       z     vdW  Elec       q    Type
REMARK                         _______ _______ _______ _____ _____    ______ ____
ROOT
ATOM      1  C   UNL     1      -2.350  -0.275   0.225  0.00  0.00    +0.061 C 
ATOM      2  C   UNL     1      -2.390   1.229   0.131  0.00  0.00    +0.014 C 
ATOM      3  C   UNL     1      -1.243   1.920   0.020  0.00  0.00    +0.043 C 
ATOM      4  C   UNL     1      -1.244   3.418  -0.076  0.00  0.00    +0.090 C 
ATOM      5  C   UNL     1      -2.559   3.991   0.383  0.00  0.00    +0.024 C 
ATOM      6  C   UNL     1      -3.658   3.211   0.472  0.00  0.00    +0.016 C 
ATOM      7  N   UNL     1      -3.592   1.880   0.159  0.00  0.00    -0.321 N 
ATOM      8  C   UNL     1      -4.983   3.783   0.913  0.00  0.00    +0.062 C 
ATOM      9  C   UNL     1      -4.744   4.935   1.891  0.00  0.00    +0.068 C 
ATOM     10  C   UNL     1      -3.885   5.995   1.193  0.00  0.00    +0.091 C 
ATOM     11  C   UNL     1      -2.610   5.355   0.716  0.00  0.00    +0.162 C 
ATOM     12  O   UNL     1      -1.605   6.031   0.616  0.00  0.00    -0.292 OA
ATOM     13  H   UNL     1      -4.519   1.333  -0.071  0.00  0.00    +0.152 HD
ENDROOT
BRANCH   3  14
ATOM     14  C   UNL     1      -0.011   1.223  -0.001  0.00  0.00    +0.248 C 
ATOM     15  O   UNL     1       0.651   1.126   1.016  0.00  0.00    -0.270 OA
ATOM     16  N   UNL     1       0.427   0.662  -1.146  0.00  0.00    -0.267 N 
ATOM     17  C   UNL     1       1.686   0.070  -1.194  0.00  0.00    +0.125 A 
ATOM     18  C   UNL     1       2.178  -0.407  -2.405  0.00  0.00    +0.044 A 
ATOM     19  C   UNL     1       3.433  -0.989  -2.439  0.00  0.00    +0.005 A 
ATOM     20  C   UNL     1       4.151  -1.085  -1.255  0.00  0.00    +0.020 A 
ATOM     21  C   UNL     1       3.599  -0.596  -0.088  0.00  0.00    +0.113 A 
ATOM     22  N   UNL     1       2.402  -0.041  -0.086  0.00  0.00    -0.240 NA
ATOM     23  H   UNL     1      -0.211   0.673  -2.042  0.00  0.00    +0.157 HD
ENDBRANCH   3  14
BRANCH   4  24
ATOM     24  C   UNL     1      -1.006   3.822  -1.509  0.00  0.00    -0.035 A 
ATOM     25  C   UNL     1      -1.885   3.413  -2.496  0.00  0.00    +0.008 A 
ATOM     26  C   UNL     1      -1.673   3.787  -3.809  0.00  0.00    +0.046 A 
ATOM     27  C   UNL     1      -0.571   4.563  -4.138  0.00  0.00    +0.120 A 
ATOM     28  C   UNL     1       0.312   4.966  -3.147  0.00  0.00    +0.046 A 
ATOM     29  C   UNL     1       0.092   4.595  -1.835  0.00  0.00    +0.008 A 
BRANCH  27  30
ATOM     30  O   UNL     1      -0.356   4.926  -5.430  0.00  0.00    -0.495 OA
ATOM     31  C   UNL     1      -1.306   4.475  -6.397  0.00  0.00    +0.277 C 
ENDBRANCH  27  30
ENDBRANCH   4  24
BRANCH   9  32
ATOM     32  C   UNL     1      -6.065   5.539   2.293  0.00  0.00    +0.109 A 
ATOM     33  C   UNL     1      -6.551   5.604   3.546  0.00  0.00    +0.045 A 
ATOM     34  C   UNL     1      -7.808   6.248   3.464  0.00  0.00    +0.041 A 
ATOM     35  C   UNL     1      -8.018   6.530   2.166  0.00  0.00    +0.195 A 
ATOM     36  O   UNL     1      -6.959   6.098   1.461  0.00  0.00    -0.468 OA
ENDBRANCH   9  32
TORSDOF 4
