REMARK  Name = ZINC45245373
REMARK  13 active torsions:
REMARK  status: ('A' for Active; 'I' for Inactive)
REMARK    1  A    between atoms: C_1  and  C_2
REMARK    2  A    between atoms: C_2  and  O_3
REMARK    3  A    between atoms: O_3  and  C_4
REMARK    4  A    between atoms: C_7  and  N_10
REMARK    5  A    between atoms: N_10  and  C_11
REMARK    6  A    between atoms: C_12  and  C_38
REMARK    7  A    between atoms: C_13  and  N_22
REMARK    8  A    between atoms: C_14  and  C_20
REMARK    9  A    between atoms: N_22  and  C_23
REMARK   10  A    between atoms: C_26  and  N_29
REMARK   11  A    between atoms: N_29  and  C_30
REMARK   12  A    between atoms: C_30  and  C_31
REMARK   13  A    between atoms: C_31  and  C_32
REMARK                            x       y       z     vdW  Elec       q    Type
REMARK                         _______ _______ _______ _____ _____    ______ ____
ROOT
ATOM      1  C   UNL     1       4.647  -6.924  -2.973  0.00  0.00    +0.130 A 
ATOM      2  C   UNL     1       4.183  -8.154  -3.319  0.00  0.00    +0.012 A 
ATOM      3  C   UNL     1       2.845  -8.347  -3.680  0.00  0.00    +0.053 A 
ATOM      4  C   UNL     1       1.973  -7.246  -3.682  0.00  0.00    +0.098 A 
ATOM      5  C   UNL     1       2.511  -5.936  -3.303  0.00  0.00    +0.088 A 
ATOM      6  N   UNL     1       3.832  -5.824  -2.956  0.00  0.00    -0.217 N 
ATOM      7  N   UNL     1       4.067  -4.479  -2.638  0.00  0.00    -0.173 NA
ATOM      8  C   UNL     1       2.949  -3.807  -2.778  0.00  0.00    +0.135 A 
ATOM      9  C   UNL     1       1.950  -4.677  -3.200  0.00  0.00    +0.050 A 
ATOM     10  C   UNL     1       5.125  -9.330  -3.313  0.00  0.00    +0.049 C 
ENDROOT
BRANCH   1  11
ATOM     11  N   UNL     1       5.974  -6.781  -2.625  0.00  0.00    -0.299 N 
ATOM     12  H   UNL     1       6.340  -7.294  -1.887  0.00  0.00    +0.154 HD
BRANCH  11  16
ATOM     13  C   UNL     1       8.412  -4.146  -4.743  0.00  0.00    +0.121 A 
ATOM     14  C   UNL     1       8.893  -4.768  -3.600  0.00  0.00    +0.047 A 
ATOM     15  C   UNL     1       8.086  -5.641  -2.898  0.00  0.00    +0.027 A 
ATOM     16  C   UNL     1       6.793  -5.896  -3.336  0.00  0.00    +0.033 A 
ATOM     17  C   UNL     1       6.312  -5.272  -4.480  0.00  0.00    +0.027 A 
ATOM     18  C   UNL     1       7.119  -4.395  -5.178  0.00  0.00    +0.047 A 
BRANCH  13  19
ATOM     19  O   UNL     1       9.208  -3.286  -5.434  0.00  0.00    -0.492 OA
BRANCH  19  21
ATOM     20  C   UNL     1      11.268  -2.086  -5.831  0.00  0.00    +0.048 C 
ATOM     21  C   UNL     1      10.528  -3.076  -4.929  0.00  0.00    +0.225 C 
ENDBRANCH  19  21
ENDBRANCH  13  19
ENDBRANCH  11  16
ENDBRANCH   1  11
BRANCH   4  22
ATOM     22  C   UNL     1       0.597  -7.399  -4.045  0.00  0.00    +0.103 C 
ATOM     23  N   UNL     1      -0.495  -7.519  -4.333  0.00  0.00    -0.191 NA
ENDBRANCH   4  22
BRANCH   3  24
ATOM     24  N   UNL     1       2.386  -9.606  -4.030  0.00  0.00    -0.340 N 
ATOM     25  H   UNL     1       1.704 -10.041  -3.494  0.00  0.00    +0.146 HD
BRANCH  24  26
ATOM     26  C   UNL     1       2.931 -10.282  -5.210  0.00  0.00    +0.070 C 
ATOM     27  C   UNL     1       1.877 -10.303  -6.318  0.00  0.00    +0.020 C 
ATOM     28  C   UNL     1       0.636 -11.053  -5.829  0.00  0.00    -0.014 C 
ATOM     29  C   UNL     1       1.020 -12.488  -5.463  0.00  0.00    -0.072 C 
ATOM     30  C   UNL     1       2.074 -12.467  -4.354  0.00  0.00    -0.014 C 
ATOM     31  C   UNL     1       3.314 -11.717  -4.844  0.00  0.00    +0.020 C 
BRANCH  29  32
ATOM     32  N   UNL     1      -0.171 -13.208  -4.992  0.00  0.00    +0.381 N 
ATOM     33  H   UNL     1      -0.498 -12.792  -4.133  0.00  0.00    -0.086 HD
ATOM     34  H   UNL     1      -0.897 -13.151  -5.691  0.00  0.00    -0.086 HD
BRANCH  32  35
ATOM     35  C   UNL     1       0.170 -14.617  -4.755  0.00  0.00    -0.078 C 
BRANCH  35  36
ATOM     36  C   UNL     1      -1.070 -15.367  -4.265  0.00  0.00    +0.016 C 
BRANCH  36  37
ATOM     37  C   UNL     1      -0.720 -16.812  -4.021  0.00  0.00    -0.049 A 
ATOM     38  C   UNL     1      -0.843 -17.735  -5.043  0.00  0.00    +0.003 A 
ATOM     39  C   UNL     1      -0.521 -19.061  -4.820  0.00  0.00    +0.000 A 
ATOM     40  C   UNL     1      -0.076 -19.463  -3.575  0.00  0.00    +0.000 A 
ATOM     41  C   UNL     1       0.048 -18.541  -2.553  0.00  0.00    +0.000 A 
ATOM     42  C   UNL     1      -0.270 -17.214  -2.778  0.00  0.00    +0.003 A 
ENDBRANCH  36  37
ENDBRANCH  35  36
ENDBRANCH  32  35
ENDBRANCH  29  32
ENDBRANCH  24  26
ENDBRANCH   3  24
TORSDOF 11
