REMARK  Name = ZINC19165263
REMARK  6 active torsions:
REMARK  status: ('A' for Active; 'I' for Inactive)
REMARK    1  A    between atoms: C_5  and  C_7
REMARK    2  A    between atoms: C_10  and  C_12
REMARK    3  A    between atoms: C_13  and  C_14
REMARK    4  A    between atoms: N_16  and  C_17
REMARK    5  A    between atoms: C_21  and  S_23
REMARK    6  A    between atoms: S_23  and  N_26
REMARK                            x       y       z     vdW  Elec       q    Type
REMARK                         _______ _______ _______ _____ _____    ______ ____
ROOT
ATOM      1  C   UNL     1       4.278  -6.118  -2.686  0.00  0.00    +0.241 C 
ATOM      2  O   UNL     1       4.489  -7.157  -2.085  0.00  0.00    -0.270 OA
ATOM      3  N   UNL     1       4.600  -6.018  -3.991  0.00  0.00    -0.282 N 
ATOM      4  H   UNL     1       4.371  -5.216  -4.487  0.00  0.00    +0.155 HD
ENDROOT
BRANCH   3   5
ATOM      5  C   UNL     1       5.263  -7.069  -4.631  0.00  0.00    +0.036 A 
ATOM      6  C   UNL     1       4.979  -8.384  -4.284  0.00  0.00    +0.023 A 
ATOM      7  C   UNL     1       5.636  -9.421  -4.918  0.00  0.00    +0.004 A 
ATOM      8  C   UNL     1       6.576  -9.150  -5.896  0.00  0.00    +0.029 A 
ATOM      9  C   UNL     1       6.861  -7.843  -6.242  0.00  0.00    +0.114 A 
ATOM     10  C   UNL     1       6.203  -6.802  -5.617  0.00  0.00    +0.052 A 
BRANCH   9  11
ATOM     11  S   UNL     1       8.060  -7.504  -7.488  0.00  0.00    +0.100 S 
ATOM     12  O   UNL     1       8.539  -6.189  -7.245  0.00  0.00    -0.146 OA
ATOM     13  O   UNL     1       8.924  -8.632  -7.538  0.00  0.00    -0.146 OA
BRANCH  11  14
ATOM     14  N   UNL     1       7.260  -7.456  -8.938  0.00  0.00    -0.118 NA
ATOM     15  C   UNL     1       7.913  -7.221 -10.029  0.00  0.00    +0.117 C 
ATOM     16  N   UNL     1       9.263  -7.005 -10.112  0.00  0.00    -0.331 N 
ATOM     17  C   UNL     1       9.711  -7.261 -11.490  0.00  0.00    +0.103 C 
ATOM     18  C   UNL     1       8.492  -6.898 -12.366  0.00  0.00    +0.026 C 
ATOM     19  C   UNL     1       7.305  -7.151 -11.412  0.00  0.00    +0.074 C 
ATOM     20  H   UNL     1       9.834  -6.728  -9.378  0.00  0.00    +0.147 HD
ENDBRANCH  11  14
ENDBRANCH   9  11
ENDBRANCH   3   5
BRANCH   1  22
ATOM     21  C   UNL     1       3.372  -5.120  -0.700  0.00  0.00    +0.051 C 
ATOM     22  C   UNL     1       3.696  -5.019  -2.015  0.00  0.00    +0.071 C 
BRANCH  21  26
ATOM     23  C   UNL     1       1.961  -2.021   0.358  0.00  0.00    +0.138 A 
ATOM     24  C   UNL     1       1.888  -2.718   1.543  0.00  0.00    +0.050 A 
ATOM     25  C   UNL     1       2.413  -3.990   1.301  0.00  0.00    +0.050 A 
ATOM     26  C   UNL     1       2.790  -4.021  -0.029  0.00  0.00    +0.129 A 
ATOM     27  O   UNL     1       2.501  -2.822  -0.578  0.00  0.00    -0.455 OA
BRANCH  23  32
ATOM     28  C   UNL     1      -0.165   1.073   0.366  0.00  0.00    +0.001 A 
ATOM     29  C   UNL     1       0.679   1.983  -0.246  0.00  0.00    +0.003 A 
ATOM     30  C   UNL     1       1.940   1.596  -0.662  0.00  0.00    +0.039 A 
ATOM     31  C   UNL     1       2.365   0.295  -0.470  0.00  0.00    +0.134 A 
ATOM     32  C   UNL     1       1.516  -0.629   0.149  0.00  0.00    +0.052 A 
ATOM     33  C   UNL     1       0.244  -0.229   0.566  0.00  0.00    +0.014 A 
ATOM     34  F   UNL     1       3.596  -0.083  -0.877  0.00  0.00    -0.205 F 
ENDBRANCH  23  32
ENDBRANCH  21  26
ENDBRANCH   1  22
TORSDOF 6
