REMARK  Name = ZINC11847503
REMARK  9 active torsions:
REMARK  status: ('A' for Active; 'I' for Inactive)
REMARK    1  A    between atoms: C_1  and  C_2
REMARK    2  A    between atoms: C_7  and  O_8
REMARK    3  A    between atoms: O_8  and  C_9
REMARK    4  A    between atoms: C_9  and  C_10
REMARK    5  A    between atoms: C_10  and  C_12
REMARK    6  A    between atoms: C_10  and  O_34
REMARK    7  A    between atoms: C_12  and  N_64
REMARK    8  A    between atoms: C_15  and  C_18
REMARK    9  A    between atoms: C_18  and  N_19
REMARK                            x       y       z     vdW  Elec       q    Type
REMARK                         _______ _______ _______ _____ _____    ______ ____
ROOT
ATOM      1  C   UNL     1       5.841  -2.456  -1.006  0.00  0.00    -0.078 C 
ATOM      2  C   UNL     1       7.322  -2.773  -0.792  0.00  0.00    -0.014 C 
ATOM      3  C   UNL     1       7.481  -4.265  -0.486  0.00  0.00    +0.003 C 
ATOM      4  C   UNL     1       6.644  -4.617   0.747  0.00  0.00    -0.014 C 
ATOM      5  C   UNL     1       5.182  -4.247   0.488  0.00  0.00    -0.078 C 
ATOM      6  N   UNL     1       5.095  -2.795   0.224  0.00  0.00    +0.381 N 
ATOM      7  H   UNL     1       5.508  -2.288   1.015  0.00  0.00    -0.082 HD
ENDROOT
BRANCH   6   8
ATOM      8  C   UNL     1       3.680  -2.392   0.084  0.00  0.00    -0.044 C 
BRANCH   8   9
ATOM      9  C   UNL     1       3.055  -2.307   1.478  0.00  0.00    +0.135 C 
BRANCH   9  10
ATOM     10  O   UNL     1       3.765  -1.344   2.260  0.00  0.00    -0.390 OA
ATOM     11  H   UNL     1       3.756  -0.452   1.888  0.00  0.00    +0.210 HD
ENDBRANCH   9  10
BRANCH   9  12
ATOM     12  C   UNL     1       1.590  -1.883   1.354  0.00  0.00    +0.258 C 
BRANCH  12  13
ATOM     13  O   UNL     1       0.975  -1.916   2.644  0.00  0.00    -0.489 OA
BRANCH  13  20
ATOM     14  C   UNL     1      -0.260  -1.975   5.183  0.00  0.00    +0.047 C 
ATOM     15  C   UNL     1      -0.997  -1.575   3.931  0.00  0.00    -0.007 A 
ATOM     16  C   UNL     1      -2.330  -1.218   3.997  0.00  0.00    +0.027 A 
ATOM     17  C   UNL     1      -3.006  -0.850   2.847  0.00  0.00    +0.041 A 
ATOM     18  C   UNL     1      -2.348  -0.835   1.630  0.00  0.00    +0.023 A 
ATOM     19  C   UNL     1      -1.017  -1.196   1.559  0.00  0.00    +0.047 A 
ATOM     20  C   UNL     1      -0.337  -1.565   2.711  0.00  0.00    +0.124 A 
ATOM     21 CL   UNL     1      -4.681  -0.402   2.933  0.00  0.00    -0.084 Cl
ENDBRANCH  13  20
ENDBRANCH  12  13
ENDBRANCH   9  12
ENDBRANCH   8   9
ENDBRANCH   6   8
BRANCH   3  22
ATOM     22  C   UNL     1       8.954  -4.577  -0.211  0.00  0.00    +0.120 C 
BRANCH  22  23
ATOM     23  N   UNL     1       9.736  -4.352  -1.429  0.00  0.00    -0.234 N 
ATOM     24  C   UNL     1       9.910  -5.377  -2.286  0.00  0.00    +0.254 C 
ATOM     25  O   UNL     1       9.419  -6.461  -2.039  0.00  0.00    -0.270 OA
ATOM     26  C   UNL     1      10.685  -5.189  -3.521  0.00  0.00    +0.046 A 
ATOM     27  C   UNL     1      10.884  -6.214  -4.434  0.00  0.00    +0.014 A 
ATOM     28  C   UNL     1      11.628  -5.989  -5.586  0.00  0.00    +0.001 A 
ATOM     29  C   UNL     1      12.181  -4.769  -5.853  0.00  0.00    +0.008 A 
ATOM     30  C   UNL     1      12.003  -3.704  -4.954  0.00  0.00    -0.016 A 
ATOM     31  C   UNL     1      11.249  -3.919  -3.781  0.00  0.00    +0.006 A 
ATOM     32  C   UNL     1      11.052  -2.868  -2.858  0.00  0.00    +0.046 A 
ATOM     33  C   UNL     1      11.609  -1.626  -3.123  0.00  0.00    +0.014 A 
ATOM     34  C   UNL     1      12.350  -1.425  -4.282  0.00  0.00    +0.001 A 
ATOM     35  C   UNL     1      12.550  -2.429  -5.185  0.00  0.00    +0.008 A 
ATOM     36  C   UNL     1      10.260  -3.131  -1.647  0.00  0.00    +0.254 C 
ATOM     37  O   UNL     1      10.078  -2.242  -0.838  0.00  0.00    -0.270 OA
ENDBRANCH  22  23
ENDBRANCH   3  22
TORSDOF 8
