REMARK  Name = ZINC64623250
REMARK  10 active torsions:
REMARK  status: ('A' for Active; 'I' for Inactive)
REMARK    1  A    between atoms: C_1  and  C_2
REMARK    2  A    between atoms: C_2  and  O_3
REMARK    3  A    between atoms: O_3  and  C_4
REMARK    4  A    between atoms: C_4  and  C_6
REMARK    5  A    between atoms: C_6  and  C_7
REMARK    6  A    between atoms: C_10  and  N_13
REMARK    7  A    between atoms: C_22  and  O_38
REMARK    8  A    between atoms: C_29  and  C_31
REMARK    9  A    between atoms: C_34  and  C_37
REMARK   10  A    between atoms: O_38  and  C_39
REMARK                            x       y       z     vdW  Elec       q    Type
REMARK                         _______ _______ _______ _____ _____    ______ ____
ROOT
ATOM      1  N   UNL     1      -4.222  -8.710   0.259  0.00  0.00    -0.269 N 
ATOM      2  C   UNL     1      -3.490  -9.146   1.303  0.00  0.00    +0.307 C 
ATOM      3  O   UNL     1      -3.432  -8.487   2.324  0.00  0.00    -0.252 OA
ATOM      4  N   UNL     1      -2.820 -10.313   1.216  0.00  0.00    -0.276 N 
ATOM      5  C   UNL     1      -2.799 -11.043  -0.056  0.00  0.00    +0.114 C 
ATOM      6  C   UNL     1      -1.341 -11.246  -0.506  0.00  0.00    +0.052 C 
ATOM      7  C   UNL     1      -0.573 -11.709   0.707  0.00  0.00    -0.035 C 
ATOM      8  C   UNL     1       0.226 -12.752   0.895  0.00  0.00    +0.003 A 
ATOM      9  C   UNL     1       0.743 -13.773  -0.029  0.00  0.00    +0.055 A 
ATOM     10  C   UNL     1       1.542 -14.735   0.509  0.00  0.00    +0.121 A 
ATOM     11  C   UNL     1       1.887 -14.798   1.867  0.00  0.00    +0.047 A 
ATOM     12  C   UNL     1       1.474 -13.906   2.803  0.00  0.00    +0.029 A 
ATOM     13  C   UNL     1       0.609 -12.811   2.340  0.00  0.00    +0.043 A 
ATOM     14  N   UNL     1       0.089 -11.816   2.991  0.00  0.00    -0.375 N 
ATOM     15  C   UNL     1      -0.634 -10.970   2.039  0.00  0.00    +0.131 C 
ATOM     16  C   UNL     1      -2.113 -10.836   2.395  0.00  0.00    +0.134 C 
ATOM     17  H   UNL     1      -4.320  -9.265  -0.530  0.00  0.00    +0.156 HD
ATOM     18  H   UNL     1       0.165 -11.659   3.945  0.00  0.00    +0.160 HD
ENDROOT
BRANCH  16  19
ATOM     19  C   UNL     1      -2.272  -9.882   3.551  0.00  0.00    -0.025 A 
ATOM     20  C   UNL     1      -1.576  -8.688   3.563  0.00  0.00    +0.006 A 
ATOM     21  C   UNL     1      -1.722  -7.813   4.623  0.00  0.00    +0.004 A 
ATOM     22  C   UNL     1      -2.566  -8.132   5.671  0.00  0.00    -0.050 A 
ATOM     23  C   UNL     1      -3.263  -9.326   5.659  0.00  0.00    +0.004 A 
ATOM     24  C   UNL     1      -3.119 -10.199   4.596  0.00  0.00    +0.006 A 
ATOM     25  C   UNL     1      -2.724  -7.179   6.827  0.00  0.00    +0.044 C 
ENDBRANCH  16  19
BRANCH   1  29
ATOM     26  C   UNL     1      -6.068  -4.978   0.424  0.00  0.00    -0.037 A 
ATOM     27  C   UNL     1      -5.529  -5.429  -0.767  0.00  0.00    +0.006 A 
ATOM     28  C   UNL     1      -4.916  -6.666  -0.825  0.00  0.00    +0.023 A 
ATOM     29  C   UNL     1      -4.842  -7.456   0.315  0.00  0.00    +0.035 A 
ATOM     30  C   UNL     1      -5.384  -7.000   1.509  0.00  0.00    +0.023 A 
ATOM     31  C   UNL     1      -5.990  -5.761   1.562  0.00  0.00    +0.006 A 
BRANCH  26  32
ATOM     32  C   UNL     1      -6.736  -3.629   0.484  0.00  0.00    +0.155 C 
BRANCH  32  33
ATOM     33  C   UNL     1      -5.713  -2.578   0.832  0.00  0.00    +0.311 C 
ATOM     34  O   UNL     1      -4.561  -2.892   1.014  0.00  0.00    -0.250 OA
BRANCH  33  35
ATOM     35  O   UNL     1      -6.083  -1.292   0.941  0.00  0.00    -0.465 OA
BRANCH  35  37
ATOM     36  C   UNL     1      -5.669   1.053   1.353  0.00  0.00    +0.048 C 
ATOM     37  C   UNL     1      -5.062  -0.349   1.274  0.00  0.00    +0.229 C 
ENDBRANCH  35  37
ENDBRANCH  33  35
ENDBRANCH  32  33
ENDBRANCH  26  32
ENDBRANCH   1  29
BRANCH  10  38
ATOM     38  O   UNL     1       2.035 -15.692  -0.320  0.00  0.00    -0.495 OA
ATOM     39  C   UNL     1       2.872 -16.691   0.267  0.00  0.00    +0.277 C 
ENDBRANCH  10  38
TORSDOF 7
