REMARK  Name = ZINC16032406
REMARK  16 active torsions:
REMARK  status: ('A' for Active; 'I' for Inactive)
REMARK    1  A    between atoms: C_1  and  C_2
REMARK    2  A    between atoms: C_2  and  C_3
REMARK    3  A    between atoms: C_3  and  C_4
REMARK    4  A    between atoms: C_4  and  C_5
REMARK    5  A    between atoms: C_5  and  C_6
REMARK    6  A    between atoms: C_6  and  N_7
REMARK    7  A    between atoms: C_8  and  C_10
REMARK    8  A    between atoms: C_10  and  N_75
REMARK    9  A    between atoms: C_13  and  O_34
REMARK   10  A    between atoms: C_20  and  C_22
REMARK   11  A    between atoms: C_24  and  O_32
REMARK   12  A    between atoms: C_25  and  O_30
REMARK   13  A    between atoms: C_26  and  O_28
REMARK   14  A    between atoms: O_28  and  C_29
REMARK   15  A    between atoms: O_30  and  C_31
REMARK   16  A    between atoms: O_32  and  C_33
REMARK                            x       y       z     vdW  Elec       q    Type
REMARK                         _______ _______ _______ _____ _____    ______ ____
ROOT
ATOM      1  C   UNL     1      -0.451   3.958  -1.227  0.00  0.00    -0.075 C 
ATOM      2  C   UNL     1      -0.078   5.439  -1.131  0.00  0.00    +0.016 C 
ATOM      3  C   UNL     1      -1.341   6.260  -0.859  0.00  0.00    +0.066 C 
ATOM      4  C   UNL     1      -0.976   7.737  -0.718  0.00  0.00    +0.035 C 
ATOM      5  C   UNL     1      -0.007   7.918   0.452  0.00  0.00    +0.003 C 
ATOM      6  C   UNL     1      -0.672   7.431   1.741  0.00  0.00    +0.000 C 
ATOM      7  C   UNL     1      -1.027   5.950   1.601  0.00  0.00    +0.005 C 
ATOM      8  C   UNL     1      -1.996   5.762   0.432  0.00  0.00    +0.011 C 
ATOM      9  C   UNL     1      -2.321   4.273   0.283  0.00  0.00    -0.031 C 
ATOM     10  N   UNL     1      -1.063   3.532   0.050  0.00  0.00    +0.390 N 
ATOM     11  H   UNL     1      -0.410   3.734   0.816  0.00  0.00    -0.080 HD
ENDROOT
BRANCH   9  12
ATOM     12  C   UNL     1      -2.958   3.768   1.553  0.00  0.00    -0.053 A 
ATOM     13  C   UNL     1      -2.167   3.449   2.641  0.00  0.00    +0.051 A 
ATOM     14  C   UNL     1      -2.749   2.990   3.812  0.00  0.00    +0.165 A 
ATOM     15  C   UNL     1      -4.129   2.840   3.888  0.00  0.00    +0.204 A 
ATOM     16  C   UNL     1      -4.920   3.156   2.790  0.00  0.00    +0.165 A 
ATOM     17  C   UNL     1      -4.330   3.620   1.624  0.00  0.00    +0.051 A 
BRANCH  16  18
ATOM     18  O   UNL     1      -6.270   3.010   2.859  0.00  0.00    -0.491 OA
ATOM     19  C   UNL     1      -7.020   3.354   1.692  0.00  0.00    +0.277 C 
ENDBRANCH  16  18
BRANCH  15  20
ATOM     20  O   UNL     1      -4.704   2.383   5.034  0.00  0.00    -0.488 OA
ATOM     21  C   UNL     1      -4.870   0.969   5.158  0.00  0.00    +0.277 C 
ENDBRANCH  15  20
BRANCH  14  22
ATOM     22  O   UNL     1      -1.971   2.682   4.884  0.00  0.00    -0.491 OA
ATOM     23  C   UNL     1      -0.561   2.861   4.735  0.00  0.00    +0.277 C 
ENDBRANCH  14  22
ENDBRANCH   9  12
BRANCH   3  24
ATOM     24  O   UNL     1      -2.256   6.098  -1.945  0.00  0.00    -0.388 OA
ATOM     25  H   UNL     1      -1.906   6.386  -2.800  0.00  0.00    +0.210 HD
ENDBRANCH   3  24
BRANCH  10  26
ATOM     26  C   UNL     1      -1.331   2.079   0.020  0.00  0.00    +0.019 C 
BRANCH  26  28
ATOM     27  N   UNL     1       0.002  -0.004   0.002  0.00  0.00    -0.317 N 
ATOM     28  C   UNL     1      -0.016   1.344   0.009  0.00  0.00    +0.196 C 
ATOM     29  O   UNL     1       1.026   1.964   0.003  0.00  0.00    -0.278 OA
ATOM     30  H   UNL     1      -0.831  -0.500   0.007  0.00  0.00    +0.149 HD
BRANCH  27  31
ATOM     31  C   UNL     1       1.281  -0.719  -0.014  0.00  0.00    +0.104 C 
BRANCH  31  32
ATOM     32  C   UNL     1       1.021  -2.227  -0.020  0.00  0.00    +0.019 C 
BRANCH  32  33
ATOM     33  C   UNL     1       2.357  -2.974  -0.036  0.00  0.00    +0.002 C 
BRANCH  33  34
ATOM     34  C   UNL     1       2.098  -4.482  -0.042  0.00  0.00    -0.000 C 
BRANCH  34  36
ATOM     35  C   UNL     1       3.174  -6.737  -0.064  0.00  0.00    +0.004 C 
ATOM     36  C   UNL     1       3.433  -5.229  -0.059  0.00  0.00    -0.003 C 
ENDBRANCH  34  36
ENDBRANCH  33  34
ENDBRANCH  32  33
ENDBRANCH  31  32
ENDBRANCH  27  31
ENDBRANCH  26  28
ENDBRANCH  10  26
TORSDOF 12
