REMARK  Name = ZINC43746402
REMARK  6 active torsions:
REMARK  status: ('A' for Active; 'I' for Inactive)
REMARK    1  A    between atoms: C_1  and  O_2
REMARK    2  A    between atoms: O_2  and  C_3
REMARK    3  A    between atoms: C_6  and  C_11
REMARK    4  A    between atoms: C_8  and  O_9
REMARK    5  A    between atoms: O_9  and  C_10
REMARK    6  A    between atoms: C_11  and  C_13
REMARK                            x       y       z     vdW  Elec       q    Type
REMARK                         _______ _______ _______ _____ _____    ______ ____
ROOT
ATOM      1  C   UNL     1      -6.169  -1.717   0.094  0.00  0.00    +0.066 C 
ATOM      2  C   UNL     1      -6.499  -1.344   1.550  0.00  0.00    -0.055 C 
ATOM      3  C   UNL     1      -5.897   0.024   1.898  0.00  0.00    -0.016 C 
ATOM      4  C   UNL     1      -7.107   0.911   2.271  0.00  0.00    -0.020 C 
ATOM      5  C   UNL     1      -8.279   0.223   1.531  0.00  0.00    -0.076 C 
ATOM      6  N   UNL     1      -7.973  -1.247   1.643  0.00  0.00    +0.395 N 
ATOM      7  C   UNL     1      -8.559  -1.941   0.486  0.00  0.00    +0.060 C 
ATOM      8  C   UNL     1      -7.420  -2.474  -0.377  0.00  0.00    +0.085 C 
ATOM      9  C   UNL     1      -7.244  -3.959  -0.227  0.00  0.00    -0.011 A 
ATOM     10  C   UNL     1      -6.992  -4.779   0.851  0.00  0.00    +0.006 A 
ATOM     11  C   UNL     1      -6.878  -6.146   0.668  0.00  0.00    +0.000 A 
ATOM     12  C   UNL     1      -7.019  -6.685  -0.597  0.00  0.00    +0.002 A 
ATOM     13  C   UNL     1      -7.273  -5.868  -1.679  0.00  0.00    +0.023 A 
ATOM     14  C   UNL     1      -7.388  -4.491  -1.505  0.00  0.00    +0.038 A 
ATOM     15  N   UNL     1      -7.637  -3.471  -2.426  0.00  0.00    -0.285 N 
ATOM     16  C   UNL     1      -7.669  -2.257  -1.845  0.00  0.00    +0.228 C 
ATOM     17  O   UNL     1      -7.863  -1.194  -2.397  0.00  0.00    -0.275 OA
ATOM     18  C   UNL     1      -9.448  -1.012  -0.300  0.00  0.00    -0.027 A 
ATOM     19  C   UNL     1      -9.220   0.172  -0.965  0.00  0.00    +0.004 A 
ATOM     20  C   UNL     1     -10.262   0.813  -1.612  0.00  0.00    +0.000 A 
ATOM     21  C   UNL     1     -11.530   0.261  -1.589  0.00  0.00    +0.002 A 
ATOM     22  C   UNL     1     -11.761  -0.926  -0.924  0.00  0.00    +0.023 A 
ATOM     23  C   UNL     1     -10.718  -1.577  -0.270  0.00  0.00    +0.036 A 
ATOM     24  N   UNL     1     -10.699  -2.768   0.459  0.00  0.00    -0.286 N 
ATOM     25  C   UNL     1      -9.474  -3.053   0.935  0.00  0.00    +0.212 C 
ATOM     26  O   UNL     1      -9.164  -4.020   1.599  0.00  0.00    -0.277 OA
ATOM     27  H   UNL     1      -7.770  -3.621  -3.376  0.00  0.00    +0.155 HD
ATOM     28  H   UNL     1     -11.480  -3.325   0.605  0.00  0.00    +0.155 HD
ATOM     29  H   UNL     1      -8.306  -1.627   2.517  0.00  0.00    -0.079 HD
ENDROOT
BRANCH   1  30
ATOM     30  C   UNL     1      -4.956  -2.610   0.037  0.00  0.00    +0.166 C 
ATOM     31  O   UNL     1      -4.620  -3.240   1.017  0.00  0.00    -0.292 OA
BRANCH  30  35
ATOM     32  C   UNL     1      -2.718  -2.911  -3.556  0.00  0.00    +0.162 A 
ATOM     33  C   UNL     1      -3.763  -2.002  -3.464  0.00  0.00    +0.050 A 
ATOM     34  C   UNL     1      -4.492  -1.900  -2.300  0.00  0.00    +0.015 A 
ATOM     35  C   UNL     1      -4.180  -2.716  -1.206  0.00  0.00    +0.021 A 
ATOM     36  C   UNL     1      -3.126  -3.633  -1.300  0.00  0.00    +0.060 A 
ATOM     37  C   UNL     1      -2.404  -3.732  -2.472  0.00  0.00    +0.162 A 
BRANCH  32  39
ATOM     38  C   UNL     1      -2.377  -2.137  -5.776  0.00  0.00    +0.277 C 
ATOM     39  O   UNL     1      -2.002  -3.006  -4.705  0.00  0.00    -0.491 OA
ENDBRANCH  32  39
BRANCH  37  40
ATOM     40  O   UNL     1      -1.383  -4.625  -2.568  0.00  0.00    -0.491 OA
ATOM     41  C   UNL     1      -1.117  -5.433  -1.420  0.00  0.00    +0.277 C 
ENDBRANCH  37  40
ENDBRANCH  30  35
ENDBRANCH   1  30
TORSDOF 4
