REMARK  Name = ZINC09081926
REMARK  11 active torsions:
REMARK  status: ('A' for Active; 'I' for Inactive)
REMARK    1  A    between atoms: C_1  and  C_2
REMARK    2  A    between atoms: C_5  and  S_7
REMARK    3  A    between atoms: S_7  and  N_10
REMARK    4  A    between atoms: N_10  and  C_11
REMARK    5  A    between atoms: C_11  and  C_12
REMARK    6  A    between atoms: C_12  and  C_14
REMARK    7  A    between atoms: C_12  and  S_19
REMARK    8  A    between atoms: S_19  and  C_22
REMARK    9  A    between atoms: C_25  and  C_28
REMARK   10  A    between atoms: C_28  and  C_29
REMARK   11  A    between atoms: C_28  and  C_30
REMARK                            x       y       z     vdW  Elec       q    Type
REMARK                         _______ _______ _______ _____ _____    ______ ____
ROOT
ATOM      1  C   UNL     1      -2.533   1.387   0.021  0.00  0.00    +0.217 C 
ENDROOT
BRANCH   1   2
ATOM      2  C   UNL     1      -1.103   1.863   0.017  0.00  0.00    +0.131 A 
ATOM      3  C   UNL     1      -0.013   1.076   0.008  0.00  0.00    +0.046 A 
ATOM      4  C   UNL     1       1.111   1.934   0.002  0.00  0.00    +0.041 A 
ATOM      5  C   UNL     1       0.640   3.193   0.012  0.00  0.00    +0.195 A 
ATOM      6  O   UNL     1      -0.702   3.144   0.024  0.00  0.00    -0.466 OA
ENDBRANCH   1   2
BRANCH   1   7
ATOM      7  S   UNL     1      -3.384   2.014  -1.454  0.00  0.00    +0.008 S 
ATOM      8  O   UNL     1      -4.676   1.432  -1.559  0.00  0.00    -0.169 OA
ATOM      9  O   UNL     1      -3.213   3.421  -1.555  0.00  0.00    -0.169 OA
BRANCH   7  10
ATOM     10  C   UNL     1      -2.480   1.352  -2.814  0.00  0.00    +0.089 A 
ATOM     11  C   UNL     1      -1.420   2.060  -3.349  0.00  0.00    +0.027 A 
ATOM     12  C   UNL     1      -0.709   1.538  -4.414  0.00  0.00    +0.006 A 
ATOM     13  C   UNL     1      -1.063   0.314  -4.948  0.00  0.00    -0.045 A 
ATOM     14  C   UNL     1      -2.126  -0.391  -4.416  0.00  0.00    +0.006 A 
ATOM     15  C   UNL     1      -2.835   0.128  -3.349  0.00  0.00    +0.027 A 
BRANCH  13  16
ATOM     16  C   UNL     1      -0.289  -0.253  -6.111  0.00  0.00    +0.013 C 
ATOM     17  C   UNL     1      -0.377   0.708  -7.298  0.00  0.00    +0.012 C 
ATOM     18  C   UNL     1       1.176  -0.434  -5.709  0.00  0.00    +0.012 C 
ENDBRANCH  13  16
ENDBRANCH   7  10
ENDBRANCH   1   7
BRANCH   1  19
ATOM     19  C   UNL     1      -3.240   1.904   1.276  0.00  0.00    +0.140 C 
BRANCH  19  20
ATOM     20  N   UNL     1      -4.630   1.441   1.280  0.00  0.00    -0.187 NA
ATOM     21  H   UNL     1      -5.025   1.086   0.468  0.00  0.00    +0.148 HD
BRANCH  20  22
ATOM     22  S   UNL     1      -5.526   1.525   2.669  0.00  0.00    +0.065 S 
ATOM     23  O   UNL     1      -6.820   1.034   2.348  0.00  0.00    -0.153 OA
ATOM     24  O   UNL     1      -4.731   0.957   3.701  0.00  0.00    -0.153 OA
BRANCH  22  29
ATOM     25  C   UNL     1      -5.337   7.144   4.511  0.00  0.00    +0.051 C 
ATOM     26  C   UNL     1      -5.615   5.789   3.913  0.00  0.00    -0.011 A 
ATOM     27  C   UNL     1      -6.642   5.402   3.117  0.00  0.00    +0.013 A 
ATOM     28  C   UNL     1      -6.695   4.091   2.682  0.00  0.00    +0.036 A 
ATOM     29  C   UNL     1      -5.718   3.232   3.063  0.00  0.00    +0.143 A 
ATOM     30  S   UNL     1      -4.682   4.276   4.074  0.00  0.00    -0.074 S 
ENDBRANCH  22  29
ENDBRANCH  20  22
ENDBRANCH  19  20
ENDBRANCH   1  19
TORSDOF 8
