REMARK  Name = ZINC09423084
REMARK  10 active torsions:
REMARK  status: ('A' for Active; 'I' for Inactive)
REMARK    1  A    between atoms: C_1  and  C_2
REMARK    2  A    between atoms: C_2  and  N_3
REMARK    3  A    between atoms: C_5  and  C_14
REMARK    4  A    between atoms: C_10  and  O_12
REMARK    5  A    between atoms: O_12  and  C_13
REMARK    6  A    between atoms: C_21  and  O_35
REMARK    7  A    between atoms: C_22  and  C_25
REMARK    8  A    between atoms: C_25  and  N_66
REMARK    9  A    between atoms: C_27  and  C_34
REMARK   10  A    between atoms: C_30  and  C_33
REMARK                            x       y       z     vdW  Elec       q    Type
REMARK                         _______ _______ _______ _____ _____    ______ ____
ROOT
ATOM      1  C   UNL     1      -3.140  -0.039   0.031  0.00  0.00    +0.060 C 
ATOM      2  C   UNL     1      -4.477  -0.276   0.145  0.00  0.00    +0.176 C 
ATOM      3  C   UNL     1      -5.495   0.713   0.179  0.00  0.00    +0.231 C 
ATOM      4  O   UNL     1      -5.355   1.923   0.113  0.00  0.00    -0.283 OA
ATOM      5  C   UNL     1      -6.757  -0.036   0.308  0.00  0.00    +0.068 A 
ATOM      6  C   UNL     1      -8.096   0.345   0.391  0.00  0.00    +0.019 A 
ATOM      7  C   UNL     1      -9.068  -0.607   0.514  0.00  0.00    +0.046 A 
ATOM      8  C   UNL     1      -8.726  -1.956   0.557  0.00  0.00    +0.122 A 
ATOM      9  C   UNL     1      -7.400  -2.350   0.476  0.00  0.00    +0.020 A 
ATOM     10  C   UNL     1      -6.401  -1.394   0.350  0.00  0.00    +0.144 A 
ATOM     11  O   UNL     1      -5.058  -1.495   0.252  0.00  0.00    -0.451 OA
ENDROOT
BRANCH   1  14
ATOM     12  N   UNL     1      -2.486   3.380  -1.065  0.00  0.00    -0.346 N 
ATOM     13  C   UNL     1      -3.219   2.239  -1.089  0.00  0.00    +0.094 A 
ATOM     14  C   UNL     1      -2.658   1.315  -0.234  0.00  0.00    +0.004 A 
ATOM     15  C   UNL     1      -1.471   1.963   0.356  0.00  0.00    +0.011 A 
ATOM     16  C   UNL     1      -1.418   3.252  -0.198  0.00  0.00    +0.050 A 
ATOM     17  C   UNL     1      -0.394   4.115   0.177  0.00  0.00    +0.030 A 
ATOM     18  C   UNL     1       0.556   3.704   1.087  0.00  0.00    +0.047 A 
ATOM     19  C   UNL     1       0.502   2.429   1.639  0.00  0.00    +0.121 A 
ATOM     20  C   UNL     1      -0.510   1.558   1.279  0.00  0.00    +0.056 A 
BRANCH  12  22
ATOM     21  C   UNL     1      -1.976   4.555  -3.148  0.00  0.00    +0.027 C 
ATOM     22  C   UNL     1      -2.785   4.580  -1.850  0.00  0.00    +0.118 C 
ENDBRANCH  12  22
BRANCH  19  23
ATOM     23  O   UNL     1       1.446   2.037   2.536  0.00  0.00    -0.495 OA
ATOM     24  C   UNL     1       2.463   2.987   2.863  0.00  0.00    +0.277 C 
ENDBRANCH  19  23
ENDBRANCH   1  14
BRANCH   8  25
ATOM     25  O   UNL     1      -9.700  -2.894   0.680  0.00  0.00    -0.506 OA
ATOM     26  H   UNL     1      -9.915  -3.121   1.595  0.00  0.00    +0.292 HD
ENDBRANCH   8  25
BRANCH   9  27
ATOM     27  C   UNL     1      -7.043  -3.813   0.523  0.00  0.00    -0.036 C 
BRANCH  27  35
ATOM     28  C   UNL     1      -5.642  -3.547   2.479  0.00  0.00    -0.075 C 
ATOM     29  C   UNL     1      -5.526  -3.879   3.968  0.00  0.00    -0.031 C 
ATOM     30  C   UNL     1      -5.404  -5.395   4.141  0.00  0.00    +0.003 C 
ATOM     31  C   UNL     1      -6.621  -6.073   3.505  0.00  0.00    -0.031 C 
ATOM     32  C   UNL     1      -6.705  -5.678   2.029  0.00  0.00    -0.075 C 
ATOM     33  C   UNL     1      -7.892  -5.623   4.227  0.00  0.00    +0.005 C 
ATOM     34  C   UNL     1      -4.285  -3.197   4.549  0.00  0.00    +0.005 C 
ATOM     35  N   UNL     1      -6.846  -4.210   1.932  0.00  0.00    +0.383 N 
ATOM     36  H   UNL     1      -7.664  -3.917   2.479  0.00  0.00    -0.081 HD
ENDBRANCH  27  35
ENDBRANCH   9  27
TORSDOF 6
