REMARK  Name = ZINC43218864
REMARK  8 active torsions:
REMARK  status: ('A' for Active; 'I' for Inactive)
REMARK    1  A    between atoms: C_1  and  C_2
REMARK    2  A    between atoms: C_2  and  C_3
REMARK    3  A    between atoms: C_6  and  N_9
REMARK    4  A    between atoms: C_14  and  C_31
REMARK    5  A    between atoms: C_17  and  C_22
REMARK    6  A    between atoms: C_17  and  C_28
REMARK    7  A    between atoms: C_33  and  C_38
REMARK    8  A    between atoms: C_36  and  C_37
REMARK                            x       y       z     vdW  Elec       q    Type
REMARK                         _______ _______ _______ _____ _____    ______ ____
ROOT
ATOM      1  N   UNL     1      -5.598  -2.537   1.169  0.00  0.00    -0.210 N 
ATOM      2  C   UNL     1      -6.650  -2.908   1.970  0.00  0.00    +0.229 C 
ATOM      3  O   UNL     1      -6.726  -2.828   3.177  0.00  0.00    -0.275 OA
ATOM      4  C   UNL     1      -7.645  -3.413   1.053  0.00  0.00    +0.078 C 
ATOM      5  C   UNL     1      -9.085  -3.702   0.999  0.00  0.00    -0.026 C 
ATOM      6  N   UNL     1      -9.395  -3.768  -0.467  0.00  0.00    +0.398 N 
ATOM      7  C   UNL     1      -8.148  -3.392  -1.209  0.00  0.00    +0.074 C 
ATOM      8  C   UNL     1      -7.437  -2.468  -0.197  0.00  0.00    +0.090 C 
ATOM      9  C   UNL     1      -5.934  -2.484  -0.154  0.00  0.00    +0.229 C 
ATOM     10  O   UNL     1      -5.176  -2.458  -1.100  0.00  0.00    -0.275 OA
ATOM     11  H   UNL     1      -9.673  -4.705  -0.717  0.00  0.00    -0.083 HD
ATOM     12  H   UNL     1     -10.135  -3.119  -0.690  0.00  0.00    -0.083 HD
ENDROOT
BRANCH   5  13
ATOM     13  C   UNL     1      -9.870  -2.596   1.657  0.00  0.00    -0.057 A 
ATOM     14  C   UNL     1      -9.265  -1.381   1.918  0.00  0.00    +0.005 A 
ATOM     15  C   UNL     1      -9.985  -0.366   2.522  0.00  0.00    -0.050 A 
ATOM     16  C   UNL     1     -11.309  -0.568   2.864  0.00  0.00    +0.003 A 
ATOM     17  C   UNL     1     -11.913  -1.783   2.603  0.00  0.00    +0.004 A 
ATOM     18  C   UNL     1     -11.195  -2.796   1.995  0.00  0.00    -0.049 A 
ATOM     19  C   UNL     1     -11.856  -4.119   1.706  0.00  0.00    +0.044 C 
ATOM     20  C   UNL     1      -9.326   0.959   2.807  0.00  0.00    +0.044 C 
ENDBRANCH   5  13
BRANCH   1  24
ATOM     21  C   UNL     1      -1.792  -1.653   2.621  0.00  0.00    -0.048 A 
ATOM     22  C   UNL     1      -2.795  -2.024   3.497  0.00  0.00    +0.005 A 
ATOM     23  C   UNL     1      -4.058  -2.317   3.019  0.00  0.00    +0.024 A 
ATOM     24  C   UNL     1      -4.318  -2.239   1.657  0.00  0.00    +0.044 A 
ATOM     25  C   UNL     1      -3.308  -1.866   0.780  0.00  0.00    +0.024 A 
ATOM     26  C   UNL     1      -2.050  -1.569   1.265  0.00  0.00    +0.005 A 
BRANCH  21  28
ATOM     27  C   UNL     1      -0.331   0.157   3.481  0.00  0.00    +0.009 C 
ATOM     28  C   UNL     1      -0.416  -1.333   3.146  0.00  0.00    +0.032 C 
ENDBRANCH  21  28
ENDBRANCH   1  24
BRANCH   7  29
ATOM     29  C   UNL     1      -7.325  -4.614  -1.524  0.00  0.00    -0.047 A 
ATOM     30  C   UNL     1      -7.623  -5.822  -0.923  0.00  0.00    +0.003 A 
ATOM     31  C   UNL     1      -6.868  -6.943  -1.212  0.00  0.00    +0.000 A 
ATOM     32  C   UNL     1      -5.814  -6.856  -2.102  0.00  0.00    +0.000 A 
ATOM     33  C   UNL     1      -5.516  -5.648  -2.704  0.00  0.00    +0.000 A 
ATOM     34  C   UNL     1      -6.274  -4.528  -2.418  0.00  0.00    +0.003 A 
ENDBRANCH   7  29
BRANCH   7  35
ATOM     35  C   UNL     1      -8.484  -2.633  -2.467  0.00  0.00    +0.350 C 
ATOM     36  O   UNL     1      -9.649  -2.432  -2.765  0.00  0.00    -0.248 OA
ATOM     37  O   UNL     1      -7.591  -2.221  -3.188  0.00  0.00    -0.248 OA
ENDBRANCH   7  35
TORSDOF 5
