REMARK  Name = ZINC59578158
REMARK  8 active torsions:
REMARK  status: ('A' for Active; 'I' for Inactive)
REMARK    1  A    between atoms: C_1  and  C_2
REMARK    2  A    between atoms: C_15  and  C_17
REMARK    3  A    between atoms: C_17  and  N_18
REMARK    4  A    between atoms: N_18  and  C_19
REMARK    5  A    between atoms: N_18  and  C_22
REMARK    6  A    between atoms: C_22  and  C_24
REMARK    7  A    between atoms: C_22  and  C_25
REMARK    8  A    between atoms: C_29  and  C_31
REMARK                            x       y       z     vdW  Elec       q    Type
REMARK                         _______ _______ _______ _____ _____    ______ ____
ROOT
ATOM      1  C   UNL     1       0.749  -1.506   3.430  0.00  0.00    +0.020 C 
ENDROOT
BRANCH   1  15
ATOM      2  C   UNL     1       4.617   0.971   4.027  0.00  0.00    +0.029 C 
ATOM      3  C   UNL     1       3.211   1.424   3.627  0.00  0.00    +0.087 C 
ATOM      4  C   UNL     1       3.310   2.476   2.521  0.00  0.00    +0.118 C 
ATOM      5  C   UNL     1       1.976   2.644   1.845  0.00  0.00    +0.219 C 
ATOM      6  O   UNL     1       1.297   3.620   2.085  0.00  0.00    -0.275 OA
ATOM      7  N   UNL     1       1.530   1.715   0.972  0.00  0.00    -0.284 N 
ATOM      8  C   UNL     1       2.255   0.537   0.756  0.00  0.00    +0.055 A 
ATOM      9  C   UNL     1       2.545   0.106  -0.528  0.00  0.00    +0.025 A 
ATOM     10  C   UNL     1       3.243  -1.073  -0.716  0.00  0.00    +0.002 A 
ATOM     11  C   UNL     1       3.651  -1.823   0.372  0.00  0.00    +0.002 A 
ATOM     12  C   UNL     1       3.374  -1.394   1.657  0.00  0.00    +0.025 A 
ATOM     13  C   UNL     1       2.685  -0.208   1.854  0.00  0.00    +0.058 A 
ATOM     14  N   UNL     1       2.446   0.271   3.148  0.00  0.00    -0.268 N 
ATOM     15  C   UNL     1       1.528  -0.320   3.938  0.00  0.00    +0.204 C 
ATOM     16  O   UNL     1       1.329   0.103   5.057  0.00  0.00    -0.277 OA
ATOM     17  H   UNL     1       0.701   1.864   0.491  0.00  0.00    +0.155 HD
ENDBRANCH   1  15
BRANCH   1  18
ATOM     18  N   UNL     1      -0.124  -2.012   4.498  0.00  0.00    +0.392 N 
ATOM     19  H   UNL     1      -0.686  -2.770   4.142  0.00  0.00    -0.080 HD
BRANCH  18  20
ATOM     20  C   UNL     1      -1.001  -0.930   4.967  0.00  0.00    -0.067 C 
ATOM     21  C   UNL     1      -2.492  -1.242   5.110  0.00  0.00    -0.017 C 
ATOM     22  C   UNL     1      -2.003  -0.349   3.967  0.00  0.00    -0.017 C 
ENDBRANCH  18  20
BRANCH  18  23
ATOM     23  C   UNL     1       0.698  -2.494   5.615  0.00  0.00    -0.040 C 
ATOM     24  C   UNL     1      -0.211  -2.939   6.763  0.00  0.00    -0.008 C 
BRANCH  23  25
ATOM     25  C   UNL     1       1.534  -3.661   5.156  0.00  0.00    -0.061 A 
ATOM     26  C   UNL     1       0.993  -4.608   4.307  0.00  0.00    +0.002 A 
ATOM     27  C   UNL     1       1.760  -5.678   3.886  0.00  0.00    +0.001 A 
ATOM     28  C   UNL     1       3.069  -5.801   4.313  0.00  0.00    +0.012 A 
ATOM     29  C   UNL     1       3.611  -4.854   5.161  0.00  0.00    +0.055 A 
ATOM     30  C   UNL     1       2.845  -3.781   5.579  0.00  0.00    +0.014 A 
BRANCH  29  31
ATOM     31  C   UNL     1       5.037  -4.988   5.627  0.00  0.00    +0.417 C 
ATOM     32  F   UNL     1       5.603  -6.141   5.072  0.00  0.00    -0.166 F 
ATOM     33  F   UNL     1       5.769  -3.867   5.219  0.00  0.00    -0.166 F 
ATOM     34  F   UNL     1       5.065  -5.080   7.023  0.00  0.00    -0.166 F 
ENDBRANCH  29  31
ENDBRANCH  23  25
ENDBRANCH  18  23
ENDBRANCH   1  18
TORSDOF 6
