REMARK  Name = ZINC55139540
REMARK  8 active torsions:
REMARK  status: ('A' for Active; 'I' for Inactive)
REMARK    1  A    between atoms: C_1  and  C_2
REMARK    2  A    between atoms: C_2  and  N_3
REMARK    3  A    between atoms: C_4  and  C_6
REMARK    4  A    between atoms: C_6  and  N_7
REMARK    5  A    between atoms: N_7  and  C_8
REMARK    6  A    between atoms: C_9  and  C_11
REMARK    7  A    between atoms: C_16  and  N_21
REMARK    8  A    between atoms: C_18  and  C_20
REMARK                            x       y       z     vdW  Elec       q    Type
REMARK                         _______ _______ _______ _____ _____    ______ ____
ROOT
ATOM      1  N   UNL     1      -3.358  -3.811  -0.066  0.00  0.00    -0.295 N 
ATOM      2  C   UNL     1      -3.749  -4.516   1.156  0.00  0.00    +0.132 C 
ATOM      3  C   UNL     1      -2.990  -4.509  -1.159  0.00  0.00    +0.219 C 
ATOM      4  O   UNL     1      -2.592  -3.927  -2.145  0.00  0.00    -0.275 OA
ENDROOT
BRANCH   3   5
ATOM      5  C   UNL     1      -3.075  -6.014  -1.155  0.00  0.00    +0.076 C 
ATOM      6  C   UNL     1      -1.954  -6.586  -0.285  0.00  0.00    +0.013 C 
ATOM      7  C   UNL     1      -0.599  -6.152  -0.848  0.00  0.00    -0.001 C 
ATOM      8  C   UNL     1      -0.451  -6.675  -2.279  0.00  0.00    -0.016 C 
ATOM      9  C   UNL     1      -1.572  -6.104  -3.149  0.00  0.00    -0.072 C 
ATOM     10  C   UNL     1      -2.927  -6.537  -2.585  0.00  0.00    -0.017 C 
ATOM     11  C   UNL     1      -4.048  -5.965  -3.456  0.00  0.00    +0.006 C 
BRANCH   9  12
ATOM     12  N   UNL     1      -1.430  -6.606  -4.522  0.00  0.00    +0.380 N 
ATOM     13  H   UNL     1      -1.486  -7.613  -4.520  0.00  0.00    -0.090 HD
ATOM     14  H   UNL     1      -2.169  -6.229  -5.096  0.00  0.00    -0.090 HD
ATOM     15  H   UNL     1      -0.536  -6.320  -4.894  0.00  0.00    -0.090 HD
ENDBRANCH   9  12
ENDBRANCH   3   5
BRANCH   1  16
ATOM     16  C   UNL     1      -3.365  -2.346  -0.102  0.00  0.00    +0.203 C 
BRANCH  16  18
ATOM     17  N   UNL     1      -1.791  -0.499   0.374  0.00  0.00    -0.314 N 
ATOM     18  C   UNL     1      -2.018  -1.827   0.329  0.00  0.00    +0.230 C 
ATOM     19  O   UNL     1      -1.138  -2.603   0.635  0.00  0.00    -0.274 OA
ATOM     20  H   UNL     1      -2.495   0.122   0.129  0.00  0.00    +0.149 HD
BRANCH  17  22
ATOM     21  C   UNL     1      -0.489   1.536   0.756  0.00  0.00    +0.024 C 
ATOM     22  C   UNL     1      -0.481   0.006   0.793  0.00  0.00    +0.101 C 
ENDBRANCH  17  22
ENDBRANCH  16  18
ENDBRANCH   1  16
TORSDOF 5
