REMARK  Name = ZINC45868281
REMARK  2 active torsions:
REMARK  status: ('A' for Active; 'I' for Inactive)
REMARK    1  A    between atoms: C_1  and  C_2
REMARK    2  A    between atoms: C_14  and  C_16
REMARK                            x       y       z     vdW  Elec       q    Type
REMARK                         _______ _______ _______ _____ _____    ______ ____
ROOT
ATOM      1  C   UNL     1       2.285   2.252  -1.121  0.00  0.00    +0.019 C 
ATOM      2  C   UNL     1       1.732   0.925  -0.597  0.00  0.00    +0.050 C 
ATOM      3  C   UNL     1       1.741  -0.103  -1.718  0.00  0.00    +0.033 C 
ATOM      4  C   UNL     1       1.003  -1.383  -1.427  0.00  0.00    +0.115 C 
ATOM      5  N   UNL     1       1.679  -2.167  -0.383  0.00  0.00    -0.270 N 
ATOM      6  C   UNL     1       1.316  -1.952   0.954  0.00  0.00    +0.050 A 
ATOM      7  C   UNL     1       0.564  -2.909   1.626  0.00  0.00    +0.024 A 
ATOM      8  C   UNL     1       0.165  -2.676   2.929  0.00  0.00    +0.002 A 
ATOM      9  C   UNL     1       0.502  -1.498   3.571  0.00  0.00    +0.001 A 
ATOM     10  C   UNL     1       1.267  -0.547   2.916  0.00  0.00    +0.016 A 
ATOM     11  C   UNL     1       1.683  -0.793   1.622  0.00  0.00    +0.030 A 
ATOM     12  S   UNL     1       2.761   0.347   0.784  0.00  0.00    -0.120 S 
ATOM     13  C   UNL     1       2.625  -3.072  -0.704  0.00  0.00    +0.228 C 
ATOM     14  O   UNL     1       2.863  -3.314  -1.868  0.00  0.00    -0.275 OA
ENDROOT
BRANCH  13  15
ATOM     15  C   UNL     1       3.387  -3.784   0.385  0.00  0.00    +0.116 C 
ATOM     16  C   UNL     1       2.795  -5.178   0.593  0.00  0.00    +0.113 C 
ATOM     17  C   UNL     1       3.138  -6.061  -0.577  0.00  0.00    +0.218 C 
ATOM     18  O   UNL     1       2.338  -6.890  -0.957  0.00  0.00    -0.275 OA
ATOM     19  N   UNL     1       4.321  -5.940  -1.206  0.00  0.00    -0.285 N 
ATOM     20  C   UNL     1       5.248  -4.979  -0.794  0.00  0.00    +0.040 A 
ATOM     21  C   UNL     1       4.835  -3.906  -0.014  0.00  0.00    -0.014 A 
ATOM     22  C   UNL     1       5.749  -2.956   0.394  0.00  0.00    +0.009 A 
ATOM     23  C   UNL     1       7.077  -3.070   0.026  0.00  0.00    +0.039 A 
ATOM     24  C   UNL     1       7.494  -4.137  -0.753  0.00  0.00    +0.125 A 
ATOM     25  C   UNL     1       6.582  -5.092  -1.163  0.00  0.00    +0.062 A 
ATOM     26  F   UNL     1       8.792  -4.245  -1.112  0.00  0.00    -0.205 F 
ATOM     27  H   UNL     1       4.532  -6.525  -1.951  0.00  0.00    +0.155 HD
ENDBRANCH  13  15
TORSDOF 1
