REMARK  Name = ZINC36316832
REMARK  6 active torsions:
REMARK  status: ('A' for Active; 'I' for Inactive)
REMARK    1  A    between atoms: C_1  and  C_2
REMARK    2  A    between atoms: C_5  and  C_8
REMARK    3  A    between atoms: C_8  and  C_10
REMARK    4  A    between atoms: C_12  and  C_31
REMARK    5  A    between atoms: C_23  and  C_30
REMARK    6  A    between atoms: C_35  and  N_37
REMARK                            x       y       z     vdW  Elec       q    Type
REMARK                         _______ _______ _______ _____ _____    ______ ____
ROOT
ATOM      1  C   UNL     1      -0.113  -4.546   1.210  0.00  0.00    +0.103 C 
ATOM      2  C   UNL     1      -1.367  -5.244   1.778  0.00  0.00    +0.050 C 
ATOM      3  C   UNL     1      -1.157  -6.732   1.434  0.00  0.00    +0.077 C 
ATOM      4  C   UNL     1      -1.886  -7.604   2.476  0.00  0.00    +0.090 C 
ATOM      5  S   UNL     1      -0.477  -8.425   3.336  0.00  0.00    -0.144 S 
ATOM      6  C   UNL     1       0.852  -7.285   2.747  0.00  0.00    +0.155 C 
ATOM      7  N   UNL     1       0.303  -6.932   1.423  0.00  0.00    -0.271 NA
ATOM      8  C   UNL     1       0.911  -5.664   0.988  0.00  0.00    +0.137 C 
ATOM      9  C   UNL     1       2.185  -5.385   1.741  0.00  0.00    +0.004 A 
ATOM     10  C   UNL     1       2.474  -5.210   3.075  0.00  0.00    +0.011 A 
ATOM     11  C   UNL     1       3.775  -4.960   3.475  0.00  0.00    -0.050 A 
ATOM     12  C   UNL     1       4.782  -4.886   2.530  0.00  0.00    +0.005 A 
ATOM     13  C   UNL     1       4.497  -5.060   1.192  0.00  0.00    +0.024 A 
ATOM     14  C   UNL     1       3.189  -5.312   0.781  0.00  0.00    +0.039 A 
ATOM     15  N   UNL     1       2.656  -5.518  -0.492  0.00  0.00    -0.283 N 
ATOM     16  C   UNL     1       1.328  -5.732  -0.459  0.00  0.00    +0.243 C 
ATOM     17  O   UNL     1       0.605  -5.939  -1.411  0.00  0.00    -0.273 OA
ATOM     18  C   UNL     1       4.093  -4.770   4.935  0.00  0.00    +0.044 C 
ATOM     19  H   UNL     1       3.182  -5.508  -1.307  0.00  0.00    +0.155 HD
ENDROOT
BRANCH   2  20
ATOM     20  C   UNL     1      -1.448  -5.051   3.270  0.00  0.00    -0.040 A 
ATOM     21  C   UNL     1      -0.343  -4.602   3.970  0.00  0.00    +0.004 A 
ATOM     22  C   UNL     1      -0.417  -4.425   5.339  0.00  0.00    +0.002 A 
ATOM     23  C   UNL     1      -1.596  -4.696   6.008  0.00  0.00    +0.033 A 
ATOM     24  C   UNL     1      -2.701  -5.144   5.308  0.00  0.00    +0.126 A 
ATOM     25  C   UNL     1      -2.628  -5.317   3.939  0.00  0.00    +0.036 A 
BRANCH  24  26
ATOM     26  N   UNL     1      -3.963  -5.435   6.025  0.00  0.00    +0.056 N 
ATOM     27  O   UNL     1      -4.028  -5.281   7.222  0.00  0.00    -0.126 OA
ATOM     28  O   UNL     1      -4.929  -5.827   5.413  0.00  0.00    -0.126 OA
ENDBRANCH  24  26
ENDBRANCH   2  20
BRANCH   1  29
ATOM     29  C   UNL     1      -0.439  -3.870  -0.097  0.00  0.00    +0.169 C 
ATOM     30  O   UNL     1      -1.373  -4.260  -0.765  0.00  0.00    -0.292 OA
BRANCH  29  35
ATOM     31  C   UNL     1       2.744   0.559  -1.914  0.00  0.00    +0.044 C 
ATOM     32  C   UNL     1       1.910  -0.602  -1.438  0.00  0.00    -0.050 A 
ATOM     33  C   UNL     1       0.846  -1.045  -2.204  0.00  0.00    +0.004 A 
ATOM     34  C   UNL     1       0.077  -2.107  -1.775  0.00  0.00    +0.011 A 
ATOM     35  C   UNL     1       0.377  -2.736  -0.562  0.00  0.00    +0.018 A 
ATOM     36  C   UNL     1       1.454  -2.284   0.205  0.00  0.00    +0.011 A 
ATOM     37  C   UNL     1       2.216  -1.224  -0.240  0.00  0.00    +0.004 A 
ENDBRANCH  29  35
ENDBRANCH   1  29
TORSDOF 4
