REMARK  Name = ZINC13499530
REMARK  13 active torsions:
REMARK  status: ('A' for Active; 'I' for Inactive)
REMARK    1  A    between atoms: C_1  and  C_2
REMARK    2  A    between atoms: C_2  and  C_3
REMARK    3  A    between atoms: C_3  and  C_4
REMARK    4  A    between atoms: C_4  and  C_6
REMARK    5  A    between atoms: C_4  and  N_75
REMARK    6  A    between atoms: N_10  and  C_11
REMARK    7  A    between atoms: C_11  and  C_12
REMARK    8  A    between atoms: C_12  and  C_13
REMARK    9  A    between atoms: C_19  and  C_20
REMARK   10  A    between atoms: C_19  and  N_75
REMARK   11  A    between atoms: C_24  and  C_33
REMARK   12  A    between atoms: C_25  and  C_32
REMARK   13  A    between atoms: C_34  and  N_75
REMARK                            x       y       z     vdW  Elec       q    Type
REMARK                         _______ _______ _______ _____ _____    ______ ____
ROOT
ATOM      1  N   UNL     1      -5.437   4.254  -1.343  0.00  0.00    +0.391 N 
ATOM      2  H   UNL     1      -5.278   3.300  -1.688  0.00  0.00    -0.080 HD
ENDROOT
BRANCH   1   3
ATOM      3  C   UNL     1      -4.631   5.196  -2.147  0.00  0.00    -0.067 C 
ATOM      4  C   UNL     1      -4.904   6.656  -1.730  0.00  0.00    -0.015 C 
ATOM      5  C   UNL     1      -4.859   7.446  -3.063  0.00  0.00    -0.002 C 
ATOM      6  C   UNL     1      -5.533   6.472  -4.061  0.00  0.00    -0.002 C 
ATOM      7  C   UNL     1      -5.030   5.079  -3.629  0.00  0.00    -0.015 C 
ENDBRANCH   1   3
BRANCH   1   8
ATOM      8  C   UNL     1      -6.873   4.578  -1.475  0.00  0.00    +0.003 C 
BRANCH   8   9
ATOM      9  C   UNL     1      -7.273   5.616  -0.457  0.00  0.00    +0.138 A 
ATOM     10  N   UNL     1      -7.006   5.598   0.826  0.00  0.00    -0.115 NA
ATOM     11  N   UNL     1      -7.516   6.657   1.353  0.00  0.00    -0.023 NA
ATOM     12  N   UNL     1      -8.101   7.350   0.440  0.00  0.00    -0.044 NA
ATOM     13  N   UNL     1      -7.970   6.744  -0.691  0.00  0.00    -0.231 N 
BRANCH  13  14
ATOM     14  C   UNL     1      -8.484   7.197  -1.986  0.00  0.00    +0.152 C 
BRANCH  14  15
ATOM     15  C   UNL     1      -9.895   6.644  -2.196  0.00  0.00    +0.058 C 
BRANCH  15  16
ATOM     16  C   UNL     1     -10.424   7.109  -3.528  0.00  0.00    -0.046 A 
ATOM     17  C   UNL     1     -11.131   8.294  -3.615  0.00  0.00    +0.004 A 
ATOM     18  C   UNL     1     -11.612   8.724  -4.837  0.00  0.00    +0.000 A 
ATOM     19  C   UNL     1     -11.395   7.963  -5.971  0.00  0.00    +0.000 A 
ATOM     20  C   UNL     1     -10.693   6.776  -5.883  0.00  0.00    +0.000 A 
ATOM     21  C   UNL     1     -10.207   6.349  -4.662  0.00  0.00    +0.004 A 
ENDBRANCH  15  16
ENDBRANCH  14  15
ENDBRANCH  13  14
ENDBRANCH   8   9
BRANCH   8  22
ATOM     22  C   UNL     1      -7.685   3.301  -1.247  0.00  0.00    -0.008 C 
BRANCH  22  24
ATOM     23  C   UNL     1      -8.262   1.062  -2.192  0.00  0.00    +0.004 C 
ATOM     24  C   UNL     1      -7.362   2.289  -2.348  0.00  0.00    -0.005 C 
ENDBRANCH  22  24
ENDBRANCH   8  22
ENDBRANCH   1   8
BRANCH   1  25
ATOM     25  C   UNL     1      -5.031   4.325   0.076  0.00  0.00    -0.036 C 
BRANCH  25  26
ATOM     26  C   UNL     1      -3.699   3.638   0.233  0.00  0.00    +0.001 A 
ATOM     27  C   UNL     1      -2.560   4.372   0.273  0.00  0.00    +0.017 A 
ATOM     28  C   UNL     1      -1.283   3.675   0.427  0.00  0.00    -0.001 A 
ATOM     29  C   UNL     1      -0.075   4.378   0.473  0.00  0.00    +0.013 A 
ATOM     30  C   UNL     1       1.101   3.697   0.617  0.00  0.00    -0.047 A 
ATOM     31  C   UNL     1       1.107   2.313   0.718  0.00  0.00    -0.046 A 
ATOM     32  C   UNL     1      -0.071   1.599   0.674  0.00  0.00    +0.030 A 
ATOM     33  C   UNL     1      -1.280   2.270   0.522  0.00  0.00    +0.049 A 
ATOM     34  N   UNL     1      -2.473   1.582   0.481  0.00  0.00    -0.322 N 
ATOM     35  H   UNL     1      -2.470   0.614   0.552  0.00  0.00    +0.169 HD
ATOM     36  C   UNL     1      -3.642   2.231   0.340  0.00  0.00    +0.251 A 
ATOM     37  O   UNL     1      -4.678   1.590   0.301  0.00  0.00    -0.268 OA
ATOM     38  C   UNL     1       2.416   1.583   0.877  0.00  0.00    +0.044 C 
ATOM     39  C   UNL     1       2.402   4.456   0.667  0.00  0.00    +0.044 C 
ENDBRANCH  25  26
ENDBRANCH   1  25
TORSDOF 10
