REMARK  Name = ZINC43289761
REMARK  6 active torsions:
REMARK  status: ('A' for Active; 'I' for Inactive)
REMARK    1  A    between atoms: C_1  and  C_2
REMARK    2  A    between atoms: C_2  and  C_4
REMARK    3  A    between atoms: C_2  and  N_20
REMARK    4  A    between atoms: C_4  and  C_6
REMARK    5  A    between atoms: C_4  and  O_12
REMARK    6  A    between atoms: O_12  and  C_13
REMARK                            x       y       z     vdW  Elec       q    Type
REMARK                         _______ _______ _______ _____ _____    ______ ____
ROOT
ATOM      1  C   UNL     1       0.754  -0.538   1.297  0.00  0.00    +0.196 C 
ENDROOT
BRANCH   1   2
ATOM      2  C   UNL     1       0.908  -2.030   1.442  0.00  0.00    +0.029 A 
ATOM      3  C   UNL     1       0.111  -2.911   2.094  0.00  0.00    +0.030 A 
ATOM      4  C   UNL     1       0.453  -4.251   2.095  0.00  0.00    +0.025 A 
ATOM      5  C   UNL     1       1.575  -4.643   1.443  0.00  0.00    +0.060 A 
ATOM      6  S   UNL     1       2.184  -3.096   0.793  0.00  0.00    -0.097 S 
ATOM      7 BR   UNL     1      -0.628  -5.517   2.992  0.00  0.00    -0.050 Br
ENDBRANCH   1   2
BRANCH   1   9
ATOM      8  C   UNL     1      -0.012   1.290  -0.224  0.00  0.00    -0.010 C 
ATOM      9  C   UNL     1       0.035  -0.225  -0.016  0.00  0.00    -0.032 C 
BRANCH   9  10
ATOM     10  N   UNL     1       0.758  -0.850  -1.132  0.00  0.00    +0.382 N 
ATOM     11  H   UNL     1       1.699  -0.486  -1.168  0.00  0.00    -0.089 HD
ATOM     12  H   UNL     1       0.789  -1.849  -0.995  0.00  0.00    -0.089 HD
ATOM     13  H   UNL     1       0.284  -0.643  -1.998  0.00  0.00    -0.089 HD
ENDBRANCH   9  10
ENDBRANCH   1   9
BRANCH   1  14
ATOM     14  O   UNL     1       2.044   0.076   1.292  0.00  0.00    -0.485 OA
BRANCH  14  15
ATOM     15  C   UNL     1       2.145   1.305   1.865  0.00  0.00    +0.121 A 
ATOM     16  C   UNL     1       1.036   1.884   2.466  0.00  0.00    +0.046 A 
ATOM     17  C   UNL     1       1.141   3.132   3.048  0.00  0.00    +0.018 A 
ATOM     18  C   UNL     1       2.350   3.804   3.033  0.00  0.00    +0.014 A 
ATOM     19  C   UNL     1       3.457   3.228   2.435  0.00  0.00    +0.018 A 
ATOM     20  C   UNL     1       3.357   1.978   1.856  0.00  0.00    +0.046 A 
ATOM     21  I   UNL     1       2.506   5.698   3.916  0.00  0.00    -0.044 I 
ENDBRANCH  14  15
ENDBRANCH   1  14
TORSDOF 5
