REMARK  Name = ZINC45668057
REMARK  7 active torsions:
REMARK  status: ('A' for Active; 'I' for Inactive)
REMARK    1  A    between atoms: C_1  and  C_2
REMARK    2  A    between atoms: C_2  and  C_3
REMARK    3  A    between atoms: C_2  and  C_4
REMARK    4  A    between atoms: C_2  and  C_5
REMARK    5  A    between atoms: C_5  and  C_6
REMARK    6  A    between atoms: C_6  and  N_7
REMARK    7  A    between atoms: N_10  and  C_11
REMARK                            x       y       z     vdW  Elec       q    Type
REMARK                         _______ _______ _______ _____ _____    ______ ____
ROOT
ATOM      1  N   UNL     1       2.839  -0.440  -2.473  0.00  0.00    -0.299 N 
ATOM      2  C   UNL     1       4.123  -0.096  -2.697  0.00  0.00    +0.300 C 
ATOM      3  O   UNL     1       4.712   0.607  -1.898  0.00  0.00    -0.253 OA
ATOM      4  N   UNL     1       4.754  -0.531  -3.805  0.00  0.00    -0.288 N 
ATOM      5  H   UNL     1       2.369  -1.001  -3.110  0.00  0.00    +0.150 HD
ATOM      6  H   UNL     1       4.284  -1.091  -4.443  0.00  0.00    +0.151 HD
ENDROOT
BRANCH   4   7
ATOM      7  C   UNL     1       6.149  -0.157  -4.049  0.00  0.00    +0.160 C 
ATOM      8  C   UNL     1       6.809  -1.196  -4.958  0.00  0.00    +0.032 C 
ATOM      9  C   UNL     1       8.314  -1.208  -4.756  0.00  0.00    +0.004 C 
ATOM     10  C   UNL     1       9.004   0.064  -5.213  0.00  0.00    +0.019 C 
ATOM     11  C   UNL     1       8.603   1.248  -4.333  0.00  0.00    +0.104 C 
ATOM     12  N   UNL     1       7.363   1.834  -4.868  0.00  0.00    -0.314 N 
ATOM     13  C   UNL     1       6.202   1.192  -4.736  0.00  0.00    +0.233 C 
ATOM     14  O   UNL     1       5.185   1.688  -5.173  0.00  0.00    -0.274 OA
ATOM     15  H   UNL     1       7.390   2.694  -5.315  0.00  0.00    +0.149 HD
ENDBRANCH   4   7
BRANCH   1  16
ATOM     16  C   UNL     1       2.154   0.032  -1.268  0.00  0.00    +0.106 C 
BRANCH  16  17
ATOM     17  C   UNL     1       0.718  -0.497  -1.257  0.00  0.00    +0.025 C 
BRANCH  17  19
ATOM     18  C   UNL     1      -0.019   1.526   0.010  0.00  0.00    +0.010 C 
ATOM     19  C   UNL     1       0.002  -0.004   0.002  0.00  0.00    -0.036 C 
ATOM     20  C   UNL     1       0.742  -0.511   1.242  0.00  0.00    +0.010 C 
ATOM     21  C   UNL     1      -1.433  -0.534   0.013  0.00  0.00    +0.010 C 
ENDBRANCH  17  19
ENDBRANCH  16  17
ENDBRANCH   1  16
TORSDOF 4
