REMARK  Name = ZINC26499399
REMARK  12 active torsions:
REMARK  status: ('A' for Active; 'I' for Inactive)
REMARK    1  A    between atoms: C_1  and  C_2
REMARK    2  A    between atoms: C_2  and  C_3
REMARK    3  A    between atoms: C_2  and  C_4
REMARK    4  A    between atoms: C_4  and  C_6
REMARK    5  A    between atoms: C_4  and  N_31
REMARK    6  A    between atoms: C_10  and  C_12
REMARK    7  A    between atoms: C_12  and  O_13
REMARK    8  A    between atoms: O_13  and  C_14
REMARK    9  A    between atoms: C_24  and  C_27
REMARK   10  A    between atoms: N_31  and  C_32
REMARK   11  A    between atoms: C_32  and  C_33
REMARK   12  A    between atoms: C_33  and  C_34
REMARK                            x       y       z     vdW  Elec       q    Type
REMARK                         _______ _______ _______ _____ _____    ______ ____
ROOT
ATOM      1  C   UNL     1      -1.380   2.390  -1.003  0.00  0.00    +0.028 A 
ATOM      2  C   UNL     1      -2.019   2.243   0.214  0.00  0.00    +0.022 A 
ATOM      3  C   UNL     1      -3.206   2.921   0.440  0.00  0.00    +0.004 A 
ATOM      4  C   UNL     1      -3.715   3.717  -0.575  0.00  0.00    +0.027 A 
ATOM      5  C   UNL     1      -3.023   3.812  -1.767  0.00  0.00    +0.079 A 
ATOM      6  N   UNL     1      -1.893   3.156  -1.945  0.00  0.00    -0.255 NA
ENDROOT
BRANCH   1   7
ATOM      7  C   UNL     1      -0.085   1.662  -1.257  0.00  0.00    -0.019 C 
BRANCH   7   9
ATOM      8  C   UNL     1       1.137   0.188  -2.862  0.00  0.00    +0.006 C 
ATOM      9  C   UNL     1      -0.216   0.818  -2.526  0.00  0.00    -0.026 C 
ATOM     10  C   UNL     1      -1.250  -0.287  -2.299  0.00  0.00    +0.006 C 
ENDBRANCH   7   9
BRANCH   7  11
ATOM     11  N   UNL     1       0.218   0.788  -0.116  0.00  0.00    +0.385 N 
ATOM     12  H   UNL     1      -0.721   0.444   0.341  0.00  0.00    -0.085 HD
ATOM     13  H   UNL     1       0.797  -0.080  -0.463  0.00  0.00    -0.085 HD
BRANCH  11  14
ATOM     14  C   UNL     1       1.003   1.502   0.900  0.00  0.00    -0.077 C 
BRANCH  14  15
ATOM     15  C   UNL     1       1.327   0.552   2.054  0.00  0.00    +0.016 C 
BRANCH  15  16
ATOM     16  C   UNL     1       2.132   1.284   3.097  0.00  0.00    -0.049 A 
ATOM     17  C   UNL     1       3.512   1.289   3.026  0.00  0.00    +0.003 A 
ATOM     18  C   UNL     1       4.251   1.965   3.979  0.00  0.00    +0.000 A 
ATOM     19  C   UNL     1       3.609   2.627   5.009  0.00  0.00    +0.000 A 
ATOM     20  C   UNL     1       2.229   2.617   5.083  0.00  0.00    +0.000 A 
ATOM     21  C   UNL     1       1.490   1.946   4.127  0.00  0.00    +0.003 A 
ENDBRANCH  15  16
ENDBRANCH  14  15
ENDBRANCH  11  14
ENDBRANCH   7  11
ENDBRANCH   1   7
BRANCH   5  22
ATOM     22  C   UNL     1      -3.567   4.675  -2.877  0.00  0.00    +0.286 C 
BRANCH  22  23
ATOM     23  O   UNL     1      -4.791   5.279  -2.454  0.00  0.00    -0.469 OA
BRANCH  23  24
ATOM     24  C   UNL     1      -5.414   6.093  -3.342  0.00  0.00    +0.241 A 
ATOM     25  C   UNL     1      -6.678   6.741  -2.975  0.00  0.00    +0.049 A 
ATOM     26  C   UNL     1      -7.261   6.554  -1.722  0.00  0.00    +0.014 A 
ATOM     27  C   UNL     1      -8.446   7.189  -1.421  0.00  0.00    +0.001 A 
ATOM     28  C   UNL     1      -9.063   8.017  -2.349  0.00  0.00    +0.001 A 
ATOM     29  C   UNL     1      -8.503   8.220  -3.590  0.00  0.00    +0.012 A 
ATOM     30  C   UNL     1      -7.304   7.588  -3.917  0.00  0.00    +0.033 A 
ATOM     31  C   UNL     1      -6.661   7.766  -5.222  0.00  0.00    +0.186 A 
ATOM     32  N   UNL     1      -6.964   8.458  -6.301  0.00  0.00    -0.127 NA
ATOM     33  N   UNL     1      -6.056   8.275  -7.196  0.00  0.00    -0.123 NA
ATOM     34  C   UNL     1      -5.134   7.465  -6.742  0.00  0.00    +0.258 A 
ATOM     35  N   UNL     1      -5.483   7.114  -5.476  0.00  0.00    -0.185 N 
ATOM     36  N   UNL     1      -4.890   6.290  -4.520  0.00  0.00    -0.125 NA
BRANCH  34  37
ATOM     37  C   UNL     1      -3.907   7.007  -7.487  0.00  0.00    +0.454 C 
ATOM     38  F   UNL     1      -3.707   7.824  -8.605  0.00  0.00    -0.163 F 
ATOM     39  F   UNL     1      -2.792   7.087  -6.645  0.00  0.00    -0.163 F 
ATOM     40  F   UNL     1      -4.082   5.683  -7.903  0.00  0.00    -0.163 F 
ENDBRANCH  34  37
ENDBRANCH  23  24
ENDBRANCH  22  23
ENDBRANCH   5  22
TORSDOF 10
