REMARK  Name = ZINC02113878
REMARK  7 active torsions:
REMARK  status: ('A' for Active; 'I' for Inactive)
REMARK    1  A    between atoms: C_1  and  C_2
REMARK    2  A    between atoms: C_12  and  C_13
REMARK    3  A    between atoms: C_13  and  C_14
REMARK    4  A    between atoms: C_14  and  C_15
REMARK    5  A    between atoms: C_20  and  C_23
REMARK    6  A    between atoms: C_27  and  C_35
REMARK    7  A    between atoms: C_28  and  C_29
REMARK                            x       y       z     vdW  Elec       q    Type
REMARK                         _______ _______ _______ _____ _____    ______ ____
ROOT
ATOM      1  C   UNL     1       6.421   1.403  -0.053  0.00  0.00    +0.045 C 
ATOM      2  C   UNL     1       5.428   2.538  -0.037  0.00  0.00    -0.030 A 
ATOM      3  C   UNL     1       3.986   2.276  -0.024  0.00  0.00    +0.022 A 
ATOM      4  C   UNL     1       3.497   0.969  -0.026  0.00  0.00    +0.024 A 
ATOM      5  C   UNL     1       2.128   0.756  -0.014  0.00  0.00    +0.029 A 
ATOM      6  C   UNL     1       1.235   1.845   0.000  0.00  0.00    +0.139 A 
ATOM      7  C   UNL     1       1.727   3.142   0.003  0.00  0.00    +0.093 A 
ATOM      8  C   UNL     1       3.093   3.367  -0.009  0.00  0.00    +0.143 A 
ATOM      9  O   UNL     1       3.578   4.629  -0.008  0.00  0.00    -0.422 OA
ATOM     10  C   UNL     1       4.897   4.873  -0.019  0.00  0.00    +0.341 A 
ATOM     11  O   UNL     1       5.286   6.027  -0.017  0.00  0.00    -0.245 OA
ATOM     12  C   UNL     1       5.846   3.829  -0.034  0.00  0.00    +0.041 A 
ATOM     13  O   UNL     1      -0.016   1.339   0.009  0.00  0.00    -0.459 OA
ATOM     14  C   UNL     1       0.002  -0.004   0.002  0.00  0.00    +0.111 A 
ATOM     15  C   UNL     1       1.278  -0.450  -0.013  0.00  0.00    +0.031 A 
ATOM     16  C   UNL     1      -1.221  -0.884   0.009  0.00  0.00    +0.087 C 
ENDROOT
BRANCH  15  17
ATOM     17  C   UNL     1       1.730  -1.862  -0.024  0.00  0.00    -0.014 A 
ATOM     18  C   UNL     1       2.444  -2.377   1.057  0.00  0.00    +0.008 A 
ATOM     19  C   UNL     1       2.858  -3.694   1.042  0.00  0.00    +0.001 A 
ATOM     20  C   UNL     1       2.576  -4.498  -0.047  0.00  0.00    +0.000 A 
ATOM     21  C   UNL     1       1.872  -3.991  -1.125  0.00  0.00    +0.001 A 
ATOM     22  C   UNL     1       1.449  -2.678  -1.119  0.00  0.00    +0.008 A 
ENDBRANCH  15  17
BRANCH  12  23
ATOM     23  C   UNL     1       7.319   4.147  -0.047  0.00  0.00    +0.052 C 
BRANCH  23  24
ATOM     24  C   UNL     1       7.803   4.262  -1.494  0.00  0.00    +0.101 C 
BRANCH  24  25
ATOM     25  C   UNL     1       9.276   4.580  -1.508  0.00  0.00    +0.216 C 
ATOM     26  O   UNL     1       9.879   4.702  -0.463  0.00  0.00    -0.276 OA
ATOM     27  N   UNL     1       9.923   4.728  -2.681  0.00  0.00    -0.301 N 
ATOM     28  C   UNL     1       9.207   4.577  -3.955  0.00  0.00    +0.108 C 
ATOM     29  C   UNL     1       9.940   3.552  -4.819  0.00  0.00    +0.032 C 
ATOM     30  C   UNL     1      11.405   3.968  -4.967  0.00  0.00    +0.078 C 
ATOM     31  C   UNL     1      12.069   4.003  -3.588  0.00  0.00    +0.032 C 
ATOM     32  C   UNL     1      11.359   5.038  -2.710  0.00  0.00    +0.108 C 
BRANCH  30  33
ATOM     33  C   UNL     1      12.123   2.975  -5.844  0.00  0.00    +0.214 C 
ATOM     34  O   UNL     1      13.071   2.356  -5.410  0.00  0.00    -0.276 OA
ATOM     35  N   UNL     1      11.710   2.775  -7.112  0.00  0.00    -0.329 N 
ATOM     36  H   UNL     1      10.952   3.270  -7.459  0.00  0.00    +0.145 HD
ATOM     37  H   UNL     1      12.172   2.136  -7.677  0.00  0.00    +0.145 HD
ENDBRANCH  30  33
ENDBRANCH  24  25
ENDBRANCH  23  24
ENDBRANCH  12  23
TORSDOF 5
