REMARK  Name = ZINC13064811
REMARK  11 active torsions:
REMARK  status: ('A' for Active; 'I' for Inactive)
REMARK    1  A    between atoms: C_1  and  C_2
REMARK    2  A    between atoms: C_2  and  C_3
REMARK    3  A    between atoms: C_3  and  C_5
REMARK    4  A    between atoms: C_3  and  N_69
REMARK    5  A    between atoms: N_9  and  C_10
REMARK    6  A    between atoms: C_15  and  C_16
REMARK    7  A    between atoms: C_15  and  N_69
REMARK    8  A    between atoms: C_23  and  C_24
REMARK    9  A    between atoms: C_23  and  N_69
REMARK   10  A    between atoms: C_27  and  C_37
REMARK   11  A    between atoms: C_29  and  C_36
REMARK                            x       y       z     vdW  Elec       q    Type
REMARK                         _______ _______ _______ _____ _____    ______ ____
ROOT
ATOM      1  N   UNL     1       5.292   4.606  -1.811  0.00  0.00    +0.392 N 
ATOM      2  H   UNL     1       5.332   3.910  -2.565  0.00  0.00    -0.080 HD
ENDROOT
BRANCH   1   3
ATOM      3  C   UNL     1       6.535   5.406  -1.829  0.00  0.00    +0.003 C 
BRANCH   3   4
ATOM      4  C   UNL     1       7.675   4.513  -2.247  0.00  0.00    +0.138 A 
ATOM      5  N   UNL     1       7.885   3.279  -1.859  0.00  0.00    -0.115 NA
ATOM      6  N   UNL     1       8.958   2.858  -2.435  0.00  0.00    -0.023 NA
ATOM      7  N   UNL     1       9.438   3.792  -3.180  0.00  0.00    -0.044 NA
ATOM      8  N   UNL     1       8.672   4.827  -3.095  0.00  0.00    -0.228 N 
BRANCH   8   9
ATOM      9  C   UNL     1       8.855   6.105  -3.787  0.00  0.00    +0.111 C 
ATOM     10  C   UNL     1       8.889   5.879  -5.313  0.00  0.00    +0.027 C 
ATOM     11  C   UNL     1       9.947   6.890  -5.823  0.00  0.00    +0.002 C 
ATOM     12  C   UNL     1      11.023   6.851  -4.709  0.00  0.00    +0.002 C 
ATOM     13  C   UNL     1      10.211   6.723  -3.403  0.00  0.00    +0.027 C 
ENDBRANCH   8   9
ENDBRANCH   3   4
BRANCH   3  15
ATOM     14  C   UNL     1       5.731   6.991  -0.073  0.00  0.00    +0.002 C 
ATOM     15  C   UNL     1       6.820   5.981  -0.440  0.00  0.00    -0.011 C 
ENDBRANCH   3  15
ENDBRANCH   1   3
BRANCH   1  16
ATOM     16  C   UNL     1       4.123   5.484  -2.029  0.00  0.00    -0.042 C 
BRANCH  16  17
ATOM     17  C   UNL     1       4.128   5.952  -3.461  0.00  0.00    -0.064 A 
ATOM     18  C   UNL     1       4.673   7.180  -3.784  0.00  0.00    +0.004 A 
ATOM     19  C   UNL     1       4.683   7.609  -5.098  0.00  0.00    +0.038 A 
ATOM     20  C   UNL     1       4.138   6.811  -6.090  0.00  0.00    +0.123 A 
ATOM     21  C   UNL     1       3.587   5.583  -5.764  0.00  0.00    +0.038 A 
ATOM     22  C   UNL     1       3.583   5.154  -4.450  0.00  0.00    +0.004 A 
ATOM     23  F   UNL     1       4.143   7.230  -7.374  0.00  0.00    -0.205 F 
ENDBRANCH  16  17
ENDBRANCH   1  16
BRANCH   1  24
ATOM     24  C   UNL     1       5.162   3.904  -0.516  0.00  0.00    -0.036 C 
BRANCH  24  25
ATOM     25  C   UNL     1       4.080   2.862  -0.636  0.00  0.00    +0.001 A 
ATOM     26  C   UNL     1       4.404   1.585  -0.957  0.00  0.00    +0.017 A 
ATOM     27  C   UNL     1       3.329   0.597  -1.065  0.00  0.00    +0.002 A 
ATOM     28  C   UNL     1       3.602  -0.736  -1.392  0.00  0.00    -0.041 A 
ATOM     29  C   UNL     1       2.577  -1.633  -1.486  0.00  0.00    +0.007 A 
ATOM     30  C   UNL     1       1.266  -1.235  -1.260  0.00  0.00    -0.048 A 
ATOM     31  C   UNL     1       0.974   0.072  -0.937  0.00  0.00    +0.029 A 
ATOM     32  C   UNL     1       2.002   1.004  -0.835  0.00  0.00    +0.050 A 
ATOM     33  N   UNL     1       1.739   2.319  -0.513  0.00  0.00    -0.322 N 
ATOM     34  H   UNL     1       0.824   2.598  -0.355  0.00  0.00    +0.169 HD
ATOM     35  C   UNL     1       2.733   3.219  -0.416  0.00  0.00    +0.251 A 
ATOM     36  O   UNL     1       2.463   4.373  -0.130  0.00  0.00    -0.268 OA
ATOM     37  C   UNL     1       0.151  -2.243  -1.369  0.00  0.00    +0.044 C 
ATOM     38  C   UNL     1       5.021  -1.179  -1.639  0.00  0.00    +0.044 C 
ENDBRANCH  24  25
ENDBRANCH   1  24
TORSDOF 8
