REMARK  Name = ZINC61687596
REMARK  7 active torsions:
REMARK  status: ('A' for Active; 'I' for Inactive)
REMARK    1  A    between atoms: C_1  and  C_2
REMARK    2  A    between atoms: C_3  and  C_19
REMARK    3  A    between atoms: C_4  and  N_18
REMARK    4  A    between atoms: C_6  and  C_8
REMARK    5  A    between atoms: N_16  and  C_17
REMARK    6  A    between atoms: C_19  and  C_20
REMARK    7  A    between atoms: C_19  and  C_21
REMARK                            x       y       z     vdW  Elec       q    Type
REMARK                         _______ _______ _______ _____ _____    ______ ____
ROOT
ATOM      1  C   UNL     1      -0.422   1.510  -0.172  0.00  0.00    +0.066 C 
ATOM      2  C   UNL     1      -0.255   0.016  -0.062  0.00  0.00    +0.047 A 
ATOM      3  C   UNL     1      -0.105  -0.755  -1.200  0.00  0.00    +0.016 A 
ATOM      4  C   UNL     1       0.047  -2.136  -1.054  0.00  0.00    +0.124 A 
ATOM      5  N   UNL     1       0.043  -2.660   0.167  0.00  0.00    -0.213 NA
ATOM      6  C   UNL     1      -0.103  -1.885   1.233  0.00  0.00    +0.162 A 
ATOM      7  N   UNL     1      -0.245  -0.571   1.124  0.00  0.00    -0.232 NA
ENDROOT
BRANCH   6   8
ATOM      8  C   UNL     1      -0.103  -2.503   2.580  0.00  0.00    +0.020 A 
ATOM      9  C   UNL     1      -0.262  -1.709   3.716  0.00  0.00    +0.013 A 
ATOM     10  C   UNL     1      -0.261  -2.284   4.965  0.00  0.00    +0.024 A 
ATOM     11  C   UNL     1      -0.102  -3.667   5.109  0.00  0.00    +0.033 A 
ATOM     12  C   UNL     1       0.054  -4.452   3.975  0.00  0.00    -0.024 A 
ATOM     13  C   UNL     1       0.049  -3.882   2.720  0.00  0.00    +0.017 A 
ATOM     14  C   UNL     1       0.204  -5.894   4.406  0.00  0.00    +0.056 C 
ATOM     15  C   UNL     1       0.114  -5.848   5.941  0.00  0.00    +0.109 C 
ATOM     16  N   UNL     1      -0.074  -4.433   6.272  0.00  0.00    -0.332 N 
ATOM     17  C   UNL     1      -0.212  -3.901   7.630  0.00  0.00    +0.129 C 
ENDBRANCH   6   8
BRANCH   4  18
ATOM     18  N   UNL     1       0.200  -2.947  -2.167  0.00  0.00    -0.343 N 
ATOM     19  H   UNL     1       0.302  -2.550  -3.046  0.00  0.00    +0.144 HD
ATOM     20  H   UNL     1       0.205  -3.912  -2.067  0.00  0.00    +0.144 HD
ENDBRANCH   4  18
BRANCH   3  21
ATOM     21  C   UNL     1      -0.106  -0.120  -2.567  0.00  0.00    +0.018 C 
ATOM     22  C   UNL     1       1.243  -0.365  -3.244  0.00  0.00    +0.012 C 
ATOM     23  C   UNL     1      -1.222  -0.735  -3.414  0.00  0.00    +0.012 C 
ENDBRANCH   3  21
TORSDOF 3
