REMARK  Name = ZINC05931417
REMARK  6 active torsions:
REMARK  status: ('A' for Active; 'I' for Inactive)
REMARK    1  A    between atoms: C_1  and  C_2
REMARK    2  A    between atoms: C_2  and  C_3
REMARK    3  A    between atoms: C_3  and  C_5
REMARK    4  A    between atoms: C_3  and  S_6
REMARK    5  A    between atoms: S_6  and  C_7
REMARK    6  A    between atoms: C_18  and  C_20
REMARK                            x       y       z     vdW  Elec       q    Type
REMARK                         _______ _______ _______ _____ _____    ______ ____
ROOT
ATOM      1  C   UNL     1      -0.022   1.758   0.012  0.00  0.00    +0.171 A 
ATOM      2  N   UNL     1       1.157   2.441   0.004  0.00  0.00    -0.302 N 
ATOM      3  H   UNL     1       2.110   1.893  -0.012  0.00  0.00    +0.171 HD
ATOM      4  C   UNL     1       1.157   3.791   0.016  0.00  0.00    +0.258 A 
ATOM      5  O   UNL     1       2.208   4.412   0.013  0.00  0.00    -0.267 OA
ATOM      6  C   UNL     1      -0.069   4.465   0.031  0.00  0.00    +0.069 A 
ATOM      7  C   UNL     1      -1.238   3.723   0.032  0.00  0.00    +0.135 A 
ATOM      8  N   UNL     1      -1.179   2.387   0.021  0.00  0.00    -0.208 NA
ATOM      9  N   UNL     1      -2.458   4.370   0.040  0.00  0.00    -0.302 N 
ATOM     10  C   UNL     1      -2.554   5.680  -0.343  0.00  0.00    +0.017 C 
ATOM     11  C   UNL     1      -1.468   6.481  -0.356  0.00  0.00    +0.024 C 
ATOM     12  C   UNL     1      -0.111   5.964   0.049  0.00  0.00    +0.094 C 
ATOM     13  C   UNL     1      -1.567   7.828  -0.747  0.00  0.00    +0.162 C 
ATOM     14  O   UNL     1      -0.566   8.517  -0.767  0.00  0.00    -0.292 OA
ATOM     15  C   UNL     1      -2.885   8.433  -1.142  0.00  0.00    +0.080 C 
ATOM     16  C   UNL     1      -4.011   7.692  -0.412  0.00  0.00    +0.014 C 
ATOM     17  C   UNL     1      -3.910   6.203  -0.753  0.00  0.00    +0.051 C 
ATOM     18  H   UNL     1      -3.364   3.831   0.356  0.00  0.00    +0.153 HD
ENDROOT
BRANCH  12  19
ATOM     19  C   UNL     1       0.205   6.449   1.440  0.00  0.00    -0.017 A 
ATOM     20  C   UNL     1       1.298   7.272   1.665  0.00  0.00    +0.007 A 
ATOM     21  C   UNL     1       1.551   7.694   2.962  0.00  0.00    +0.020 A 
ATOM     22  C   UNL     1       0.710   7.283   3.979  0.00  0.00    +0.111 A 
ATOM     23  N   UNL     1      -0.321   6.500   3.728  0.00  0.00    -0.263 NA
ATOM     24  C   UNL     1      -0.595   6.084   2.506  0.00  0.00    +0.115 A 
ENDBRANCH  12  19
BRANCH   1  25
ATOM     25  S   UNL     1       0.002  -0.004   0.002  0.00  0.00    -0.085 S 
BRANCH  25  26
ATOM     26  C   UNL     1      -1.776  -0.343   0.017  0.00  0.00    +0.051 C 
ATOM     27  C   UNL     1      -2.403   0.168  -1.282  0.00  0.00    +0.019 C 
BRANCH  26  29
ATOM     28  C   UNL     1      -1.490  -2.339   1.492  0.00  0.00    +0.005 C 
ATOM     29  C   UNL     1      -2.007  -1.850   0.137  0.00  0.00    +0.011 C 
ENDBRANCH  26  29
ENDBRANCH  25  26
ENDBRANCH   1  25
TORSDOF 4
