REMARK  Name = ZINC15276207
REMARK  8 active torsions:
REMARK  status: ('A' for Active; 'I' for Inactive)
REMARK    1  A    between atoms: C_1  and  C_2
REMARK    2  A    between atoms: C_2  and  C_30
REMARK    3  A    between atoms: C_7  and  C_9
REMARK    4  A    between atoms: C_13  and  O_16
REMARK    5  A    between atoms: C_14  and  O_15
REMARK    6  A    between atoms: O_16  and  C_17
REMARK    7  A    between atoms: N_20  and  C_23
REMARK    8  A    between atoms: C_23  and  C_24
REMARK                            x       y       z     vdW  Elec       q    Type
REMARK                         _______ _______ _______ _____ _____    ______ ____
ROOT
ATOM      1  C   UNL     1      -1.139   5.496  -1.035  0.00  0.00    +0.002 C 
ATOM      2  C   UNL     1      -1.951   4.527  -0.174  0.00  0.00    +0.045 C 
ATOM      3  C   UNL     1      -2.763   3.646  -1.023  0.00  0.00    +0.086 C 
ATOM      4  C   UNL     1      -1.782   2.460  -1.371  0.00  0.00    +0.077 C 
ATOM      5  C   UNL     1      -1.274   2.214   0.046  0.00  0.00    -0.023 C 
ATOM      6  C   UNL     1      -2.802   1.560  -1.993  0.00  0.00    +0.225 C 
ATOM      7  O   UNL     1      -2.824   0.349  -1.958  0.00  0.00    -0.275 OA
ATOM      8  N   UNL     1      -3.705   2.380  -2.610  0.00  0.00    -0.237 N 
ATOM      9  C   UNL     1      -3.602   3.692  -2.196  0.00  0.00    +0.225 C 
ATOM     10  O   UNL     1      -4.109   4.670  -2.703  0.00  0.00    -0.275 OA
ATOM     11  N   UNL     1      -1.048   3.595   0.562  0.00  0.00    +0.395 N 
ATOM     12  H   UNL     1      -1.258   3.629   1.566  0.00  0.00    -0.083 HD
ATOM     13  H   UNL     1      -0.069   3.867   0.407  0.00  0.00    -0.083 HD
ENDROOT
BRANCH   5  14
ATOM     14  C   UNL     1       0.011   1.428   0.022  0.00  0.00    -0.015 A 
ATOM     15  C   UNL     1       1.221   2.084  -0.107  0.00  0.00    +0.006 A 
ATOM     16  C   UNL     1       2.401   1.365  -0.135  0.00  0.00    +0.004 A 
ATOM     17  C   UNL     1       2.377  -0.013  -0.034  0.00  0.00    +0.049 A 
ATOM     18  C   UNL     1       1.168  -0.677   0.096  0.00  0.00    +0.161 A 
ATOM     19  C   UNL     1      -0.020   0.046   0.125  0.00  0.00    +0.160 A 
BRANCH  19  20
ATOM     20  O   UNL     1      -1.210  -0.601   0.253  0.00  0.00    -0.503 OA
ATOM     21  H   UNL     1      -1.572  -0.926  -0.583  0.00  0.00    +0.292 HD
ENDBRANCH  19  20
BRANCH  18  22
ATOM     22  O   UNL     1       1.143  -2.033   0.196  0.00  0.00    -0.491 OA
ATOM     23  C   UNL     1       2.401  -2.710   0.160  0.00  0.00    +0.277 C 
ENDBRANCH  18  22
ENDBRANCH   5  14
BRANCH   2  24
ATOM     24  C   UNL     1      -2.828   5.287   0.788  0.00  0.00    +0.346 C 
ATOM     25  O   UNL     1      -3.971   5.540   0.492  0.00  0.00    -0.248 OA
ATOM     26  O   UNL     1      -2.337   5.683   1.973  0.00  0.00    -0.248 OA
ENDBRANCH   2  24
BRANCH   8  27
ATOM     27  C   UNL     1      -4.675   1.916  -3.605  0.00  0.00    +0.151 C 
BRANCH  27  28
ATOM     28  C   UNL     1      -5.947   1.501  -2.912  0.00  0.00    -0.030 A 
ATOM     29  C   UNL     1      -6.110   0.195  -2.491  0.00  0.00    +0.005 A 
ATOM     30  C   UNL     1      -7.275  -0.185  -1.850  0.00  0.00    +0.000 A 
ATOM     31  C   UNL     1      -8.281   0.739  -1.640  0.00  0.00    +0.000 A 
ATOM     32  C   UNL     1      -8.120   2.045  -2.066  0.00  0.00    +0.000 A 
ATOM     33  C   UNL     1      -6.953   2.425  -2.701  0.00  0.00    +0.005 A 
ENDBRANCH  27  28
ENDBRANCH   8  27
TORSDOF 6
