REMARK  Name = ZINC03459236
REMARK  8 active torsions:
REMARK  status: ('A' for Active; 'I' for Inactive)
REMARK    1  A    between atoms: C_1  and  C_2
REMARK    2  A    between atoms: C_6  and  N_9
REMARK    3  A    between atoms: C_7  and  C_8
REMARK    4  A    between atoms: C_10  and  C_12
REMARK    5  A    between atoms: C_12  and  N_13
REMARK    6  A    between atoms: C_18  and  C_25
REMARK    7  A    between atoms: C_21  and  C_23
REMARK    8  A    between atoms: C_21  and  C_24
REMARK                            x       y       z     vdW  Elec       q    Type
REMARK                         _______ _______ _______ _____ _____    ______ ____
ROOT
ATOM      1  N   UNL     1      -1.851   0.170   5.215  0.00  0.00    -0.215 N 
ATOM      2  C   UNL     1      -1.958   0.717   3.985  0.00  0.00    +0.247 C 
ATOM      3  O   UNL     1      -2.881   0.565   3.214  0.00  0.00    -0.273 OA
ATOM      4  C   UNL     1      -0.694   1.516   3.779  0.00  0.00    +0.113 C 
ATOM      5  C   UNL     1       0.034   1.058   2.522  0.00  0.00    +0.038 C 
ATOM      6  C   UNL     1      -0.705   1.558   1.279  0.00  0.00    -0.011 C 
ATOM      7  C   UNL     1      -0.700   3.085   1.292  0.00  0.00    +0.009 C 
ATOM      8  C   UNL     1      -1.442   3.622   2.511  0.00  0.00    -0.032 C 
ATOM      9  C   UNL     1      -0.951   3.008   3.811  0.00  0.00    +0.041 C 
ATOM     10  C   UNL     1      -2.949   3.407   2.346  0.00  0.00    +0.011 C 
ATOM     11  C   UNL     1      -1.196   5.144   2.579  0.00  0.00    +0.011 C 
ATOM     12  C   UNL     1       0.020   1.059   0.025  0.00  0.00    +0.007 C 
ATOM     13  N   UNL     1       0.130   1.155   4.956  0.00  0.00    -0.285 N 
ATOM     14  C   UNL     1      -0.653   0.414   5.758  0.00  0.00    +0.310 C 
ATOM     15  O   UNL     1      -0.313   0.011   6.853  0.00  0.00    -0.252 OA
ATOM     16  H   UNL     1       1.051   1.412   5.104  0.00  0.00    +0.151 HD
ENDROOT
BRANCH   1  17
ATOM     17  C   UNL     1      -2.914  -0.597   5.869  0.00  0.00    +0.214 C 
BRANCH  17  19
ATOM     18  N   UNL     1      -4.834  -0.150   7.364  0.00  0.00    -0.284 N 
ATOM     19  C   UNL     1      -3.784   0.336   6.672  0.00  0.00    +0.235 C 
ATOM     20  O   UNL     1      -3.540   1.524   6.695  0.00  0.00    -0.274 OA
ATOM     21  H   UNL     1      -5.077  -1.085   7.282  0.00  0.00    +0.155 HD
BRANCH  18  27
ATOM     22  C   UNL     1      -9.054   0.904   9.655  0.00  0.00    +0.044 C 
ATOM     23  C   UNL     1      -7.620   1.229   9.327  0.00  0.00    -0.046 A 
ATOM     24  C   UNL     1      -7.032   2.365   9.854  0.00  0.00    +0.004 A 
ATOM     25  C   UNL     1      -5.716   2.668   9.555  0.00  0.00    +0.002 A 
ATOM     26  C   UNL     1      -4.985   1.836   8.730  0.00  0.00    +0.023 A 
ATOM     27  C   UNL     1      -5.572   0.695   8.200  0.00  0.00    +0.037 A 
ATOM     28  C   UNL     1      -6.896   0.397   8.497  0.00  0.00    -0.026 A 
ATOM     29  C   UNL     1      -7.539  -0.837   7.918  0.00  0.00    +0.046 C 
ENDBRANCH  18  27
ENDBRANCH  17  19
ENDBRANCH   1  17
TORSDOF 3
