REMARK  Name = ZINC22989845
REMARK  5 active torsions:
REMARK  status: ('A' for Active; 'I' for Inactive)
REMARK    1  A    between atoms: C_1  and  C_2
REMARK    2  A    between atoms: C_9  and  C_14
REMARK    3  A    between atoms: C_14  and  S_15
REMARK    4  A    between atoms: S_15  and  C_16
REMARK    5  A    between atoms: C_17  and  C_26
REMARK                            x       y       z     vdW  Elec       q    Type
REMARK                         _______ _______ _______ _____ _____    ______ ____
ROOT
ATOM      1  C   UNL     1       2.499   3.907  -0.001  0.00  0.00    +0.046 C 
ATOM      2  C   UNL     1       1.192   3.157   0.007  0.00  0.00    -0.024 A 
ATOM      3  C   UNL     1       1.184   1.780   0.000  0.00  0.00    +0.005 A 
ATOM      4  C   UNL     1      -0.013   1.076   0.008  0.00  0.00    +0.001 A 
ATOM      5  C   UNL     1      -1.219   1.743   0.017  0.00  0.00    +0.015 A 
ATOM      6  C   UNL     1      -1.233   3.135   0.030  0.00  0.00    +0.065 A 
ATOM      7  C   UNL     1      -0.017   3.856   0.022  0.00  0.00    +0.081 A 
ATOM      8  N   UNL     1      -0.056   5.212   0.029  0.00  0.00    -0.233 NA
ATOM      9  C   UNL     1      -1.181   5.860   0.042  0.00  0.00    +0.121 A 
ATOM     10  N   UNL     1      -2.395   5.251   0.050  0.00  0.00    -0.310 N 
ATOM     11  H   UNL     1      -3.314   5.856   0.062  0.00  0.00    +0.170 HD
ATOM     12  C   UNL     1      -2.488   3.901   0.045  0.00  0.00    +0.259 A 
ATOM     13  O   UNL     1      -3.569   3.342   0.052  0.00  0.00    -0.267 OA
ENDROOT
BRANCH   9  14
ATOM     14  C   UNL     1      -1.137   7.367   0.049  0.00  0.00    +0.150 C 
BRANCH  14  15
ATOM     15  S   UNL     1       0.587   7.920   0.036  0.00  0.00    -0.096 S 
BRANCH  15  16
ATOM     16  C   UNL     1       0.347   9.666   0.046  0.00  0.00    +0.119 A 
ATOM     17  C   UNL     1       1.462  10.524   0.046  0.00  0.00    +0.071 A 
ATOM     18  N   UNL     1       1.303  11.825   0.047  0.00  0.00    -0.248 NA
ATOM     19  C   UNL     1       0.070  12.346   0.061  0.00  0.00    +0.090 A 
ATOM     20  C   UNL     1      -0.127  13.737   0.070  0.00  0.00    +0.030 A 
ATOM     21  C   UNL     1      -1.392  14.240   0.085  0.00  0.00    +0.002 A 
ATOM     22  C   UNL     1      -2.499  13.395   0.091  0.00  0.00    +0.002 A 
ATOM     23  C   UNL     1      -2.347  12.042   0.083  0.00  0.00    +0.030 A 
ATOM     24  C   UNL     1      -1.056  11.486   0.068  0.00  0.00    +0.090 A 
ATOM     25  N   UNL     1      -0.877  10.159   0.060  0.00  0.00    -0.237 NA
ATOM     26  C   UNL     1       2.852   9.941   0.036  0.00  0.00    +0.068 C 
ENDBRANCH  15  16
ENDBRANCH  14  15
ENDBRANCH   9  14
TORSDOF 3
