REMARK  Name = ZINC42439013
REMARK  4 active torsions:
REMARK  status: ('A' for Active; 'I' for Inactive)
REMARK    1  A    between atoms: C_5  and  C_8
REMARK    2  A    between atoms: C_8  and  C_9
REMARK    3  A    between atoms: C_14  and  C_17
REMARK    4  A    between atoms: C_17  and  C_18
REMARK                            x       y       z     vdW  Elec       q    Type
REMARK                         _______ _______ _______ _____ _____    ______ ____
ROOT
ATOM      1  C   UNL     1       1.517  -2.530   2.445  0.00  0.00    +0.214 C 
ATOM      2  O   UNL     1       1.944  -1.738   3.258  0.00  0.00    -0.276 OA
ATOM      3  N   UNL     1       1.654  -3.854   2.657  0.00  0.00    -0.302 N 
ATOM      4  C   UNL     1       1.147  -4.826   1.679  0.00  0.00    +0.108 C 
ATOM      5  C   UNL     1       2.284  -5.779   1.296  0.00  0.00    +0.023 C 
ATOM      6  C   UNL     1       2.865  -6.408   2.564  0.00  0.00    +0.001 C 
ATOM      7  C   UNL     1       3.438  -5.311   3.464  0.00  0.00    +0.023 C 
ATOM      8  C   UNL     1       2.320  -4.353   3.869  0.00  0.00    +0.108 C 
ENDROOT
BRANCH   1   9
ATOM      9  C   UNL     1       0.832  -2.034   1.198  0.00  0.00    +0.080 C 
BRANCH   9  14
ATOM     10  C   UNL     1      -0.019   1.527   0.010  0.00  0.00    -0.003 C 
ATOM     11  C   UNL     1       1.422   2.047  -0.001  0.00  0.00    -0.019 C 
ATOM     12  C   UNL     1       2.175   1.471   1.200  0.00  0.00    -0.082 C 
ATOM     13  N   UNL     1       2.183   0.005   1.120  0.00  0.00    +0.381 N 
ATOM     14  C   UNL     1       0.809  -0.504   1.202  0.00  0.00    -0.063 C 
ATOM     15  C   UNL     1       0.002  -0.004   0.002  0.00  0.00    -0.015 C 
ATOM     16  H   UNL     1       2.595  -0.281   0.245  0.00  0.00    -0.086 HD
ATOM     17  H   UNL     1       2.725  -0.369   1.883  0.00  0.00    -0.086 HD
ENDBRANCH   9  14
ENDBRANCH   1   9
BRANCH   6  18
ATOM     18  C   UNL     1       3.978  -7.387   2.183  0.00  0.00    +0.099 C 
BRANCH  18  19
ATOM     19  C   UNL     1       4.467  -8.098   3.418  0.00  0.00    +0.211 C 
ATOM     20  O   UNL     1       3.974  -7.846   4.497  0.00  0.00    -0.276 OA
ATOM     21  N   UNL     1       5.452  -9.013   3.324  0.00  0.00    -0.329 N 
ATOM     22  H   UNL     1       5.846  -9.214   2.461  0.00  0.00    +0.145 HD
ATOM     23  H   UNL     1       5.767  -9.470   4.119  0.00  0.00    +0.145 HD
ENDBRANCH  18  19
ENDBRANCH   6  18
TORSDOF 4
