REMARK  Name = ZINC38547390
REMARK  7 active torsions:
REMARK  status: ('A' for Active; 'I' for Inactive)
REMARK    1  A    between atoms: C_1  and  C_2
REMARK    2  A    between atoms: C_6  and  N_8
REMARK    3  A    between atoms: N_8  and  C_9
REMARK    4  A    between atoms: C_9  and  C_11
REMARK    5  A    between atoms: C_9  and  C_18
REMARK    6  A    between atoms: C_22  and  N_23
REMARK    7  A    between atoms: C_24  and  C_26
REMARK                            x       y       z     vdW  Elec       q    Type
REMARK                         _______ _______ _______ _____ _____    ______ ____
ROOT
ATOM      1  C   UNL     1       0.121  -4.140   2.440  0.00  0.00    +0.138 C 
ENDROOT
BRANCH   1   2
ATOM      2  C   UNL     1      -0.463  -4.763   3.683  0.00  0.00    +0.009 A 
ATOM      3  C   UNL     1      -1.349  -5.835   3.577  0.00  0.00    -0.030 A 
ATOM      4  C   UNL     1      -1.832  -6.343   4.742  0.00  0.00    -0.005 A 
ATOM      5  S   UNL     1      -1.067  -5.345   5.992  0.00  0.00    -0.078 S 
ATOM      6  C   UNL     1      -0.122  -4.284   4.909  0.00  0.00    +0.078 A 
ATOM      7  C   UNL     1      -2.788  -7.479   4.913  0.00  0.00    +0.043 C 
ATOM      8  C   UNL     1      -3.442  -7.770   3.554  0.00  0.00    +0.005 C 
ATOM      9  C   UNL     1      -2.346  -7.832   2.486  0.00  0.00    +0.005 C 
ATOM     10  C   UNL     1      -1.775  -6.435   2.240  0.00  0.00    +0.036 C 
BRANCH   6  11
ATOM     11  N   UNL     1       0.740  -3.236   5.237  0.00  0.00    -0.273 N 
ATOM     12  C   UNL     1       0.893  -2.867   6.524  0.00  0.00    +0.284 C 
ATOM     13  O   UNL     1       0.280  -3.447   7.401  0.00  0.00    -0.266 OA
ATOM     14  H   UNL     1       1.228  -2.773   4.538  0.00  0.00    +0.156 HD
BRANCH  12  15
ATOM     15  C   UNL     1       1.798  -1.766   6.868  0.00  0.00    +0.189 A 
ATOM     16  C   UNL     1       2.048  -1.296   8.125  0.00  0.00    +0.054 A 
ATOM     17  C   UNL     1       2.970  -0.246   7.988  0.00  0.00    +0.042 A 
ATOM     18  C   UNL     1       3.237  -0.122   6.669  0.00  0.00    +0.196 A 
ATOM     19  O   UNL     1       2.533  -1.042   5.998  0.00  0.00    -0.458 OA
ENDBRANCH  12  15
ENDBRANCH   6  11
ENDBRANCH   1   2
BRANCH   1  20
ATOM     20  C   UNL     1       1.584  -4.487   2.344  0.00  0.00    +0.012 A 
ATOM     21  C   UNL     1       2.539  -3.577   2.756  0.00  0.00    +0.008 A 
ATOM     22  C   UNL     1       3.881  -3.895   2.668  0.00  0.00    +0.001 A 
ATOM     23  C   UNL     1       4.270  -5.124   2.167  0.00  0.00    +0.003 A 
ATOM     24  C   UNL     1       3.317  -6.035   1.754  0.00  0.00    +0.039 A 
ATOM     25  C   UNL     1       1.972  -5.720   1.847  0.00  0.00    +0.129 A 
ATOM     26  F   UNL     1       1.039  -6.612   1.449  0.00  0.00    -0.205 F 
ENDBRANCH   1  20
BRANCH   1  27
ATOM     27  N   UNL     1      -0.033  -2.684   2.506  0.00  0.00    -0.320 N 
ATOM     28  H   UNL     1      -0.160  -2.248   3.363  0.00  0.00    +0.148 HD
BRANCH  27  34
ATOM     29  C   UNL     1      -0.270   1.634   0.453  0.00  0.00    +0.063 C 
ATOM     30  C   UNL     1      -0.106   0.141   0.324  0.00  0.00    +0.014 A 
ATOM     31  C   UNL     1       0.072  -0.420  -0.925  0.00  0.00    +0.021 A 
ATOM     32  C   UNL     1       0.222  -1.795  -1.038  0.00  0.00    +0.005 A 
ATOM     33  C   UNL     1       0.188  -2.560   0.115  0.00  0.00    +0.041 A 
ATOM     34  C   UNL     1       0.005  -1.928   1.340  0.00  0.00    +0.097 A 
ATOM     35  N   UNL     1      -0.130  -0.612   1.407  0.00  0.00    -0.347 N 
ATOM     36  H   UNL     1      -0.252  -0.193   2.273  0.00  0.00    +0.167 HD
ENDBRANCH  27  34
ENDBRANCH   1  27
TORSDOF 6
