REMARK  Name = ZINC08758720
REMARK  14 active torsions:
REMARK  status: ('A' for Active; 'I' for Inactive)
REMARK    1  A    between atoms: C_1  and  C_2
REMARK    2  A    between atoms: C_4  and  C_41
REMARK    3  A    between atoms: N_10  and  C_11
REMARK    4  A    between atoms: C_11  and  C_13
REMARK    5  A    between atoms: C_14  and  C_15
REMARK    6  A    between atoms: C_17  and  O_25
REMARK    7  A    between atoms: C_18  and  O_23
REMARK    8  A    between atoms: C_19  and  O_21
REMARK    9  A    between atoms: O_21  and  C_22
REMARK   10  A    between atoms: O_23  and  C_24
REMARK   11  A    between atoms: O_25  and  C_26
REMARK   12  A    between atoms: N_27  and  C_28
REMARK   13  A    between atoms: C_28  and  C_29
REMARK   14  A    between atoms: C_29  and  C_30
REMARK                            x       y       z     vdW  Elec       q    Type
REMARK                         _______ _______ _______ _____ _____    ______ ____
ROOT
ATOM      1  C   UNL     1       0.212  -8.177   0.223  0.00  0.00    +0.066 C 
ATOM      2  C   UNL     1       1.479  -8.899  -0.156  0.00  0.00    +0.044 A 
ATOM      3  C   UNL     1       1.447 -10.244  -0.491  0.00  0.00    +0.046 A 
ATOM      4  C   UNL     1       2.635 -10.870  -0.834  0.00  0.00    +0.044 A 
ATOM      5  N   UNL     1       3.757 -10.170  -0.831  0.00  0.00    -0.217 NA
ATOM      6  C   UNL     1       3.753  -8.886  -0.506  0.00  0.00    +0.231 A 
ATOM      7  N   UNL     1       2.637  -8.259  -0.169  0.00  0.00    -0.217 NA
ATOM      8  N   UNL     1       4.950  -8.182  -0.514  0.00  0.00    -0.297 N 
ATOM      9  C   UNL     1       4.965  -6.855  -0.181  0.00  0.00    +0.196 C 
ATOM     10  N   UNL     1       3.840  -6.243   0.148  0.00  0.00    -0.143 NA
ATOM     11  N   UNL     1       6.141  -6.163  -0.188  0.00  0.00    -0.357 N 
ATOM     12  C   UNL     1       2.648 -12.331  -1.206  0.00  0.00    +0.066 C 
ATOM     13  H   UNL     1       5.776  -8.631  -0.755  0.00  0.00    +0.171 HD
ATOM     14  H   UNL     1       6.141  -5.205  -0.037  0.00  0.00    +0.162 HD
ENDROOT
BRANCH  10  15
ATOM     15  C   UNL     1       3.877  -5.011   0.684  0.00  0.00    +0.263 C 
ATOM     16  O   UNL     1       4.948  -4.502   0.970  0.00  0.00    -0.269 OA
BRANCH  15  17
ATOM     17  C   UNL     1       2.629  -4.279   0.924  0.00  0.00    +0.070 C 
ATOM     18  C   UNL     1       2.666  -3.043   1.462  0.00  0.00    +0.013 C 
BRANCH  18  19
ATOM     19  C   UNL     1       1.415  -2.308   1.703  0.00  0.00    -0.018 A 
ATOM     20  C   UNL     1       0.186  -2.890   1.376  0.00  0.00    +0.057 A 
ATOM     21  C   UNL     1      -0.988  -2.197   1.604  0.00  0.00    +0.166 A 
ATOM     22  C   UNL     1      -0.948  -0.923   2.164  0.00  0.00    +0.204 A 
ATOM     23  C   UNL     1       0.274  -0.338   2.486  0.00  0.00    +0.166 A 
ATOM     24  C   UNL     1       1.452  -1.025   2.260  0.00  0.00    +0.057 A 
BRANCH  23  25
ATOM     25  O   UNL     1       0.309   0.909   3.028  0.00  0.00    -0.491 OA
ATOM     26  C   UNL     1       1.596   1.446   3.338  0.00  0.00    +0.277 C 
ENDBRANCH  23  25
BRANCH  22  27
ATOM     27  O   UNL     1      -2.104  -0.247   2.393  0.00  0.00    -0.488 OA
ATOM     28  C   UNL     1      -2.592   0.582   1.336  0.00  0.00    +0.277 C 
ENDBRANCH  22  27
BRANCH  21  29
ATOM     29  O   UNL     1      -2.183  -2.763   1.287  0.00  0.00    -0.491 OA
ATOM     30  C   UNL     1      -2.151  -4.075   0.722  0.00  0.00    +0.277 C 
ENDBRANCH  21  29
ENDBRANCH  18  19
ENDBRANCH  15  17
ENDBRANCH  10  15
BRANCH  11  31
ATOM     31  C   UNL     1       7.404  -6.867  -0.423  0.00  0.00    +0.120 C 
BRANCH  31  32
ATOM     32  C   UNL     1       8.561  -5.867  -0.380  0.00  0.00    +0.058 C 
BRANCH  32  33
ATOM     33  C   UNL     1       9.860  -6.592  -0.623  0.00  0.00    -0.021 A 
ATOM     34  C   UNL     1      10.700  -7.061   0.314  0.00  0.00    +0.087 A 
ATOM     35  N   UNL     1      11.775  -7.661  -0.282  0.00  0.00    -0.360 N 
ATOM     36  H   UNL     1      12.515  -8.075   0.190  0.00  0.00    +0.165 HD
ATOM     37  C   UNL     1      11.651  -7.590  -1.652  0.00  0.00    +0.047 A 
ATOM     38  C   UNL     1      10.444  -6.923  -1.925  0.00  0.00    +0.004 A 
ATOM     39  C   UNL     1      10.054  -6.698  -3.247  0.00  0.00    +0.030 A 
ATOM     40  C   UNL     1      10.853  -7.143  -4.277  0.00  0.00    +0.042 A 
ATOM     41  C   UNL     1      12.043  -7.807  -4.007  0.00  0.00    +0.022 A 
ATOM     42  C   UNL     1      12.442  -8.031  -2.708  0.00  0.00    +0.027 A 
ATOM     43 CL   UNL     1      10.371  -6.873  -5.923  0.00  0.00    -0.084 Cl
ENDBRANCH  32  33
ENDBRANCH  31  32
ENDBRANCH  11  31
TORSDOF 9
