REMARK  Name = ZINC03668419
REMARK  9 active torsions:
REMARK  status: ('A' for Active; 'I' for Inactive)
REMARK    1  A    between atoms: C_1  and  C_2
REMARK    2  A    between atoms: C_2  and  O_3
REMARK    3  A    between atoms: O_3  and  C_4
REMARK    4  A    between atoms: C_4  and  C_6
REMARK    5  A    between atoms: C_10  and  N_11
REMARK    6  A    between atoms: C_14  and  C_21
REMARK    7  A    between atoms: C_16  and  C_19
REMARK    8  A    between atoms: C_17  and  N_18
REMARK    9  A    between atoms: C_25  and  N_27
REMARK                            x       y       z     vdW  Elec       q    Type
REMARK                         _______ _______ _______ _____ _____    ______ ____
ROOT
ATOM      1  N   UNL     1      -1.850   6.935  -1.723  0.00  0.00    -0.254 N 
ATOM      2  C   UNL     1      -2.024   7.206  -3.056  0.00  0.00    +0.025 C 
ATOM      3  C   UNL     1      -1.877   8.462  -3.527  0.00  0.00    +0.025 C 
ATOM      4  C   UNL     1      -1.514   9.598  -2.604  0.00  0.00    +0.097 C 
ATOM      5  C   UNL     1      -1.775   9.238  -1.172  0.00  0.00    +0.077 C 
ATOM      6  C   UNL     1      -1.932   7.944  -0.788  0.00  0.00    +0.107 C 
ATOM      7  C   UNL     1      -2.055   8.749  -4.892  0.00  0.00    +0.162 C 
ATOM      8  O   UNL     1      -1.935   9.895  -5.281  0.00  0.00    -0.292 OA
ATOM      9  C   UNL     1      -2.391   7.666  -5.880  0.00  0.00    +0.080 C 
ATOM     10  C   UNL     1      -1.821   6.337  -5.374  0.00  0.00    +0.014 C 
ATOM     11  C   UNL     1      -2.386   6.067  -3.978  0.00  0.00    +0.052 C 
ENDROOT
BRANCH   1  16
ATOM     12  C   UNL     1      -2.505   4.656  -0.931  0.00  0.00    +0.091 A 
ATOM     13  C   UNL     1      -1.974   3.362  -0.540  0.00  0.00    -0.021 A 
ATOM     14  C   UNL     1      -0.628   3.253  -0.590  0.00  0.00    -0.004 A 
ATOM     15  S   UNL     1      -0.067   4.837  -1.148  0.00  0.00    -0.077 S 
ATOM     16  C   UNL     1      -1.596   5.634  -1.312  0.00  0.00    +0.092 A 
ATOM     17  C   UNL     1       0.194   2.050  -0.246  0.00  0.00    +0.043 C 
ATOM     18  C   UNL     1      -0.691   1.066   0.533  0.00  0.00    +0.005 C 
ATOM     19  C   UNL     1      -2.022   0.902  -0.206  0.00  0.00    +0.005 C 
ATOM     20  C   UNL     1      -2.840   2.189  -0.098  0.00  0.00    +0.037 C 
BRANCH  12  21
ATOM     21  C   UNL     1      -3.946   4.920  -0.924  0.00  0.00    +0.342 C 
ATOM     22  O   UNL     1      -4.621   4.635  -1.895  0.00  0.00    -0.245 OA
BRANCH  21  23
ATOM     23  O   UNL     1      -4.525   5.479   0.159  0.00  0.00    -0.461 OA
BRANCH  23  25
ATOM     24  C   UNL     1      -6.429   6.346   1.405  0.00  0.00    +0.048 C 
ATOM     25  C   UNL     1      -5.956   5.711   0.095  0.00  0.00    +0.229 C 
ENDBRANCH  23  25
ENDBRANCH  21  23
ENDBRANCH  12  21
ENDBRANCH   1  16
BRANCH   4  26
ATOM     26  C   UNL     1      -0.052   9.922  -2.773  0.00  0.00    -0.033 A 
ATOM     27  C   UNL     1       0.904   8.957  -2.516  0.00  0.00    +0.005 A 
ATOM     28  C   UNL     1       2.245   9.254  -2.670  0.00  0.00    +0.003 A 
ATOM     29  C   UNL     1       2.631  10.516  -3.082  0.00  0.00    +0.033 A 
ATOM     30  C   UNL     1       1.675  11.481  -3.339  0.00  0.00    +0.126 A 
ATOM     31  C   UNL     1       0.333  11.182  -3.190  0.00  0.00    +0.037 A 
BRANCH  30  32
ATOM     32  N   UNL     1       2.087  12.833  -3.780  0.00  0.00    +0.056 N 
ATOM     33  O   UNL     1       3.269  13.095  -3.916  0.00  0.00    -0.126 OA
ATOM     34  O   UNL     1       1.245  13.683  -4.006  0.00  0.00    -0.126 OA
ENDBRANCH  30  32
ENDBRANCH   4  26
BRANCH   6  35
ATOM     35  N   UNL     1      -2.167   7.640   0.531  0.00  0.00    -0.345 N 
ATOM     36  H   UNL     1      -2.190   6.713   0.819  0.00  0.00    +0.144 HD
ATOM     37  H   UNL     1      -2.311   8.351   1.175  0.00  0.00    +0.144 HD
ENDBRANCH   6  35
BRANCH   5  38
ATOM     38  C   UNL     1      -1.866  10.278  -0.191  0.00  0.00    +0.099 C 
ATOM     39  N   UNL     1      -1.938  11.102   0.587  0.00  0.00    -0.191 NA
ENDBRANCH   5  38
TORSDOF 8
