REMARK  Name = ZINC11113787
REMARK  10 active torsions:
REMARK  status: ('A' for Active; 'I' for Inactive)
REMARK    1  A    between atoms: C_1  and  C_2
REMARK    2  A    between atoms: C_2  and  O_3
REMARK    3  A    between atoms: O_3  and  C_4
REMARK    4  A    between atoms: C_4  and  C_6
REMARK    5  A    between atoms: C_9  and  N_12
REMARK    6  A    between atoms: C_13  and  C_15
REMARK    7  A    between atoms: C_15  and  N_16
REMARK    8  A    between atoms: C_19  and  C_23
REMARK    9  A    between atoms: C_19  and  C_30
REMARK   10  A    between atoms: C_23  and  C_24
REMARK                            x       y       z     vdW  Elec       q    Type
REMARK                         _______ _______ _______ _____ _____    ______ ____
ROOT
ATOM      1  N   UNL     1       2.386   1.023   0.354  0.00  0.00    -0.215 N 
ATOM      2  C   UNL     1       2.894   0.681   1.555  0.00  0.00    +0.252 C 
ATOM      3  O   UNL     1       2.532   1.077   2.642  0.00  0.00    -0.272 OA
ATOM      4  C   UNL     1       4.010  -0.302   1.264  0.00  0.00    +0.142 C 
ATOM      5  N   UNL     1       4.005  -0.405  -0.206  0.00  0.00    -0.281 N 
ATOM      6  C   UNL     1       3.025   0.403  -0.645  0.00  0.00    +0.310 C 
ATOM      7  O   UNL     1       2.749   0.554  -1.819  0.00  0.00    -0.252 OA
ATOM      8  H   UNL     1       4.595  -0.950  -0.750  0.00  0.00    +0.152 HD
ENDROOT
BRANCH   4   9
ATOM      9  C   UNL     1       3.722  -1.643   1.890  0.00  0.00    -0.015 A 
ATOM     10  C   UNL     1       4.246  -1.952   3.131  0.00  0.00    +0.006 A 
ATOM     11  C   UNL     1       3.978  -3.180   3.707  0.00  0.00    +0.000 A 
ATOM     12  C   UNL     1       3.195  -4.102   3.038  0.00  0.00    +0.000 A 
ATOM     13  C   UNL     1       2.674  -3.793   1.795  0.00  0.00    +0.000 A 
ATOM     14  C   UNL     1       2.938  -2.564   1.221  0.00  0.00    +0.006 A 
ENDBRANCH   4   9
BRANCH   1  15
ATOM     15  C   UNL     1       1.277   1.961   0.166  0.00  0.00    +0.214 C 
BRANCH  15  17
ATOM     16  N   UNL     1      -1.191   1.867   0.018  0.00  0.00    -0.284 N 
ATOM     17  C   UNL     1      -0.027   1.205   0.180  0.00  0.00    +0.235 C 
ATOM     18  O   UNL     1      -0.030   0.002   0.332  0.00  0.00    -0.274 OA
ATOM     19  H   UNL     1      -1.196   2.836  -0.027  0.00  0.00    +0.155 HD
BRANCH  16  23
ATOM     20  C   UNL     1      -4.764  -0.251  -0.292  0.00  0.00    +0.059 A 
ATOM     21  C   UNL     1      -4.744   1.004   0.325  0.00  0.00    +0.017 A 
ATOM     22  C   UNL     1      -3.561   1.700   0.426  0.00  0.00    +0.024 A 
ATOM     23  C   UNL     1      -2.387   1.158  -0.086  0.00  0.00    +0.033 A 
ATOM     24  C   UNL     1      -2.404  -0.088  -0.705  0.00  0.00    +0.024 A 
ATOM     25  C   UNL     1      -3.582  -0.793  -0.805  0.00  0.00    +0.017 A 
BRANCH  20  26
ATOM     26  C   UNL     1      -6.029  -1.001  -0.401  0.00  0.00    +0.339 C 
ATOM     27  O   UNL     1      -7.056  -0.528   0.045  0.00  0.00    -0.245 OA
BRANCH  26  28
ATOM     28  O   UNL     1      -6.047  -2.209  -0.997  0.00  0.00    -0.461 OA
BRANCH  28  30
ATOM     29  C   UNL     1      -7.150  -4.237  -1.772  0.00  0.00    +0.048 C 
ATOM     30  C   UNL     1      -7.327  -2.890  -1.069  0.00  0.00    +0.229 C 
ENDBRANCH  28  30
ENDBRANCH  26  28
ENDBRANCH  20  26
ENDBRANCH  16  23
ENDBRANCH  15  17
ENDBRANCH   1  15
BRANCH   4  31
ATOM     31  C   UNL     1       5.349   0.246   1.761  0.00  0.00    +0.075 C 
BRANCH  31  32
ATOM     32  C   UNL     1       5.588   1.608   1.161  0.00  0.00    -0.045 A 
ATOM     33  C   UNL     1       6.256   1.725  -0.043  0.00  0.00    +0.004 A 
ATOM     34  C   UNL     1       6.471   2.974  -0.595  0.00  0.00    +0.000 A 
ATOM     35  C   UNL     1       6.027   4.106   0.062  0.00  0.00    +0.000 A 
ATOM     36  C   UNL     1       5.363   3.989   1.269  0.00  0.00    +0.000 A 
ATOM     37  C   UNL     1       5.143   2.740   1.819  0.00  0.00    +0.004 A 
ENDBRANCH  31  32
ENDBRANCH   4  31
TORSDOF 9
