REMARK  Name = ZINC00078796
REMARK  8 active torsions:
REMARK  status: ('A' for Active; 'I' for Inactive)
REMARK    1  A    between atoms: C_1  and  C_2
REMARK    2  A    between atoms: C_2  and  C_3
REMARK    3  A    between atoms: C_2  and  C_4
REMARK    4  A    between atoms: C_2  and  O_19
REMARK    5  A    between atoms: C_4  and  O_18
REMARK    6  A    between atoms: C_6  and  C_10
REMARK    7  A    between atoms: C_13  and  O_16
REMARK    8  A    between atoms: O_16  and  C_17
REMARK                            x       y       z     vdW  Elec       q    Type
REMARK                         _______ _______ _______ _____ _____    ______ ____
ROOT
ATOM      1  C   UNL     1      -1.429  -0.525  -0.147  0.00  0.00    +0.170 C 
ATOM      2  C   UNL     1      -1.483  -2.052   0.091  0.00  0.00    +0.094 C 
ATOM      3  C   UNL     1      -2.784  -2.271   0.889  0.00  0.00    +0.176 C 
ATOM      4  O   UNL     1      -3.395  -0.975   1.031  0.00  0.00    -0.289 OA
ATOM      5  N   UNL     1      -2.299   0.011   0.935  0.00  0.00    -0.167 NA
ATOM      6  H   UNL     1      -2.655   0.924   0.694  0.00  0.00    +0.157 HD
ENDROOT
BRANCH   3   7
ATOM      7  C   UNL     1      -3.703  -3.199   0.136  0.00  0.00    -0.017 A 
ATOM      8  C   UNL     1      -4.468  -2.714  -0.908  0.00  0.00    +0.010 A 
ATOM      9  C   UNL     1      -5.312  -3.562  -1.599  0.00  0.00    +0.046 A 
ATOM     10  C   UNL     1      -5.390  -4.901  -1.245  0.00  0.00    +0.120 A 
ATOM     11  C   UNL     1      -4.620  -5.385  -0.197  0.00  0.00    +0.046 A 
ATOM     12  C   UNL     1      -3.774  -4.534   0.488  0.00  0.00    +0.010 A 
BRANCH  10  13
ATOM     13  O   UNL     1      -6.219  -5.737  -1.923  0.00  0.00    -0.495 OA
ATOM     14  C   UNL     1      -6.248  -7.103  -1.503  0.00  0.00    +0.277 C 
ENDBRANCH  10  13
ENDBRANCH   3   7
BRANCH   1  16
ATOM     15  C   UNL     1       0.887  -0.628  -1.079  0.00  0.00    +0.045 C 
ATOM     16  C   UNL     1       0.002  -0.004   0.002  0.00  0.00    +0.104 C 
ATOM     17  C   UNL     1       0.009   1.518  -0.149  0.00  0.00    +0.045 C 
BRANCH  16  18
ATOM     18  O   UNL     1       0.505  -0.357   1.292  0.00  0.00    -0.385 OA
ATOM     19  H   UNL     1       1.410  -0.058   1.456  0.00  0.00    +0.210 HD
ENDBRANCH  16  18
ENDBRANCH   1  16
BRANCH   1  20
ATOM     20  O   UNL     1      -1.956  -0.190  -1.432  0.00  0.00    -0.370 OA
ATOM     21  H   UNL     1      -2.861  -0.497  -1.579  0.00  0.00    +0.212 HD
ENDBRANCH   1  20
TORSDOF 5
