REMARK  Name = ZINC21739332
REMARK  9 active torsions:
REMARK  status: ('A' for Active; 'I' for Inactive)
REMARK    1  A    between atoms: C_1  and  C_2
REMARK    2  A    between atoms: C_5  and  C_38
REMARK    3  A    between atoms: C_10  and  C_12
REMARK    4  A    between atoms: C_12  and  C_14
REMARK    5  A    between atoms: C_12  and  S_15
REMARK    6  A    between atoms: S_15  and  C_16
REMARK    7  A    between atoms: C_19  and  C_28
REMARK    8  A    between atoms: N_20  and  C_21
REMARK    9  A    between atoms: C_21  and  C_22
REMARK                            x       y       z     vdW  Elec       q    Type
REMARK                         _______ _______ _______ _____ _____    ______ ____
ROOT
ATOM      1  C   UNL     1       1.237  -0.437  -0.089  0.00  0.00    +0.193 A 
ATOM      2  N   UNL     1       0.009  -0.008   0.083  0.00  0.00    -0.122 NA
ATOM      3  N   UNL     1      -0.008   1.276   0.137  0.00  0.00    -0.128 NA
ATOM      4  C   UNL     1       1.211   1.747   0.003  0.00  0.00    +0.167 A 
ATOM      5  N   UNL     1       2.047   0.665  -0.146  0.00  0.00    -0.300 N 
ENDROOT
BRANCH   4   6
ATOM      6  C   UNL     1       1.608   3.169   0.010  0.00  0.00    +0.044 A 
ATOM      7  C   UNL     1       2.637   3.720   0.705  0.00  0.00    +0.095 A 
ATOM      8  N   UNL     1       2.692   5.062   0.459  0.00  0.00    -0.360 N 
ATOM      9  H   UNL     1       3.467   5.677   0.939  0.00  0.00    +0.165 HD
ATOM     10  C   UNL     1       1.690   5.427  -0.414  0.00  0.00    +0.047 A 
ATOM     11  C   UNL     1       0.971   4.265  -0.739  0.00  0.00    +0.010 A 
ATOM     12  C   UNL     1      -0.116   4.337  -1.609  0.00  0.00    +0.011 A 
ATOM     13  C   UNL     1      -0.473   5.550  -2.155  0.00  0.00    +0.001 A 
ATOM     14  C   UNL     1       0.240   6.698  -1.839  0.00  0.00    +0.002 A 
ATOM     15  C   UNL     1       1.313   6.643  -0.976  0.00  0.00    +0.026 A 
ENDBRANCH   4   6
BRANCH   1  16
ATOM     16  S   UNL     1       1.748  -2.118  -0.221  0.00  0.00    -0.074 S 
BRANCH  16  17
ATOM     17  C   UNL     1       0.148  -2.947  -0.054  0.00  0.00    +0.137 C 
ATOM     18  C   UNL     1      -0.415  -2.692   1.345  0.00  0.00    +0.029 C 
BRANCH  17  26
ATOM     19  C   UNL     1      -3.885  -4.426  -2.603  0.00  0.00    +0.009 C 
ATOM     20  C   UNL     1      -2.465  -4.940  -2.361  0.00  0.00    +0.004 C 
ATOM     21  C   UNL     1      -2.440  -6.463  -2.516  0.00  0.00    +0.009 C 
ATOM     22  C   UNL     1      -1.013  -6.975  -2.307  0.00  0.00    +0.004 C 
ATOM     23  C   UNL     1      -0.552  -6.626  -0.888  0.00  0.00    +0.111 C 
ATOM     24  N   UNL     1      -0.711  -5.180  -0.682  0.00  0.00    -0.300 N 
ATOM     25  C   UNL     1      -2.022  -4.569  -0.938  0.00  0.00    +0.111 C 
ATOM     26  C   UNL     1       0.326  -4.429  -0.261  0.00  0.00    +0.229 C 
ATOM     27  O   UNL     1       1.403  -4.946  -0.049  0.00  0.00    -0.274 OA
ATOM     28  C   UNL     1      -0.079  -6.316  -3.324  0.00  0.00    +0.009 C 
ENDBRANCH  17  26
ENDBRANCH  16  17
ENDBRANCH   1  16
BRANCH   5  29
ATOM     29  C   UNL     1       3.501   0.687  -0.327  0.00  0.00    +0.157 C 
BRANCH  29  30
ATOM     30  C   UNL     1       3.829   0.622  -1.820  0.00  0.00    +0.138 C 
ATOM     31  C   UNL     1       5.356   0.518  -2.030  0.00  0.00    +0.035 C 
ATOM     32  C   UNL     1       5.621   1.373  -3.290  0.00  0.00    +0.031 C 
ATOM     33  C   UNL     1       4.223   1.893  -3.691  0.00  0.00    +0.160 C 
ATOM     34  O   UNL     1       3.450   1.854  -2.472  0.00  0.00    -0.375 OA
ENDBRANCH  29  30
ENDBRANCH   5  29
TORSDOF 6
