REMARK  Name = ZINC16763554
REMARK  7 active torsions:
REMARK  status: ('A' for Active; 'I' for Inactive)
REMARK    1  A    between atoms: C_1  and  C_2
REMARK    2  A    between atoms: C_2  and  C_4
REMARK    3  A    between atoms: C_2  and  S_13
REMARK    4  A    between atoms: N_9  and  C_10
REMARK    5  A    between atoms: C_10  and  C_11
REMARK    6  A    between atoms: C_10  and  C_12
REMARK    7  A    between atoms: S_13  and  C_14
REMARK                            x       y       z     vdW  Elec       q    Type
REMARK                         _______ _______ _______ _____ _____    ______ ____
ROOT
ATOM      1  C   UNL     1      -0.019   1.526   0.010  0.00  0.00    +0.029 C 
ATOM      2  C   UNL     1       0.002  -0.004   0.002  0.00  0.00    +0.137 C 
ENDROOT
BRANCH   2   3
ATOM      3  C   UNL     1       0.731  -0.503   1.223  0.00  0.00    +0.233 C 
ATOM      4  O   UNL     1       0.105  -0.891   2.186  0.00  0.00    -0.274 OA
ATOM      5  N   UNL     1       2.079  -0.519   1.244  0.00  0.00    -0.239 N 
ATOM      6  C   UNL     1       2.730  -0.965   2.336  0.00  0.00    +0.306 C 
ATOM      7  O   UNL     1       2.103  -1.354   3.301  0.00  0.00    -0.252 OA
ATOM      8  N   UNL     1       4.078  -0.981   2.357  0.00  0.00    -0.297 N 
ATOM      9  H   UNL     1       2.579  -0.208   0.473  0.00  0.00    +0.159 HD
ATOM     10  H   UNL     1       4.579  -0.670   1.586  0.00  0.00    +0.151 HD
BRANCH   8  11
ATOM     11  C   UNL     1       4.786  -1.466   3.544  0.00  0.00    +0.068 C 
ATOM     12  C   UNL     1       6.174  -1.967   3.140  0.00  0.00    +0.027 C 
ATOM     13  C   UNL     1       4.930  -0.326   4.554  0.00  0.00    +0.027 C 
ENDBRANCH   8  11
ENDBRANCH   2   3
BRANCH   2  14
ATOM     14  S   UNL     1      -1.700  -0.632   0.015  0.00  0.00    -0.073 S 
BRANCH  14  15
ATOM     15  C   UNL     1      -2.365  -0.093  -1.525  0.00  0.00    +0.198 A 
ATOM     16  N   UNL     1      -1.723   0.595  -2.433  0.00  0.00    -0.121 NA
ATOM     17  N   UNL     1      -2.598   0.821  -3.505  0.00  0.00    -0.121 NA
ATOM     18  C   UNL     1      -3.733   0.263  -3.208  0.00  0.00    +0.202 A 
ATOM     19  N   UNL     1      -3.653  -0.334  -1.978  0.00  0.00    -0.264 N 
ATOM     20  C   UNL     1      -4.790  -0.996  -1.490  0.00  0.00    +0.065 A 
ATOM     21  C   UNL     1      -4.906  -1.662  -0.259  0.00  0.00    +0.027 A 
ATOM     22  C   UNL     1      -6.083  -2.274   0.102  0.00  0.00    +0.002 A 
ATOM     23  C   UNL     1      -7.188  -2.255  -0.733  0.00  0.00    +0.001 A 
ATOM     24  C   UNL     1      -7.101  -1.606  -1.952  0.00  0.00    +0.017 A 
ATOM     25  C   UNL     1      -5.922  -0.994  -2.311  0.00  0.00    +0.040 A 
ATOM     26  S   UNL     1      -5.397  -0.069  -3.734  0.00  0.00    -0.048 S 
ENDBRANCH  14  15
ENDBRANCH   2  14
TORSDOF 4
