REMARK  Name = ZINC09562142
REMARK  5 active torsions:
REMARK  status: ('A' for Active; 'I' for Inactive)
REMARK    1  A    between atoms: C_1  and  C_2
REMARK    2  A    between atoms: C_7  and  N_8
REMARK    3  A    between atoms: C_9  and  C_11
REMARK    4  A    between atoms: C_11  and  N_12
REMARK    5  A    between atoms: C_20  and  C_22
REMARK                            x       y       z     vdW  Elec       q    Type
REMARK                         _______ _______ _______ _____ _____    ______ ____
ROOT
ATOM      1  N   UNL     1       5.955   2.450  -0.353  0.00  0.00    -0.215 N 
ATOM      2  C   UNL     1       6.630   2.945   0.704  0.00  0.00    +0.247 C 
ATOM      3  O   UNL     1       6.452   2.686   1.875  0.00  0.00    -0.273 OA
ATOM      4  C   UNL     1       7.656   3.890   0.122  0.00  0.00    +0.115 C 
ATOM      5  C   UNL     1       7.420   5.309   0.630  0.00  0.00    +0.035 C 
ATOM      6  C   UNL     1       7.627   5.349   2.146  0.00  0.00    +0.003 C 
ATOM      7  C   UNL     1       9.051   4.900   2.478  0.00  0.00    +0.000 C 
ATOM      8  C   UNL     1       9.266   3.469   1.981  0.00  0.00    +0.006 C 
ATOM      9  C   UNL     1       9.066   3.421   0.464  0.00  0.00    +0.018 C 
ATOM     10  C   UNL     1       9.260   1.987  -0.031  0.00  0.00    +0.010 C 
ATOM     11  N   UNL     1       7.426   3.817  -1.327  0.00  0.00    -0.285 N 
ATOM     12  C   UNL     1       6.415   2.946  -1.508  0.00  0.00    +0.310 C 
ATOM     13  O   UNL     1       5.969   2.645  -2.598  0.00  0.00    -0.252 OA
ATOM     14  H   UNL     1       7.908   4.299  -2.017  0.00  0.00    +0.151 HD
ENDROOT
BRANCH   1  15
ATOM     15  C   UNL     1       4.858   1.484  -0.251  0.00  0.00    +0.214 C 
BRANCH  15  17
ATOM     16  N   UNL     1       2.397   1.533  -0.012  0.00  0.00    -0.284 N 
ATOM     17  C   UNL     1       3.550   2.221  -0.121  0.00  0.00    +0.235 C 
ATOM     18  O   UNL     1       3.536   3.434  -0.115  0.00  0.00    -0.274 OA
ATOM     19  H   UNL     1       2.413   0.565   0.049  0.00  0.00    +0.155 HD
BRANCH  16  26
ATOM     20  C   UNL     1       0.144   0.301  -1.239  0.00  0.00    +0.046 C 
ATOM     21  C   UNL     1       0.050   1.649  -0.573  0.00  0.00    -0.028 A 
ATOM     22  C   UNL     1      -1.153   2.327  -0.551  0.00  0.00    +0.019 A 
ATOM     23  C   UNL     1      -1.242   3.562   0.065  0.00  0.00    +0.014 A 
ATOM     24  C   UNL     1      -0.123   4.128   0.650  0.00  0.00    +0.016 A 
ATOM     25  C   UNL     1       1.084   3.458   0.626  0.00  0.00    +0.024 A 
ATOM     26  C   UNL     1       1.175   2.215   0.013  0.00  0.00    +0.036 A 
ATOM     27  I   UNL     1      -3.071   4.583   0.104  0.00  0.00    -0.044 I 
ENDBRANCH  16  26
ENDBRANCH  15  17
ENDBRANCH   1  15
TORSDOF 3
