REMARK  Name = ZINC39716103
REMARK  8 active torsions:
REMARK  status: ('A' for Active; 'I' for Inactive)
REMARK    1  A    between atoms: C_7  and  C_10
REMARK    2  A    between atoms: C_10  and  C_11
REMARK    3  A    between atoms: C_11  and  N_12
REMARK    4  A    between atoms: C_13  and  C_15
REMARK    5  A    between atoms: C_15  and  S_16
REMARK    6  A    between atoms: S_16  and  C_17
REMARK    7  A    between atoms: N_28  and  C_29
REMARK    8  A    between atoms: C_29  and  C_30
REMARK                            x       y       z     vdW  Elec       q    Type
REMARK                         _______ _______ _______ _____ _____    ______ ____
ROOT
ATOM      1  C   UNL     1      -5.660   7.126  -2.507  0.00  0.00    +0.168 C 
ENDROOT
BRANCH   1   3
ATOM      2  N   UNL     1      -4.962   5.047  -1.362  0.00  0.00    -0.314 N 
ATOM      3  C   UNL     1      -5.120   5.719  -2.519  0.00  0.00    +0.223 C 
ATOM      4  O   UNL     1      -4.826   5.191  -3.571  0.00  0.00    -0.275 OA
ATOM      5  H   UNL     1      -5.197   5.469  -0.520  0.00  0.00    +0.149 HD
BRANCH   2   6
ATOM      6  C   UNL     1      -4.437   3.680  -1.374  0.00  0.00    +0.109 C 
BRANCH   6   7
ATOM      7  C   UNL     1      -4.358   3.151   0.060  0.00  0.00    +0.056 C 
BRANCH   7  14
ATOM      8  C   UNL     1      -0.017   1.384   0.010  0.00  0.00    +0.001 A 
ATOM      9  C   UNL     1       0.002  -0.004   0.002  0.00  0.00    +0.002 A 
ATOM     10  C   UNL     1      -1.173  -0.723   0.009  0.00  0.00    +0.026 A 
ATOM     11  C   UNL     1      -2.392  -0.053   0.024  0.00  0.00    +0.047 A 
ATOM     12  N   UNL     1      -3.704  -0.472   0.034  0.00  0.00    -0.360 N 
ATOM     13  C   UNL     1      -4.539   0.612   0.047  0.00  0.00    +0.087 A 
ATOM     14  C   UNL     1      -3.818   1.744   0.047  0.00  0.00    -0.021 A 
ATOM     15  C   UNL     1      -2.406   1.353   0.032  0.00  0.00    +0.003 A 
ATOM     16  C   UNL     1      -1.203   2.062   0.030  0.00  0.00    +0.010 A 
ATOM     17  H   UNL     1      -3.993  -1.398   0.030  0.00  0.00    +0.165 HD
ENDBRANCH   7  14
ENDBRANCH   6   7
ENDBRANCH   2   6
ENDBRANCH   1   3
BRANCH   1  18
ATOM     18  S   UNL     1      -5.754   7.753  -4.207  0.00  0.00    -0.110 S 
BRANCH  18  19
ATOM     19  C   UNL     1      -6.414   9.432  -4.019  0.00  0.00    +0.223 C 
ATOM     20  N   UNL     1      -7.736   9.366  -3.387  0.00  0.00    -0.317 N 
ATOM     21  C   UNL     1      -7.813   9.143  -2.017  0.00  0.00    +0.041 A 
ATOM     22  C   UNL     1      -8.899   8.505  -1.442  0.00  0.00    +0.024 A 
ATOM     23  C   UNL     1      -8.935   8.315  -0.074  0.00  0.00    +0.002 A 
ATOM     24  C   UNL     1      -7.894   8.757   0.727  0.00  0.00    +0.001 A 
ATOM     25  C   UNL     1      -6.803   9.391   0.170  0.00  0.00    +0.015 A 
ATOM     26  C   UNL     1      -6.751   9.585  -1.209  0.00  0.00    +0.058 A 
ATOM     27  C   UNL     1      -5.596  10.234  -1.854  0.00  0.00    +0.251 C 
ATOM     28  O   UNL     1      -4.740  10.774  -1.180  0.00  0.00    -0.270 OA
ATOM     29  N   UNL     1      -5.499  10.223  -3.195  0.00  0.00    -0.259 N 
ATOM     30  H   UNL     1      -8.542   9.477  -3.915  0.00  0.00    +0.149 HD
BRANCH  29  31
ATOM     31  C   UNL     1      -4.453  11.019  -3.842  0.00  0.00    +0.235 C 
BRANCH  31  32
ATOM     32  C   UNL     1      -4.983  12.398  -4.140  0.00  0.00    +0.373 C 
ATOM     33  O   UNL     1      -6.128  12.689  -3.839  0.00  0.00    -0.245 OA
ATOM     34  O   UNL     1      -4.266  13.223  -4.681  0.00  0.00    -0.245 OA
ENDBRANCH  31  32
ENDBRANCH  29  31
ENDBRANCH  18  19
ENDBRANCH   1  18
TORSDOF 8
