REMARK  Name = ZINC12385029
REMARK  5 active torsions:
REMARK  status: ('A' for Active; 'I' for Inactive)
REMARK    1  A    between atoms: C_1  and  C_2
REMARK    2  A    between atoms: C_7  and  C_17
REMARK    3  A    between atoms: C_29  and  C_31
REMARK    4  A    between atoms: C_31  and  O_33
REMARK    5  A    between atoms: O_33  and  C_34
REMARK                            x       y       z     vdW  Elec       q    Type
REMARK                         _______ _______ _______ _____ _____    ______ ____
ROOT
ATOM      1  C   UNL     1      -2.324   4.266   0.749  0.00  0.00    +0.009 C 
ATOM      2  C   UNL     1      -1.044   3.428   0.773  0.00  0.00    +0.013 C 
ATOM      3  C   UNL     1       0.056   4.140  -0.013  0.00  0.00    +0.055 C 
ATOM      4  C   UNL     1       1.324   3.303  -0.006  0.00  0.00    +0.017 C 
ATOM      5  C   UNL     1       1.254   1.961   0.022  0.00  0.00    +0.037 C 
ATOM      6  C   UNL     1       2.429   1.013   0.033  0.00  0.00    +0.137 C 
ATOM      7  N   UNL     1       3.705   1.633  -0.254  0.00  0.00    -0.331 N 
ATOM      8  C   UNL     1       4.251   2.583   0.607  0.00  0.00    +0.049 A 
ATOM      9  C   UNL     1       5.398   2.321   1.340  0.00  0.00    +0.025 A 
ATOM     10  C   UNL     1       5.840   3.249   2.266  0.00  0.00    +0.002 A 
ATOM     11  C   UNL     1       5.147   4.430   2.459  0.00  0.00    +0.002 A 
ATOM     12  C   UNL     1       4.013   4.705   1.713  0.00  0.00    +0.025 A 
ATOM     13  C   UNL     1       3.580   3.785   0.774  0.00  0.00    +0.052 A 
ATOM     14  N   UNL     1       2.478   4.017  -0.040  0.00  0.00    -0.316 N 
ATOM     15  C   UNL     1      -0.004   1.314   0.057  0.00  0.00    +0.177 C 
ATOM     16  O   UNL     1      -0.039   0.099   0.053  0.00  0.00    -0.291 OA
ATOM     17  C   UNL     1      -1.296   2.074   0.092  0.00  0.00    +0.171 C 
ATOM     18  H   UNL     1       4.187   1.383  -1.058  0.00  0.00    +0.147 HD
ATOM     19  H   UNL     1       2.537   4.743  -0.680  0.00  0.00    +0.152 HD
ENDROOT
BRANCH   6  20
ATOM     20  C   UNL     1       2.508   0.366   1.392  0.00  0.00    -0.005 A 
ATOM     21  C   UNL     1       1.837   0.927   2.463  0.00  0.00    +0.056 A 
ATOM     22  C   UNL     1       1.903   0.331   3.712  0.00  0.00    +0.167 A 
ATOM     23  C   UNL     1       2.657  -0.828   3.888  0.00  0.00    +0.167 A 
ATOM     24  C   UNL     1       3.331  -1.382   2.812  0.00  0.00    +0.065 A 
ATOM     25  C   UNL     1       3.255  -0.785   1.567  0.00  0.00    +0.027 A 
ATOM     26 BR   UNL     1       4.176  -1.543   0.099  0.00  0.00    -0.050 Br
ATOM     27  O   UNL     1       2.568  -1.211   5.195  0.00  0.00    -0.453 OA
ATOM     28  C   UNL     1       2.090  -0.052   5.904  0.00  0.00    +0.466 C 
ATOM     29  O   UNL     1       1.343   0.673   4.909  0.00  0.00    -0.453 OA
ENDBRANCH   6  20
BRANCH  17  30
ATOM     30  C   UNL     1      -2.320   1.297   0.878  0.00  0.00    +0.318 C 
ATOM     31  O   UNL     1      -2.816   1.780   1.867  0.00  0.00    -0.250 OA
BRANCH  30  32
ATOM     32  O   UNL     1      -2.680   0.067   0.478  0.00  0.00    -0.467 OA
ATOM     33  C   UNL     1      -3.672  -0.623   1.284  0.00  0.00    +0.280 C 
ENDBRANCH  30  32
ENDBRANCH  17  30
TORSDOF 3
