REMARK  Name = ZINC66859515
REMARK  9 active torsions:
REMARK  status: ('A' for Active; 'I' for Inactive)
REMARK    1  A    between atoms: C_1  and  C_2
REMARK    2  A    between atoms: C_2  and  C_3
REMARK    3  A    between atoms: C_2  and  C_4
REMARK    4  A    between atoms: N_6  and  C_11
REMARK    5  A    between atoms: N_9  and  C_10
REMARK    6  A    between atoms: C_11  and  N_12
REMARK    7  A    between atoms: C_15  and  N_18
REMARK    8  A    between atoms: C_19  and  C_21
REMARK    9  A    between atoms: C_21  and  C_22
REMARK                            x       y       z     vdW  Elec       q    Type
REMARK                         _______ _______ _______ _____ _____    ______ ____
ROOT
ATOM      1  N   UNL     1      -5.503   0.574  -0.291  0.00  0.00    +0.393 N 
ATOM      2  C   UNL     1      -5.593  -0.057  -1.613  0.00  0.00    -0.074 C 
ATOM      3  C   UNL     1      -6.096   0.963  -2.637  0.00  0.00    +0.004 C 
ATOM      4  C   UNL     1      -7.480   1.462  -2.214  0.00  0.00    +0.069 C 
ATOM      5  C   UNL     1      -7.390   2.052  -0.803  0.00  0.00    +0.004 C 
ATOM      6  C   UNL     1      -6.839   0.992   0.153  0.00  0.00    -0.074 C 
ATOM      7  H   UNL     1      -4.901   1.382  -0.346  0.00  0.00    -0.079 HD
ENDROOT
BRANCH   4   8
ATOM      8  N   UNL     1      -7.935   2.495  -3.148  0.00  0.00    -0.313 N 
ATOM      9  C   UNL     1      -9.253   2.724  -3.309  0.00  0.00    +0.213 C 
ATOM     10  O   UNL     1     -10.063   2.077  -2.680  0.00  0.00    -0.276 OA
ATOM     11  H   UNL     1      -7.287   3.013  -3.651  0.00  0.00    +0.149 HD
BRANCH   9  12
ATOM     12  C   UNL     1      -9.721   3.787  -4.270  0.00  0.00    +0.099 C 
BRANCH  12  13
ATOM     13  C   UNL     1     -11.250   3.843  -4.263  0.00  0.00    -0.002 C 
ATOM     14  C   UNL     1     -11.812   2.528  -4.808  0.00  0.00    +0.004 C 
ATOM     15  C   UNL     1     -13.340   2.585  -4.801  0.00  0.00    +0.000 C 
ATOM     16  C   UNL     1     -13.812   3.744  -5.681  0.00  0.00    +0.000 C 
ATOM     17  C   UNL     1     -13.251   5.059  -5.136  0.00  0.00    +0.000 C 
ATOM     18  C   UNL     1     -11.722   5.003  -5.143  0.00  0.00    +0.004 C 
ENDBRANCH  12  13
ENDBRANCH   9  12
ENDBRANCH   4   8
BRANCH   1  19
ATOM     19  C   UNL     1      -4.947  -0.385   0.672  0.00  0.00    +0.072 C 
BRANCH  19  22
ATOM     20  C   UNL     1      -1.412  -0.526   0.013  0.00  0.00    +0.134 A 
ATOM     21  N   UNL     1      -2.445   0.108   0.466  0.00  0.00    -0.157 NA
ATOM     22  N   UNL     1      -3.569  -0.711   0.296  0.00  0.00    -0.258 N 
ATOM     23  C   UNL     1      -3.147  -1.857  -0.279  0.00  0.00    +0.176 A 
ATOM     24  S   UNL     1      -4.123  -3.198  -0.703  0.00  0.00    -0.011 S 
ATOM     25  N   UNL     1      -1.816  -1.749  -0.462  0.00  0.00    -0.310 N 
ATOM     26  C   UNL     1      -0.948  -2.765  -1.062  0.00  0.00    +0.152 C 
BRANCH  20  28
ATOM     27  C   UNL     1      -0.019   1.526   0.010  0.00  0.00    +0.015 C 
ATOM     28  C   UNL     1       0.002  -0.004   0.002  0.00  0.00    +0.051 C 
ATOM     29  C   UNL     1       0.742  -0.511   1.242  0.00  0.00    +0.015 C 
ENDBRANCH  20  28
ENDBRANCH  19  22
ENDBRANCH   1  19
TORSDOF 6
