REMARK  Name = ZINC16463351
REMARK  5 active torsions:
REMARK  status: ('A' for Active; 'I' for Inactive)
REMARK    1  A    between atoms: C_1  and  C_2
REMARK    2  A    between atoms: C_2  and  C_21
REMARK    3  A    between atoms: N_5  and  C_9
REMARK    4  A    between atoms: C_9  and  C_10
REMARK    5  A    between atoms: N_15  and  C_16
REMARK                            x       y       z     vdW  Elec       q    Type
REMARK                         _______ _______ _______ _____ _____    ______ ____
ROOT
ATOM      1  C   UNL     1      -0.019   1.526   0.010  0.00  0.00    +0.047 C 
ATOM      2  C   UNL     1       0.002  -0.004   0.002  0.00  0.00    +0.135 C 
ATOM      3  C   UNL     1       0.815  -0.520  -1.169  0.00  0.00    +0.251 C 
ATOM      4  O   UNL     1       0.595  -0.342  -2.348  0.00  0.00    -0.272 OA
ATOM      5  N   UNL     1       1.833  -1.217  -0.627  0.00  0.00    -0.215 N 
ATOM      6  C   UNL     1       1.777  -1.214   0.710  0.00  0.00    +0.310 C 
ATOM      7  O   UNL     1       2.586  -1.776   1.421  0.00  0.00    -0.252 OA
ATOM      8  N   UNL     1       0.724  -0.519   1.178  0.00  0.00    -0.281 N 
ATOM      9  H   UNL     1       0.487  -0.383   2.109  0.00  0.00    +0.152 HD
ENDROOT
BRANCH   2  10
ATOM     10  C   UNL     1      -1.401  -0.551  -0.040  0.00  0.00    -0.013 A 
ATOM     11  C   UNL     1      -2.004  -0.814  -1.256  0.00  0.00    +0.009 A 
ATOM     12  C   UNL     1      -3.291  -1.317  -1.297  0.00  0.00    +0.041 A 
ATOM     13  C   UNL     1      -3.978  -1.557  -0.120  0.00  0.00    +0.158 A 
ATOM     14  C   UNL     1      -3.373  -1.294   1.100  0.00  0.00    +0.159 A 
ATOM     15  C   UNL     1      -2.083  -0.796   1.138  0.00  0.00    +0.047 A 
ATOM     16  F   UNL     1      -4.042  -1.528   2.250  0.00  0.00    -0.202 F 
ATOM     17  F   UNL     1      -5.236  -2.048  -0.159  0.00  0.00    -0.202 F 
ENDBRANCH   2  10
BRANCH   5  18
ATOM     18  C   UNL     1       2.871  -1.896  -1.406  0.00  0.00    +0.214 C 
BRANCH  18  19
ATOM     19  C   UNL     1       4.020  -0.950  -1.644  0.00  0.00    +0.238 C 
ATOM     20  O   UNL     1       3.975   0.180  -1.206  0.00  0.00    -0.274 OA
ATOM     21  N   UNL     1       5.097  -1.360  -2.343  0.00  0.00    -0.239 N 
ATOM     22  C   UNL     1       6.124  -0.513  -2.555  0.00  0.00    +0.306 C 
ATOM     23  O   UNL     1       6.079   0.619  -2.117  0.00  0.00    -0.252 OA
ATOM     24  N   UNL     1       7.201  -0.923  -3.255  0.00  0.00    -0.296 N 
ATOM     25  H   UNL     1       5.133  -2.264  -2.693  0.00  0.00    +0.159 HD
ATOM     26  H   UNL     1       7.237  -1.827  -3.605  0.00  0.00    +0.151 HD
BRANCH  24  27
ATOM     27  C   UNL     1       8.318  -0.003  -3.486  0.00  0.00    +0.074 C 
ATOM     28  C   UNL     1       8.069   0.818  -4.768  0.00  0.00    +0.022 C 
ATOM     29  C   UNL     1       9.472   0.953  -5.410  0.00  0.00    +0.002 C 
ATOM     30  C   UNL     1      10.110  -0.430  -5.131  0.00  0.00    +0.002 C 
ATOM     31  C   UNL     1       9.615  -0.797  -3.717  0.00  0.00    +0.022 C 
ENDBRANCH  24  27
ENDBRANCH  18  19
ENDBRANCH   5  18
TORSDOF 4
