REMARK  Name = ZINC22247671
REMARK  7 active torsions:
REMARK  status: ('A' for Active; 'I' for Inactive)
REMARK    1  A    between atoms: C_1  and  C_2
REMARK    2  A    between atoms: C_3  and  C_36
REMARK    3  A    between atoms: C_11  and  C_13
REMARK    4  A    between atoms: C_13  and  N_14
REMARK    5  A    between atoms: N_17  and  C_20
REMARK    6  A    between atoms: C_20  and  C_21
REMARK    7  A    between atoms: C_26  and  C_35
REMARK                            x       y       z     vdW  Elec       q    Type
REMARK                         _______ _______ _______ _____ _____    ______ ____
ROOT
ATOM      1  N   UNL     1       0.104  -4.815   4.051  0.00  0.00    +0.386 N 
ATOM      2  C   UNL     1       1.356  -5.060   3.322  0.00  0.00    -0.063 C 
ATOM      3  C   UNL     1       1.363  -6.495   2.789  0.00  0.00    +0.066 C 
ATOM      4  N   UNL     1       1.239  -7.433   3.914  0.00  0.00    -0.298 NA
ATOM      5  C   UNL     1       0.002  -7.183   4.668  0.00  0.00    +0.066 C 
ATOM      6  C   UNL     1       0.006  -5.743   5.186  0.00  0.00    -0.063 C 
ATOM      7  H   UNL     1      -0.679  -4.958   3.431  0.00  0.00    -0.081 HD
ENDROOT
BRANCH   1   8
ATOM      8  C   UNL     1       0.090  -3.432   4.547  0.00  0.00    -0.003 C 
BRANCH   8  19
ATOM      9  C   UNL     1      -0.018   1.503   0.010  0.00  0.00    +0.045 C 
ATOM     10  C   UNL     1       0.002  -0.004   0.002  0.00  0.00    -0.026 A 
ATOM     11  C   UNL     1       0.006  -0.677  -1.160  0.00  0.00    -0.008 A 
ATOM     12  S   UNL     1       0.032  -2.385  -0.648  0.00  0.00    -0.073 S 
ATOM     13  C   UNL     1       0.037  -2.144   1.110  0.00  0.00    +0.116 A 
ATOM     14  C   UNL     1       0.024  -0.745   1.250  0.00  0.00    +0.075 A 
ATOM     15  C   UNL     1       0.029  -0.257   2.597  0.00  0.00    +0.260 A 
ATOM     16  O   UNL     1       0.014   0.942   2.821  0.00  0.00    -0.267 OA
ATOM     17  N   UNL     1       0.051  -1.142   3.611  0.00  0.00    -0.312 N 
ATOM     18  H   UNL     1       0.054  -0.817   4.525  0.00  0.00    +0.170 HD
ATOM     19  C   UNL     1       0.067  -2.480   3.380  0.00  0.00    +0.094 A 
ATOM     20  N   UNL     1       0.053  -2.956   2.163  0.00  0.00    -0.229 NA
ATOM     21  C   UNL     1      -0.009  -0.122  -2.561  0.00  0.00    +0.052 C 
ENDBRANCH   8  19
ENDBRANCH   1   8
BRANCH   4  22
ATOM     22  C   UNL     1       1.299  -8.824   3.447  0.00  0.00    +0.180 C 
BRANCH  22  23
ATOM     23  C   UNL     1       1.416  -9.747   4.633  0.00  0.00    +0.234 C 
ATOM     24  O   UNL     1       1.446  -9.290   5.757  0.00  0.00    -0.274 OA
ATOM     25  N   UNL     1       1.486 -11.080   4.446  0.00  0.00    -0.269 N 
ATOM     26  C   UNL     1       1.595 -11.997   5.591  0.00  0.00    +0.115 C 
ATOM     27  C   UNL     1       0.234 -12.419   6.082  0.00  0.00    +0.033 C 
ATOM     28  C   UNL     1      -0.563 -13.291   5.126  0.00  0.00    +0.050 C 
ATOM     29  S   UNL     1      -1.113 -12.312   3.697  0.00  0.00    -0.120 S 
ATOM     30  C   UNL     1       0.334 -12.277   2.666  0.00  0.00    +0.030 A 
ATOM     31  C   UNL     1       1.453 -11.625   3.158  0.00  0.00    +0.050 A 
ATOM     32  C   UNL     1       2.575 -11.529   2.342  0.00  0.00    +0.024 A 
ATOM     33  C   UNL     1       2.565 -12.111   1.088  0.00  0.00    +0.002 A 
ATOM     34  C   UNL     1       1.451 -12.791   0.631  0.00  0.00    +0.001 A 
ATOM     35  C   UNL     1       0.331 -12.872   1.421  0.00  0.00    +0.016 A 
ATOM     36  C   UNL     1      -1.786 -13.854   5.852  0.00  0.00    +0.019 C 
ENDBRANCH  22  23
ENDBRANCH   4  22
TORSDOF 4
