REMARK  Name = ZINC02775525
REMARK  10 active torsions:
REMARK  status: ('A' for Active; 'I' for Inactive)
REMARK    1  A    between atoms: C_1  and  C_2
REMARK    2  A    between atoms: C_5  and  C_7
REMARK    3  A    between atoms: C_9  and  C_17
REMARK    4  A    between atoms: C_10  and  C_16
REMARK    5  A    between atoms: N_11  and  C_15
REMARK    6  A    between atoms: C_17  and  O_19
REMARK    7  A    between atoms: O_19  and  C_20
REMARK    8  A    between atoms: C_20  and  C_21
REMARK    9  A    between atoms: C_21  and  C_22
REMARK   10  A    between atoms: C_22  and  C_23
REMARK                            x       y       z     vdW  Elec       q    Type
REMARK                         _______ _______ _______ _____ _____    ______ ____
ROOT
ATOM      1  C   UNL     1       0.424  -3.560   5.494  0.00  0.00    +0.150 C 
ATOM      2  C   UNL     1       0.522  -4.477   4.292  0.00  0.00    +0.079 C 
ATOM      3  C   UNL     1       0.213  -5.780   4.468  0.00  0.00    +0.024 C 
ATOM      4  N   UNL     1      -0.178  -6.253   5.688  0.00  0.00    -0.262 N 
ATOM      5  C   UNL     1      -0.287  -5.487   6.781  0.00  0.00    +0.307 C 
ATOM      6  O   UNL     1      -0.644  -5.998   7.824  0.00  0.00    -0.252 OA
ATOM      7  N   UNL     1      -0.013  -4.167   6.762  0.00  0.00    -0.287 N 
ATOM      8  C   UNL     1      -0.498  -7.677   5.808  0.00  0.00    +0.139 C 
ATOM      9  C   UNL     1       0.303  -6.728   3.300  0.00  0.00    +0.061 C 
ATOM     10  H   UNL     1      -0.098  -3.631   7.566  0.00  0.00    +0.151 HD
ENDROOT
BRANCH   1  15
ATOM     11  C   UNL     1      -3.907  -0.065   4.436  0.00  0.00    +0.051 C 
ATOM     12  C   UNL     1      -2.603  -0.789   4.653  0.00  0.00    -0.013 A 
ATOM     13  C   UNL     1      -1.336  -0.331   4.503  0.00  0.00    +0.011 A 
ATOM     14  C   UNL     1      -0.280  -1.184   4.761  0.00  0.00    +0.013 A 
ATOM     15  C   UNL     1      -0.541  -2.453   5.157  0.00  0.00    +0.015 A 
ATOM     16  S   UNL     1      -2.326  -2.476   5.168  0.00  0.00    -0.096 S 
ENDBRANCH   1  15
BRANCH   2  17
ATOM     17  C   UNL     1       0.928  -3.986   3.029  0.00  0.00    +0.339 C 
ATOM     18  O   UNL     1       1.044  -4.750   2.088  0.00  0.00    -0.245 OA
BRANCH  17  19
ATOM     19  O   UNL     1       1.186  -2.672   2.867  0.00  0.00    -0.461 OA
BRANCH  19  20
ATOM     20  C   UNL     1       1.591  -2.246   1.564  0.00  0.00    +0.233 C 
BRANCH  20  21
ATOM     21  C   UNL     1       1.838  -0.736   1.575  0.00  0.00    +0.046 C 
BRANCH  21  22
ATOM     22  C   UNL     1       2.272  -0.280   0.181  0.00  0.00    +0.038 C 
BRANCH  22  23
ATOM     23  C   UNL     1       2.514   1.208   0.192  0.00  0.00    -0.047 A 
ATOM     24  C   UNL     1       1.482   2.078  -0.103  0.00  0.00    +0.003 A 
ATOM     25  C   UNL     1       1.704   3.443  -0.088  0.00  0.00    +0.000 A 
ATOM     26  C   UNL     1       2.960   3.936   0.211  0.00  0.00    +0.000 A 
ATOM     27  C   UNL     1       3.993   3.065   0.501  0.00  0.00    +0.000 A 
ATOM     28  C   UNL     1       3.771   1.701   0.491  0.00  0.00    +0.003 A 
ENDBRANCH  22  23
ENDBRANCH  21  22
ENDBRANCH  20  21
ENDBRANCH  19  20
ENDBRANCH  17  19
ENDBRANCH   2  17
TORSDOF 7
