REMARK  Name = ZINC01729467
REMARK  5 active torsions:
REMARK  status: ('A' for Active; 'I' for Inactive)
REMARK    1  A    between atoms: C_1  and  C_2
REMARK    2  A    between atoms: C_5  and  C_21
REMARK    3  A    between atoms: C_6  and  N_8
REMARK    4  A    between atoms: N_11  and  C_14
REMARK    5  A    between atoms: C_19  and  N_20
REMARK                            x       y       z     vdW  Elec       q    Type
REMARK                         _______ _______ _______ _____ _____    ______ ____
ROOT
ATOM      1  N   UNL     1       0.051  -2.796   2.390  0.00  0.00    -0.327 N 
ATOM      2  C   UNL     1       1.324  -3.153   3.032  0.00  0.00    +0.124 C 
ATOM      3  C   UNL     1       1.319  -2.611   4.467  0.00  0.00    +0.124 C 
ATOM      4  N   UNL     1       0.062  -3.011   5.115  0.00  0.00    -0.325 N 
ATOM      5  C   UNL     1      -1.211  -2.655   4.473  0.00  0.00    +0.124 C 
ATOM      6  C   UNL     1      -1.206  -3.192   3.041  0.00  0.00    +0.124 C 
ENDROOT
BRANCH   1  12
ATOM      7  C   UNL     1      -0.018   1.503   0.010  0.00  0.00    +0.044 C 
ATOM      8  C   UNL     1       0.002  -0.004   0.002  0.00  0.00    -0.049 A 
ATOM      9  C   UNL     1       0.006  -0.688  -1.200  0.00  0.00    +0.004 A 
ATOM     10  C   UNL     1       0.024  -2.071  -1.212  0.00  0.00    +0.005 A 
ATOM     11  C   UNL     1       0.039  -2.773  -0.023  0.00  0.00    -0.029 A 
ATOM     12  C   UNL     1       0.036  -2.089   1.186  0.00  0.00    +0.033 A 
ATOM     13  C   UNL     1       0.023  -0.700   1.194  0.00  0.00    +0.026 A 
ATOM     14  C   UNL     1       0.059  -4.280  -0.037  0.00  0.00    +0.045 C 
ENDBRANCH   1  12
BRANCH   4  15
ATOM     15  C   UNL     1       0.077  -3.718   6.318  0.00  0.00    +0.054 A 
ATOM     16  C   UNL     1       0.063  -3.050   7.539  0.00  0.00    +0.042 A 
ATOM     17  C   UNL     1       0.079  -3.784   8.708  0.00  0.00    +0.084 A 
ATOM     18  N   UNL     1       0.106  -5.103   8.681  0.00  0.00    -0.365 N 
ATOM     19  C   UNL     1       0.121  -5.778   7.546  0.00  0.00    +0.107 A 
ATOM     20  C   UNL     1       0.101  -5.117   6.329  0.00  0.00    +0.062 A 
ATOM     21  H   UNL     1       0.116  -5.591   9.519  0.00  0.00    +0.165 HD
BRANCH  20  22
ATOM     22  N   UNL     1       0.110  -5.838   5.128  0.00  0.00    -0.355 N 
ATOM     23  H   UNL     1       0.100  -5.368   4.280  0.00  0.00    +0.142 HD
ATOM     24  H   UNL     1       0.127  -6.808   5.145  0.00  0.00    +0.142 HD
ENDBRANCH  20  22
ENDBRANCH   4  15
TORSDOF 3
