REMARK  Name = ZINC40385541
REMARK  6 active torsions:
REMARK  status: ('A' for Active; 'I' for Inactive)
REMARK    1  A    between atoms: C_1  and  C_2
REMARK    2  A    between atoms: C_5  and  N_8
REMARK    3  A    between atoms: N_8  and  C_9
REMARK    4  A    between atoms: C_9  and  C_11
REMARK    5  A    between atoms: C_12  and  N_26
REMARK    6  A    between atoms: C_22  and  C_25
REMARK                            x       y       z     vdW  Elec       q    Type
REMARK                         _______ _______ _______ _____ _____    ______ ____
ROOT
ATOM      1  C   UNL     1       0.083  -6.309   1.348  0.00  0.00    +0.107 A 
ATOM      2  C   UNL     1       0.052  -6.947   2.604  0.00  0.00    +0.135 A 
ATOM      3  N   UNL     1       0.070  -8.279   2.664  0.00  0.00    -0.200 NA
ATOM      4  C   UNL     1       0.117  -9.015   1.572  0.00  0.00    +0.200 A 
ATOM      5  N   UNL     1       0.149  -8.458   0.331  0.00  0.00    -0.294 N 
ATOM      6  H   UNL     1       0.183  -9.029  -0.453  0.00  0.00    +0.172 HD
ATOM      7  C   UNL     1       0.127  -7.117   0.185  0.00  0.00    +0.264 A 
ATOM      8  O   UNL     1       0.150  -6.611  -0.924  0.00  0.00    -0.267 OA
ATOM      9  N   UNL     1       0.133 -10.376   1.690  0.00  0.00    -0.301 N 
ATOM     10  C   UNL     1       0.314 -11.228   0.506  0.00  0.00    +0.108 C 
ATOM     11  C   UNL     1      -0.833 -12.243   0.449  0.00  0.00    +0.022 C 
ATOM     12  C   UNL     1      -0.895 -13.010   1.772  0.00  0.00    -0.011 C 
ATOM     13  C   UNL     1      -1.170 -12.034   2.918  0.00  0.00    +0.022 C 
ATOM     14  C   UNL     1      -0.022 -11.016   3.003  0.00  0.00    +0.108 C 
ATOM     15  C   UNL     1      -2.016 -14.049   1.706  0.00  0.00    +0.007 C 
ENDROOT
BRANCH   2  16
ATOM     16  N   UNL     1       0.004  -6.202   3.758  0.00  0.00    -0.342 N 
ATOM     17  H   UNL     1       0.066  -5.236   3.714  0.00  0.00    +0.144 HD
ATOM     18  H   UNL     1      -0.092  -6.644   4.616  0.00  0.00    +0.144 HD
ENDBRANCH   2  16
BRANCH   1  19
ATOM     19  C   UNL     1       0.064  -4.849   1.248  0.00  0.00    +0.092 C 
ATOM     20  S   UNL     1      -1.407  -4.032   0.931  0.00  0.00    -0.034 S 
BRANCH  19  21
ATOM     21  N   UNL     1       1.204  -4.148   1.405  0.00  0.00    -0.308 N 
ATOM     22  H   UNL     1       2.046  -4.613   1.525  0.00  0.00    +0.153 HD
BRANCH  21  27
ATOM     23  C   UNL     1       1.074   1.523   1.362  0.00  0.00    +0.044 C 
ATOM     24  C   UNL     1       1.109   0.016   1.374  0.00  0.00    -0.050 A 
ATOM     25  C   UNL     1       1.842  -0.650   2.338  0.00  0.00    +0.005 A 
ATOM     26  C   UNL     1       1.875  -2.031   2.352  0.00  0.00    +0.023 A 
ATOM     27  C   UNL     1       1.171  -2.750   1.394  0.00  0.00    +0.032 A 
ATOM     28  C   UNL     1       0.436  -2.078   0.427  0.00  0.00    +0.023 A 
ATOM     29  C   UNL     1       0.402  -0.697   0.423  0.00  0.00    +0.005 A 
ENDBRANCH  21  27
ENDBRANCH  19  21
ENDBRANCH   1  19
TORSDOF 4
