REMARK  Name = ZINC65055014
REMARK  6 active torsions:
REMARK  status: ('A' for Active; 'I' for Inactive)
REMARK    1  A    between atoms: C_1  and  C_2
REMARK    2  A    between atoms: C_5  and  C_8
REMARK    3  A    between atoms: C_9  and  C_18
REMARK    4  A    between atoms: N_10  and  C_13
REMARK    5  A    between atoms: C_21  and  C_23
REMARK    6  A    between atoms: N_25  and  C_26
REMARK                            x       y       z     vdW  Elec       q    Type
REMARK                         _______ _______ _______ _____ _____    ______ ____
ROOT
ATOM      1  C   UNL     1      -1.557  -4.687   1.909  0.00  0.00    +0.154 A 
ATOM      2  C   UNL     1      -1.361  -3.632   2.779  0.00  0.00    +0.052 A 
ATOM      3  C   UNL     1      -2.459  -3.603   3.639  0.00  0.00    +0.055 A 
ATOM      4  C   UNL     1      -3.288  -4.641   3.266  0.00  0.00    +0.190 A 
ATOM      5  O   UNL     1      -2.726  -5.279   2.217  0.00  0.00    -0.449 OA
ENDROOT
BRANCH   1   7
ATOM      6  C   UNL     1      -0.130  -4.280  -0.170  0.00  0.00    +0.075 A 
ATOM      7  C   UNL     1      -0.650  -5.090   0.831  0.00  0.00    +0.110 A 
ATOM      8  N   UNL     1      -0.139  -6.351   0.605  0.00  0.00    -0.326 N 
ATOM      9  C   UNL     1       0.650  -6.275  -0.488  0.00  0.00    +0.175 A 
ATOM     10  N   UNL     1       0.648  -5.053  -0.947  0.00  0.00    -0.345 N 
ATOM     11  H   UNL     1       1.137  -4.749  -1.727  0.00  0.00    +0.167 HD
BRANCH   6  16
ATOM     12  C   UNL     1      -1.141   1.343  -0.874  0.00  0.00    +0.044 C 
ATOM     13  C   UNL     1      -0.876  -0.129  -0.690  0.00  0.00    -0.050 A 
ATOM     14  C   UNL     1      -1.929  -0.993  -0.450  0.00  0.00    +0.004 A 
ATOM     15  C   UNL     1      -1.694  -2.342  -0.280  0.00  0.00    +0.010 A 
ATOM     16  C   UNL     1      -0.390  -2.834  -0.352  0.00  0.00    +0.000 A 
ATOM     17  C   UNL     1       0.668  -1.957  -0.594  0.00  0.00    +0.010 A 
ATOM     18  C   UNL     1       0.418  -0.611  -0.767  0.00  0.00    +0.004 A 
ENDBRANCH   6  16
BRANCH   8  19
ATOM     19  C   UNL     1      -0.402  -7.550   1.403  0.00  0.00    +0.089 C 
ATOM     20  C   UNL     1       0.925  -8.141   1.924  0.00  0.00    +0.025 C 
ATOM     21  C   UNL     1       0.712  -9.673   1.854  0.00  0.00    +0.002 C 
ATOM     22  C   UNL     1      -0.097  -9.847   0.545  0.00  0.00    +0.002 C 
ATOM     23  C   UNL     1      -1.052  -8.635   0.527  0.00  0.00    +0.025 C 
ENDBRANCH   8  19
ENDBRANCH   1   7
BRANCH   4  24
ATOM     24  C   UNL     1      -4.561  -4.989   3.897  0.00  0.00    +0.280 C 
ATOM     25  O   UNL     1      -4.972  -4.336   4.839  0.00  0.00    -0.267 OA
ATOM     26  N   UNL     1      -5.279  -6.032   3.435  0.00  0.00    -0.302 N 
ATOM     27  H   UNL     1      -4.952  -6.552   2.685  0.00  0.00    +0.150 HD
BRANCH  26  28
ATOM     28  C   UNL     1      -6.555  -6.380   4.067  0.00  0.00    +0.104 C 
ATOM     29  C   UNL     1      -7.437  -7.105   3.053  0.00  0.00    +0.027 C 
ATOM     30  C   UNL     1      -8.668  -7.650   3.786  0.00  0.00    +0.007 C 
ATOM     31  C   UNL     1      -8.220  -8.793   4.695  0.00  0.00    +0.035 C 
ATOM     32  C   UNL     1      -7.061  -8.362   5.554  0.00  0.00    -0.042 A 
ATOM     33  C   UNL     1      -6.293  -7.257   5.263  0.00  0.00    -0.024 A 
ATOM     34  C   UNL     1      -5.233  -6.918   6.094  0.00  0.00    +0.006 A 
ATOM     35  C   UNL     1      -4.945  -7.679   7.208  0.00  0.00    +0.000 A 
ATOM     36  C   UNL     1      -5.718  -8.787   7.502  0.00  0.00    +0.000 A 
ATOM     37  C   UNL     1      -6.770  -9.124   6.678  0.00  0.00    +0.004 A 
ENDBRANCH  26  28
ENDBRANCH   4  24
TORSDOF 5
