REMARK  Name = ZINC00680380
REMARK  11 active torsions:
REMARK  status: ('A' for Active; 'I' for Inactive)
REMARK    1  A    between atoms: C_1  and  C_2
REMARK    2  A    between atoms: C_3  and  C_12
REMARK    3  A    between atoms: C_19  and  C_37
REMARK    4  A    between atoms: C_20  and  C_31
REMARK    5  A    between atoms: C_21  and  C_23
REMARK    6  A    between atoms: C_26  and  O_29
REMARK    7  A    between atoms: O_29  and  C_30
REMARK    8  A    between atoms: C_31  and  O_33
REMARK    9  A    between atoms: O_33  and  C_34
REMARK   10  A    between atoms: C_34  and  C_35
REMARK   11  A    between atoms: C_34  and  C_36
REMARK                            x       y       z     vdW  Elec       q    Type
REMARK                         _______ _______ _______ _____ _____    ______ ____
ROOT
ATOM      1  C   UNL     1      -1.413   9.101   0.226  0.00  0.00    +0.030 C 
ATOM      2  C   UNL     1      -0.575   8.026   0.201  0.00  0.00    +0.081 A 
ATOM      3  C   UNL     1      -0.867   6.662  -0.066  0.00  0.00    +0.268 A 
ATOM      4  O   UNL     1      -2.007   6.315  -0.320  0.00  0.00    -0.266 OA
ATOM      5  N   UNL     1       0.122   5.761  -0.037  0.00  0.00    -0.275 N 
ATOM      6  C   UNL     1       1.394   6.201   0.255  0.00  0.00    +0.178 A 
ATOM      7  N   UNL     1       2.445   5.425   0.315  0.00  0.00    -0.228 NA
ATOM      8  C   UNL     1       2.428   4.114   0.109  0.00  0.00    +0.053 C 
ATOM      9  C   UNL     1       1.260   3.474  -0.202  0.00  0.00    +0.085 C 
ATOM     10  C   UNL     1      -0.003   4.299  -0.291  0.00  0.00    +0.162 C 
ATOM     11  C   UNL     1       3.707   3.324   0.213  0.00  0.00    +0.066 C 
ATOM     12  S   UNL     1       1.185   7.954   0.496  0.00  0.00    -0.046 S 
ENDROOT
BRANCH   1  15
ATOM     13  C   UNL     1       0.391   9.827   2.655  0.00  0.00    +0.064 C 
ATOM     14  C   UNL     1      -0.093  10.775   1.589  0.00  0.00    +0.021 A 
ATOM     15  C   UNL     1      -0.886  10.431   0.530  0.00  0.00    +0.004 A 
ATOM     16  C   UNL     1      -1.111  11.668  -0.243  0.00  0.00    +0.007 A 
ATOM     17  C   UNL     1      -1.823  11.967  -1.402  0.00  0.00    +0.010 A 
ATOM     18  C   UNL     1      -1.835  13.259  -1.880  0.00  0.00    +0.001 A 
ATOM     19  C   UNL     1      -1.143  14.259  -1.212  0.00  0.00    +0.002 A 
ATOM     20  C   UNL     1      -0.435  13.977  -0.064  0.00  0.00    +0.026 A 
ATOM     21  C   UNL     1      -0.411  12.678   0.434  0.00  0.00    +0.047 A 
ATOM     22  N   UNL     1       0.193  12.101   1.533  0.00  0.00    -0.358 N 
ATOM     23  H   UNL     1       0.742  12.576   2.176  0.00  0.00    +0.166 HD
ENDBRANCH   1  15
BRANCH  10  24
ATOM     24  C   UNL     1      -0.994   3.740   0.698  0.00  0.00    -0.020 A 
ATOM     25  C   UNL     1      -0.888   4.063   2.038  0.00  0.00    +0.009 A 
ATOM     26  C   UNL     1      -1.798   3.557   2.946  0.00  0.00    +0.046 A 
ATOM     27  C   UNL     1      -2.811   2.714   2.513  0.00  0.00    +0.120 A 
ATOM     28  C   UNL     1      -2.912   2.386   1.169  0.00  0.00    +0.046 A 
ATOM     29  C   UNL     1      -2.003   2.900   0.264  0.00  0.00    +0.009 A 
BRANCH  27  30
ATOM     30  O   UNL     1      -3.705   2.210   3.405  0.00  0.00    -0.495 OA
ATOM     31  C   UNL     1      -3.540   2.589   4.773  0.00  0.00    +0.277 C 
ENDBRANCH  27  30
ENDBRANCH  10  24
BRANCH   9  32
ATOM     32  C   UNL     1       1.234   2.088  -0.426  0.00  0.00    +0.339 C 
ATOM     33  O   UNL     1       2.258   1.436  -0.329  0.00  0.00    -0.245 OA
BRANCH  32  34
ATOM     34  O   UNL     1       0.072   1.478  -0.749  0.00  0.00    -0.459 OA
BRANCH  34  35
ATOM     35  C   UNL     1       0.119   0.066  -0.963  0.00  0.00    +0.171 C 
ATOM     36  C   UNL     1      -0.137  -0.659   0.360  0.00  0.00    +0.052 C 
ATOM     37  C   UNL     1      -0.954  -0.332  -1.978  0.00  0.00    +0.052 C 
ENDBRANCH  34  35
ENDBRANCH  32  34
ENDBRANCH   9  32
TORSDOF 6
