REMARK  Name = ZINC31054907
REMARK  8 active torsions:
REMARK  status: ('A' for Active; 'I' for Inactive)
REMARK    1  A    between atoms: C_3  and  C_9
REMARK    2  A    between atoms: C_11  and  C_14
REMARK    3  A    between atoms: C_14  and  N_15
REMARK    4  A    between atoms: C_19  and  C_22
REMARK    5  A    between atoms: N_24  and  C_25
REMARK    6  A    between atoms: C_25  and  C_26
REMARK    7  A    between atoms: C_26  and  S_27
REMARK    8  A    between atoms: S_27  and  C_28
REMARK                            x       y       z     vdW  Elec       q    Type
REMARK                         _______ _______ _______ _____ _____    ______ ____
ROOT
ATOM      1  N   UNL     1      -1.549  -0.099  11.399  0.00  0.00    +0.386 N 
ATOM      2  C   UNL     1      -1.664  -1.559  11.300  0.00  0.00    -0.078 C 
ATOM      3  C   UNL     1      -1.026  -2.035   9.994  0.00  0.00    -0.018 C 
ATOM      4  C   UNL     1      -1.734  -1.367   8.812  0.00  0.00    +0.009 C 
ATOM      5  C   UNL     1      -1.641   0.153   8.965  0.00  0.00    +0.058 C 
ATOM      6  C   UNL     1      -2.262   0.566  10.301  0.00  0.00    -0.065 C 
ATOM      7  H   UNL     1      -0.483   0.160  11.313  0.00  0.00    -0.081 HD
ENDROOT
BRANCH   5   8
ATOM      8  C   UNL     1      -2.386   0.819   7.837  0.00  0.00    +0.214 C 
ATOM      9  O   UNL     1      -3.322   1.551   8.077  0.00  0.00    -0.276 OA
ATOM     10  N   UNL     1      -2.013   0.600   6.560  0.00  0.00    -0.314 N 
ATOM     11  H   UNL     1      -1.163  -0.064   6.342  0.00  0.00    +0.149 HD
BRANCH  10  12
ATOM     12  C   UNL     1      -2.737   1.247   5.464  0.00  0.00    +0.115 C 
BRANCH  12  13
ATOM     13  C   UNL     1      -2.116   0.834   4.128  0.00  0.00    +0.088 C 
BRANCH  13  14
ATOM     14  S   UNL     1      -3.013   1.635   2.770  0.00  0.00    -0.156 S 
BRANCH  14  15
ATOM     15  C   UNL     1      -2.164   1.050   1.278  0.00  0.00    +0.047 C 
ATOM     16  C   UNL     1      -0.729   1.579   1.267  0.00  0.00    +0.014 C 
ATOM     17  C   UNL     1      -0.013   1.086   0.008  0.00  0.00    +0.001 C 
ATOM     18  C   UNL     1      -0.753   1.593  -1.232  0.00  0.00    +0.000 C 
ATOM     19  C   UNL     1      -2.188   1.063  -1.221  0.00  0.00    +0.001 C 
ATOM     20  C   UNL     1      -2.904   1.556   0.038  0.00  0.00    +0.014 C 
ENDBRANCH  14  15
ENDBRANCH  13  14
ENDBRANCH  12  13
ENDBRANCH  10  12
ENDBRANCH   5   8
BRANCH   1  21
ATOM     21  C   UNL     1      -2.027   0.380  12.703  0.00  0.00    +0.022 C 
BRANCH  21  24
ATOM     22  C   UNL     1       0.440  -0.357  15.211  0.00  0.00    +0.203 A 
ATOM     23  N   UNL     1      -0.046   0.464  14.252  0.00  0.00    -0.193 NA
ATOM     24  C   UNL     1      -1.118  -0.131  13.791  0.00  0.00    +0.211 A 
ATOM     25  O   UNL     1      -1.250  -1.280  14.461  0.00  0.00    -0.340 OA
ATOM     26  N   UNL     1      -0.353  -1.395  15.270  0.00  0.00    -0.056 NA
BRANCH  22  29
ATOM     27  C   UNL     1       3.162  -0.845  17.758  0.00  0.00    +0.021 A 
ATOM     28  C   UNL     1       2.036  -1.065  16.991  0.00  0.00    +0.014 A 
ATOM     29  C   UNL     1       1.650  -0.125  16.038  0.00  0.00    +0.041 A 
ATOM     30  C   UNL     1       2.407   1.033  15.861  0.00  0.00    +0.053 A 
ATOM     31  C   UNL     1       3.529   1.246  16.638  0.00  0.00    +0.040 A 
ATOM     32  C   UNL     1       3.908   0.308  17.582  0.00  0.00    +0.042 A 
ATOM     33 CL   UNL     1       5.323   0.578  18.551  0.00  0.00    -0.083 Cl
ATOM     34 CL   UNL     1       1.937   2.206  14.671  0.00  0.00    -0.083 Cl
ENDBRANCH  22  29
ENDBRANCH  21  24
ENDBRANCH   1  21
TORSDOF 8
