REMARK  Name = ZINC39352637
REMARK  10 active torsions:
REMARK  status: ('A' for Active; 'I' for Inactive)
REMARK    1  A    between atoms: C_1  and  C_2
REMARK    2  A    between atoms: N_4  and  C_5
REMARK    3  A    between atoms: C_9  and  N_31
REMARK    4  A    between atoms: N_13  and  C_20
REMARK    5  A    between atoms: C_14  and  C_16
REMARK    6  A    between atoms: C_16  and  O_18
REMARK    7  A    between atoms: O_18  and  C_19
REMARK    8  A    between atoms: C_20  and  C_21
REMARK    9  A    between atoms: C_21  and  C_22
REMARK   10  A    between atoms: N_31  and  C_32
REMARK                            x       y       z     vdW  Elec       q    Type
REMARK                         _______ _______ _______ _____ _____    ______ ____
ROOT
ATOM      1  C   UNL     1       0.020  -2.136  -1.177  0.00  0.00    +0.138 C 
ATOM      2  C   UNL     1      -1.387  -2.684  -1.120  0.00  0.00    +0.015 A 
ATOM      3  C   UNL     1      -2.378  -2.553  -0.166  0.00  0.00    +0.033 A 
ATOM      4  C   UNL     1      -3.602  -3.182  -0.389  0.00  0.00    +0.044 A 
ATOM      5  C   UNL     1      -3.774  -3.912  -1.555  0.00  0.00    +0.107 A 
ATOM      6  N   UNL     1      -2.806  -4.013  -2.441  0.00  0.00    -0.348 N 
ATOM      7  C   UNL     1      -1.621  -3.428  -2.268  0.00  0.00    +0.105 A 
ATOM      8  N   UNL     1      -0.506  -3.441  -3.104  0.00  0.00    -0.301 N 
ATOM      9  C   UNL     1       0.584  -2.659  -2.509  0.00  0.00    +0.208 C 
ATOM     10  H   UNL     1      -2.959  -4.532  -3.246  0.00  0.00    +0.167 HD
ENDROOT
BRANCH   1  14
ATOM     11  C   UNL     1      -0.018   1.503   0.010  0.00  0.00    +0.109 C 
ATOM     12  C   UNL     1       0.002  -0.004   0.002  0.00  0.00    +0.210 C 
ATOM     13  O   UNL     1       0.020  -0.616   1.049  0.00  0.00    -0.276 OA
ATOM     14  N   UNL     1       0.000  -0.672  -1.169  0.00  0.00    -0.306 N 
ATOM     15  H   UNL     1      -0.015  -0.182  -2.006  0.00  0.00    +0.149 HD
ENDBRANCH   1  14
BRANCH   9  16
ATOM     16  C   UNL     1       1.784  -3.535  -2.261  0.00  0.00    +0.330 C 
ATOM     17  O   UNL     1       1.669  -4.737  -2.277  0.00  0.00    -0.249 OA
BRANCH  16  18
ATOM     18  O   UNL     1       2.983  -2.979  -2.022  0.00  0.00    -0.467 OA
ATOM     19  C   UNL     1       4.077  -3.870  -1.795  0.00  0.00    +0.280 C 
ENDBRANCH  16  18
ENDBRANCH   9  16
BRANCH   4  20
ATOM     20  N   UNL     1      -4.638  -3.080   0.548  0.00  0.00    -0.340 N 
ATOM     21  H   UNL     1      -4.507  -2.567   1.362  0.00  0.00    +0.146 HD
BRANCH  20  22
ATOM     22  C   UNL     1      -5.918  -3.747   0.301  0.00  0.00    +0.072 C 
ATOM     23  C   UNL     1      -6.785  -2.856  -0.585  0.00  0.00    +0.033 C 
ATOM     24  C   UNL     1      -7.996  -3.645  -1.092  0.00  0.00    +0.071 C 
ATOM     25  S   UNL     1      -9.003  -4.148   0.336  0.00  0.00    -0.161 S 
ATOM     26  C   UNL     1      -7.795  -4.965   1.423  0.00  0.00    +0.071 C 
ATOM     27  C   UNL     1      -6.608  -4.021   1.634  0.00  0.00    +0.033 C 
ENDBRANCH  20  22
ENDBRANCH   4  20
BRANCH   8  28
ATOM     28  C   UNL     1      -0.432  -4.138  -4.390  0.00  0.00    +0.112 C 
BRANCH  28  29
ATOM     29  C   UNL     1      -0.893  -3.199  -5.506  0.00  0.00    +0.056 C 
BRANCH  29  30
ATOM     30  C   UNL     1      -0.816  -3.915  -6.830  0.00  0.00    -0.021 A 
ATOM     31  C   UNL     1      -1.840  -4.789  -7.408  0.00  0.00    +0.003 A 
ATOM     32  C   UNL     1      -3.101  -5.216  -6.988  0.00  0.00    +0.010 A 
ATOM     33  C   UNL     1      -3.831  -6.056  -7.781  0.00  0.00    +0.001 A 
ATOM     34  C   UNL     1      -3.329  -6.489  -9.000  0.00  0.00    +0.002 A 
ATOM     35  C   UNL     1      -2.087  -6.079  -9.434  0.00  0.00    +0.026 A 
ATOM     36  C   UNL     1      -1.327  -5.224  -8.644  0.00  0.00    +0.047 A 
ATOM     37  N   UNL     1      -0.084  -4.650  -8.792  0.00  0.00    -0.360 N 
ATOM     38  C   UNL     1       0.201  -3.870  -7.705  0.00  0.00    +0.087 A 
ATOM     39  H   UNL     1       0.501  -4.777  -9.556  0.00  0.00    +0.165 HD
ENDBRANCH  29  30
ENDBRANCH  28  29
ENDBRANCH   8  28
TORSDOF 8
