REMARK  Name = ZINC66243854
REMARK  9 active torsions:
REMARK  status: ('A' for Active; 'I' for Inactive)
REMARK    1  A    between atoms: C_1  and  C_2
REMARK    2  A    between atoms: C_2  and  C_3
REMARK    3  A    between atoms: C_2  and  C_4
REMARK    4  A    between atoms: C_2  and  O_5
REMARK    5  A    between atoms: O_5  and  C_6
REMARK    6  A    between atoms: C_13  and  C_15
REMARK    7  A    between atoms: C_15  and  N_16
REMARK    8  A    between atoms: N_18  and  C_19
REMARK    9  A    between atoms: C_19  and  C_20
REMARK                            x       y       z     vdW  Elec       q    Type
REMARK                         _______ _______ _______ _____ _____    ______ ____
ROOT
ATOM      1  C   UNL     1       4.475   0.833  -1.472  0.00  0.00    +0.138 C 
ENDROOT
BRANCH   1   9
ATOM      2  C   UNL     1       2.286  -0.679  -1.092  0.00  0.00    +0.404 C 
ATOM      3  O   UNL     1       2.787   0.050  -0.259  0.00  0.00    -0.226 OA
ATOM      4  N   UNL     1       2.857  -0.809  -2.306  0.00  0.00    -0.263 N 
ATOM      5  C   UNL     1       2.335  -1.777  -3.280  0.00  0.00    +0.111 C 
ATOM      6  C   UNL     1       3.484  -2.677  -3.744  0.00  0.00    +0.019 C 
ATOM      7  C   UNL     1       4.626  -1.807  -4.274  0.00  0.00    +0.003 C 
ATOM      8  C   UNL     1       5.144  -0.903  -3.152  0.00  0.00    +0.024 C 
ATOM      9  C   UNL     1       4.010   0.021  -2.683  0.00  0.00    +0.098 C 
BRANCH   2  10
ATOM     10  O   UNL     1       1.160  -1.359  -0.802  0.00  0.00    -0.445 OA
BRANCH  10  12
ATOM     11  C   UNL     1       0.262   0.302   0.707  0.00  0.00    +0.055 C 
ATOM     12  C   UNL     1       0.609  -1.175   0.504  0.00  0.00    +0.107 C 
ATOM     13  C   UNL     1       1.633  -1.607   1.555  0.00  0.00    +0.055 C 
ATOM     14  C   UNL     1      -0.658  -2.021   0.647  0.00  0.00    +0.055 C 
ENDBRANCH  10  12
ENDBRANCH   2  10
ENDBRANCH   1   9
BRANCH   1  15
ATOM     15  N   UNL     1       3.453   1.823  -1.126  0.00  0.00    -0.356 N 
ATOM     16  C   UNL     1       3.699   2.750  -0.141  0.00  0.00    +0.169 C 
ATOM     17  N   UNL     1       2.789   3.631   0.167  0.00  0.00    -0.355 N 
ATOM     18  N   UNL     1       4.904   2.747   0.520  0.00  0.00    -0.371 N 
ATOM     19  H   UNL     1       2.602   1.825  -1.592  0.00  0.00    +0.162 HD
ATOM     20  H   UNL     1       5.581   2.091   0.291  0.00  0.00    +0.159 HD
ATOM     21  H   UNL     1       5.078   3.401   1.215  0.00  0.00    +0.159 HD
ATOM     22  H   UNL     1       1.938   3.633  -0.299  0.00  0.00    +0.162 HD
BRANCH  17  23
ATOM     23  C   UNL     1       3.051   4.619   1.217  0.00  0.00    +0.147 C 
BRANCH  23  24
ATOM     24  C   UNL     1       1.831   5.527   1.379  0.00  0.00    +0.137 C 
ATOM     25  C   UNL     1       2.100   6.602   2.461  0.00  0.00    +0.035 C 
ATOM     26  C   UNL     1       1.115   7.719   2.020  0.00  0.00    +0.031 C 
ATOM     27  C   UNL     1       1.136   7.585   0.482  0.00  0.00    +0.160 C 
ATOM     28  O   UNL     1       1.593   6.263   0.168  0.00  0.00    -0.375 OA
ENDBRANCH  23  24
ENDBRANCH  17  23
ENDBRANCH   1  15
TORSDOF 6
