REMARK  Name = ZINC16000361
REMARK  6 active torsions:
REMARK  status: ('A' for Active; 'I' for Inactive)
REMARK    1  A    between atoms: C_1  and  C_2
REMARK    2  A    between atoms: C_2  and  O_3
REMARK    3  A    between atoms: O_3  and  C_4
REMARK    4  A    between atoms: C_4  and  C_6
REMARK    5  A    between atoms: C_9  and  N_12
REMARK    6  A    between atoms: C_32  and  C_37
REMARK                            x       y       z     vdW  Elec       q    Type
REMARK                         _______ _______ _______ _____ _____    ______ ____
ROOT
ATOM      1  N   UNL     1       1.067   1.996   0.003  0.00  0.00    -0.210 N 
ATOM      2  C   UNL     1      -0.003   1.231   0.248  0.00  0.00    +0.228 C 
ATOM      3  O   UNL     1       0.025   0.041   0.480  0.00  0.00    -0.275 OA
ATOM      4  C   UNL     1      -1.252   2.079   0.184  0.00  0.00    +0.074 C 
ATOM      5  C   UNL     1      -2.088   1.688  -1.061  0.00  0.00    -0.054 C 
ATOM      6  C   UNL     1      -3.426   1.080  -0.600  0.00  0.00    -0.016 C 
ATOM      7  C   UNL     1      -4.408   2.265  -0.512  0.00  0.00    -0.020 C 
ATOM      8  C   UNL     1      -3.579   3.506  -0.900  0.00  0.00    -0.076 C 
ATOM      9  N   UNL     1      -2.453   2.983  -1.711  0.00  0.00    +0.395 N 
ATOM     10  C   UNL     1      -1.266   3.834  -1.525  0.00  0.00    +0.053 C 
ATOM     11  C   UNL     1      -0.707   3.498  -0.138  0.00  0.00    +0.089 C 
ATOM     12  C   UNL     1       0.787   3.284  -0.227  0.00  0.00    +0.229 C 
ATOM     13  O   UNL     1       1.605   4.146  -0.468  0.00  0.00    -0.275 OA
ATOM     14  C   UNL     1      -1.612   5.293  -1.637  0.00  0.00    -0.027 A 
ATOM     15  C   UNL     1      -2.471   6.118  -0.947  0.00  0.00    +0.006 A 
ATOM     16  C   UNL     1      -2.575   7.454  -1.291  0.00  0.00    +0.020 A 
ATOM     17  C   UNL     1      -1.814   7.958  -2.332  0.00  0.00    +0.046 A 
ATOM     18  C   UNL     1      -0.952   7.133  -3.027  0.00  0.00    -0.011 A 
ATOM     19  C   UNL     1      -0.841   5.788  -2.685  0.00  0.00    +0.040 A 
ATOM     20  N   UNL     1      -0.053   4.770  -3.227  0.00  0.00    -0.286 N 
ATOM     21  C   UNL     1      -0.243   3.593  -2.602  0.00  0.00    +0.212 C 
ATOM     22  O   UNL     1       0.304   2.541  -2.857  0.00  0.00    -0.277 OA
ATOM     23  C   UNL     1      -0.128   7.692  -4.158  0.00  0.00    +0.047 C 
ATOM     24 CL   UNL     1      -1.945   9.634  -2.765  0.00  0.00    -0.083 Cl
ATOM     25  H   UNL     1       0.622   4.986  -4.069  0.00  0.00    +0.155 HD
ATOM     26  H   UNL     1      -2.729   2.933  -2.775  0.00  0.00    -0.079 HD
ENDROOT
BRANCH   1  30
ATOM     27  C   UNL     1       4.954   0.489  -0.043  0.00  0.00    +0.059 A 
ATOM     28  C   UNL     1       4.561   1.384   0.957  0.00  0.00    +0.017 A 
ATOM     29  C   UNL     1       3.276   1.880   0.968  0.00  0.00    +0.025 A 
ATOM     30  C   UNL     1       2.370   1.491  -0.013  0.00  0.00    +0.044 A 
ATOM     31  C   UNL     1       2.756   0.597  -1.006  0.00  0.00    +0.025 A 
ATOM     32  C   UNL     1       4.040   0.101  -1.027  0.00  0.00    +0.017 A 
BRANCH  27  33
ATOM     33  C   UNL     1       6.329  -0.044  -0.059  0.00  0.00    +0.339 C 
ATOM     34  O   UNL     1       7.122   0.295   0.797  0.00  0.00    -0.245 OA
BRANCH  33  35
ATOM     35  O   UNL     1       6.706  -0.906  -1.023  0.00  0.00    -0.461 OA
BRANCH  35  37
ATOM     36  C   UNL     1       8.315  -2.351  -2.142  0.00  0.00    +0.048 C 
ATOM     37  C   UNL     1       8.075  -1.390  -0.977  0.00  0.00    +0.229 C 
ENDBRANCH  35  37
ENDBRANCH  33  35
ENDBRANCH  27  33
ENDBRANCH   1  30
TORSDOF 4
