REMARK  Name = ZINC22698542
REMARK  11 active torsions:
REMARK  status: ('A' for Active; 'I' for Inactive)
REMARK    1  A    between atoms: C_1  and  C_2
REMARK    2  A    between atoms: C_2  and  O_3
REMARK    3  A    between atoms: O_3  and  C_4
REMARK    4  A    between atoms: C_4  and  C_6
REMARK    5  A    between atoms: C_7  and  C_22
REMARK    6  A    between atoms: C_12  and  C_14
REMARK    7  A    between atoms: C_17  and  O_20
REMARK    8  A    between atoms: O_20  and  C_21
REMARK    9  A    between atoms: C_22  and  S_23
REMARK   10  A    between atoms: S_23  and  C_24
REMARK   11  A    between atoms: C_27  and  C_30
REMARK                            x       y       z     vdW  Elec       q    Type
REMARK                         _______ _______ _______ _____ _____    ______ ____
ROOT
ATOM      1  C   UNL     1      -1.079  12.182   1.230  0.00  0.00    +0.079 C 
ATOM      2  C   UNL     1      -1.055  11.476   0.079  0.00  0.00    +0.034 C 
ATOM      3  N   UNL     1      -1.528  12.011  -1.085  0.00  0.00    -0.272 N 
ATOM      4  C   UNL     1      -2.036  13.246  -1.183  0.00  0.00    +0.304 C 
ATOM      5  O   UNL     1      -2.432  13.634  -2.264  0.00  0.00    -0.252 OA
ATOM      6  N   UNL     1      -2.122  14.072  -0.122  0.00  0.00    -0.288 N 
ATOM      7  C   UNL     1      -1.638  13.589   1.183  0.00  0.00    +0.144 C 
ATOM      8  H   UNL     1      -1.504  11.418  -2.012  0.00  0.00    +0.156 HD
ATOM      9  H   UNL     1      -2.541  15.085  -0.213  0.00  0.00    +0.151 HD
ENDROOT
BRANCH   7  10
ATOM     10  C   UNL     1      -0.566  14.536   1.659  0.00  0.00    -0.022 A 
ATOM     11  C   UNL     1       0.357  15.041   0.763  0.00  0.00    +0.009 A 
ATOM     12  C   UNL     1       1.337  15.914   1.196  0.00  0.00    +0.046 A 
ATOM     13  C   UNL     1       1.401  16.272   2.534  0.00  0.00    +0.120 A 
ATOM     14  C   UNL     1       0.478  15.759   3.433  0.00  0.00    +0.046 A 
ATOM     15  C   UNL     1      -0.504  14.892   2.994  0.00  0.00    +0.009 A 
BRANCH  13  16
ATOM     16  O   UNL     1       2.368  17.125   2.965  0.00  0.00    -0.495 OA
ATOM     17  C   UNL     1       3.285  17.614   1.984  0.00  0.00    +0.277 C 
ENDBRANCH  13  16
ENDBRANCH   7  10
BRANCH   1  18
ATOM     18  C   UNL     1      -0.594  11.628   2.438  0.00  0.00    +0.339 C 
ATOM     19  O   UNL     1      -0.014  10.558   2.427  0.00  0.00    -0.245 OA
BRANCH  18  20
ATOM     20  O   UNL     1      -0.776  12.285   3.603  0.00  0.00    -0.462 OA
BRANCH  20  22
ATOM     21  C   UNL     1      -0.559  12.553   5.995  0.00  0.00    +0.048 C 
ATOM     22  C   UNL     1      -0.261  11.667   4.783  0.00  0.00    +0.229 C 
ENDBRANCH  20  22
ENDBRANCH  18  20
ENDBRANCH   1  18
BRANCH   2  23
ATOM     23  C   UNL     1      -0.502  10.074   0.080  0.00  0.00    +0.128 C 
BRANCH  23  24
ATOM     24  S   UNL     1       1.202  10.097  -0.531  0.00  0.00    -0.081 S 
BRANCH  24  25
ATOM     25  C   UNL     1       1.587   8.381  -0.425  0.00  0.00    +0.185 A 
ATOM     26  N   UNL     1       2.775   7.795  -0.760  0.00  0.00    -0.201 NA
ATOM     27  H   UNL     1      -0.252   7.482   0.351  0.00  0.00    +0.191 HD
ATOM     28  C   UNL     1       2.608   6.452  -0.515  0.00  0.00    +0.182 A 
ATOM     29  N   UNL     1       1.385   6.290  -0.066  0.00  0.00    -0.152 NA
ATOM     30  N   UNL     1       0.786   7.426  -0.009  0.00  0.00    -0.253 N 
BRANCH  28  31
ATOM     31  C   UNL     1       3.616   5.390  -0.719  0.00  0.00    +0.021 A 
ATOM     32  C   UNL     1       3.308   4.063  -0.416  0.00  0.00    +0.011 A 
ATOM     33  C   UNL     1       4.253   3.076  -0.609  0.00  0.00    +0.001 A 
ATOM     34  C   UNL     1       5.504   3.401  -1.103  0.00  0.00    +0.000 A 
ATOM     35  C   UNL     1       5.818   4.715  -1.400  0.00  0.00    +0.001 A 
ATOM     36  C   UNL     1       4.880   5.710  -1.217  0.00  0.00    +0.011 A 
ENDBRANCH  28  31
ENDBRANCH  24  25
ENDBRANCH  23  24
ENDBRANCH   2  23
TORSDOF 9
