REMARK  Name = ZINC12774171
REMARK  4 active torsions:
REMARK  status: ('A' for Active; 'I' for Inactive)
REMARK    1  A    between atoms: C_4  and  C_7
REMARK    2  A    between atoms: C_7  and  C_9
REMARK    3  A    between atoms: C_7  and  N_19
REMARK    4  A    between atoms: C_20  and  C_22
REMARK                            x       y       z     vdW  Elec       q    Type
REMARK                         _______ _______ _______ _____ _____    ______ ____
ROOT
ATOM      1  C   UNL     1       3.711  -0.707  -0.038  0.00  0.00    +0.134 C 
ENDROOT
BRANCH   1   2
ATOM      2  C   UNL     1       4.014  -1.161  -1.442  0.00  0.00    -0.021 A 
ATOM      3  C   UNL     1       3.402  -2.299  -1.946  0.00  0.00    +0.008 A 
ATOM      4  C   UNL     1       3.663  -2.727  -3.217  0.00  0.00    +0.030 A 
ATOM      5  C   UNL     1       4.556  -2.014  -4.022  0.00  0.00    +0.089 A 
ATOM      6  C   UNL     1       5.176  -0.861  -3.512  0.00  0.00    +0.066 A 
ATOM      7  C   UNL     1       4.894  -0.438  -2.220  0.00  0.00    +0.033 A 
ATOM      8  N   UNL     1       5.986  -0.385  -4.524  0.00  0.00    -0.344 N 
ATOM      9  H   UNL     1       6.551   0.403  -4.486  0.00  0.00    +0.167 HD
ATOM     10  C   UNL     1       5.846  -1.227  -5.583  0.00  0.00    +0.197 A 
ATOM     11  N   UNL     1       5.010  -2.179  -5.291  0.00  0.00    -0.236 NA
ENDBRANCH   1   2
BRANCH   1  15
ATOM     12  C   UNL     1      -0.017   1.378   0.010  0.00  0.00    +0.000 A 
ATOM     13  C   UNL     1       1.171   2.086   0.002  0.00  0.00    +0.000 A 
ATOM     14  C   UNL     1       2.377   1.411  -0.013  0.00  0.00    +0.006 A 
ATOM     15  C   UNL     1       2.396   0.029  -0.020  0.00  0.00    -0.023 A 
ATOM     16  C   UNL     1       1.208  -0.679  -0.012  0.00  0.00    +0.006 A 
ATOM     17  C   UNL     1       0.002  -0.004   0.002  0.00  0.00    +0.000 A 
ENDBRANCH   1  15
BRANCH   1  18
ATOM     18  N   UNL     1       3.630  -1.873   0.845  0.00  0.00    -0.301 N 
ATOM     19  C   UNL     1       3.871  -1.738   2.164  0.00  0.00    +0.245 C 
ATOM     20  O   UNL     1       4.155  -0.648   2.622  0.00  0.00    -0.270 OA
ATOM     21  H   UNL     1       3.403  -2.743   0.480  0.00  0.00    +0.150 HD
BRANCH  19  22
ATOM     22  C   UNL     1       3.789  -2.912   3.053  0.00  0.00    +0.039 A 
ATOM     23  C   UNL     1       3.468  -4.166   2.526  0.00  0.00    +0.014 A 
ATOM     24  C   UNL     1       3.390  -5.265   3.354  0.00  0.00    +0.017 A 
ATOM     25  C   UNL     1       3.632  -5.124   4.715  0.00  0.00    +0.029 A 
ATOM     26  C   UNL     1       3.956  -3.874   5.248  0.00  0.00    +0.048 A 
ATOM     27  C   UNL     1       4.039  -2.771   4.423  0.00  0.00    +0.037 A 
ATOM     28  N   UNL     1       4.201  -3.755   6.625  0.00  0.00    -0.285 N 
ATOM     29  C   UNL     1       5.063  -4.580   7.232  0.00  0.00    +0.218 C 
ATOM     30  O   UNL     1       5.120  -4.594   8.444  0.00  0.00    -0.275 OA
ATOM     31  C   UNL     1       5.960  -5.487   6.443  0.00  0.00    +0.107 C 
ATOM     32  C   UNL     1       5.280  -6.846   6.210  0.00  0.00    +0.083 C 
ATOM     33  S   UNL     1       3.534  -6.518   5.791  0.00  0.00    -0.123 S 
ATOM     34  H   UNL     1       3.744  -3.071   7.140  0.00  0.00    +0.155 HD
ENDBRANCH  19  22
ENDBRANCH   1  18
TORSDOF 4
