REMARK  Name = ZINC64360566
REMARK  5 active torsions:
REMARK  status: ('A' for Active; 'I' for Inactive)
REMARK    1  A    between atoms: C_1  and  C_2
REMARK    2  A    between atoms: C_7  and  C_13
REMARK    3  A    between atoms: C_16  and  C_22
REMARK    4  A    between atoms: C_19  and  C_21
REMARK    5  A    between atoms: C_24  and  C_34
REMARK                            x       y       z     vdW  Elec       q    Type
REMARK                         _______ _______ _______ _____ _____    ______ ____
ROOT
ATOM      1  C   UNL     1       0.319  -6.109   0.688  0.00  0.00    +0.139 C 
ATOM      2  C   UNL     1      -1.101  -6.647   0.954  0.00  0.00    +0.083 C 
ATOM      3  C   UNL     1      -1.355  -7.585  -0.205  0.00  0.00    +0.055 C 
ATOM      4  N   UNL     1      -0.343  -7.603  -0.971  0.00  0.00    -0.185 NA
ATOM      5  N   UNL     1       0.711  -6.783  -0.561  0.00  0.00    -0.186 N 
ATOM      6  C   UNL     1       1.888  -6.631  -1.199  0.00  0.00    +0.232 C 
ATOM      7  O   UNL     1       2.732  -5.886  -0.747  0.00  0.00    -0.274 OA
ATOM      8  C   UNL     1       2.156  -7.387  -2.475  0.00  0.00    +0.111 C 
ENDROOT
BRANCH   1  15
ATOM      9  C   UNL     1       0.108   1.582  -1.208  0.00  0.00    +0.044 C 
ATOM     10  C   UNL     1       0.128   0.081  -1.078  0.00  0.00    -0.048 A 
ATOM     11  C   UNL     1       0.028  -0.707  -2.223  0.00  0.00    +0.004 A 
ATOM     12  C   UNL     1       0.042  -2.066  -2.138  0.00  0.00    +0.010 A 
ATOM     13  C   UNL     1       0.159  -2.682  -0.882  0.00  0.00    +0.001 A 
ATOM     14  C   UNL     1       0.178  -4.084  -0.752  0.00  0.00    +0.018 A 
ATOM     15  C   UNL     1       0.295  -4.614   0.501  0.00  0.00    +0.013 A 
ATOM     16  C   UNL     1       0.391  -3.770   1.607  0.00  0.00    +0.135 A 
ATOM     17  N   UNL     1       0.373  -2.464   1.482  0.00  0.00    -0.235 NA
ATOM     18  C   UNL     1       0.261  -1.882   0.283  0.00  0.00    +0.073 A 
ATOM     19  C   UNL     1       0.248  -0.482   0.154  0.00  0.00    +0.031 A 
ATOM     20 CL   UNL     1       0.539  -4.465   3.191  0.00  0.00    -0.062 Cl
ENDBRANCH   1  15
BRANCH   3  21
ATOM     21  C   UNL     1      -2.618  -8.378  -0.418  0.00  0.00    +0.152 C 
ATOM     22  C   UNL     1      -2.374  -9.343  -1.562  0.00  0.00    -0.014 C 
ATOM     23  C   UNL     1      -3.229  -9.249  -2.664  0.00  0.00    +0.001 A 
ATOM     24  C   UNL     1      -3.073 -10.109  -3.772  0.00  0.00    +0.010 A 
ATOM     25  C   UNL     1      -3.918  -9.996  -4.832  0.00  0.00    +0.001 A 
ATOM     26  C   UNL     1      -4.938  -9.047  -4.848  0.00  0.00    +0.002 A 
ATOM     27  C   UNL     1      -5.138  -8.190  -3.809  0.00  0.00    +0.024 A 
ATOM     28  C   UNL     1      -4.302  -8.249  -2.679  0.00  0.00    +0.041 A 
ATOM     29  N   UNL     1      -4.500  -7.407  -1.660  0.00  0.00    -0.284 N 
ATOM     30  C   UNL     1      -3.761  -7.399  -0.568  0.00  0.00    +0.230 C 
ATOM     31  O   UNL     1      -4.000  -6.603   0.321  0.00  0.00    -0.274 OA
ATOM     32  H   UNL     1      -5.226  -6.767  -1.727  0.00  0.00    +0.155 HD
BRANCH  22  33
ATOM     33  C   UNL     1      -1.327 -10.297  -1.516  0.00  0.00    -0.020 A 
ATOM     34  C   UNL     1      -0.285 -10.250  -2.457  0.00  0.00    +0.008 A 
ATOM     35  C   UNL     1       0.727 -11.182  -2.403  0.00  0.00    +0.001 A 
ATOM     36  C   UNL     1       0.720 -12.164  -1.425  0.00  0.00    +0.000 A 
ATOM     37  C   UNL     1      -0.303 -12.219  -0.492  0.00  0.00    +0.001 A 
ATOM     38  C   UNL     1      -1.321 -11.293  -0.525  0.00  0.00    +0.008 A 
ENDBRANCH  22  33
ENDBRANCH   3  21
TORSDOF 3
