REMARK  Name = ZINC39503262
REMARK  8 active torsions:
REMARK  status: ('A' for Active; 'I' for Inactive)
REMARK    1  A    between atoms: C_4  and  C_7
REMARK    2  A    between atoms: C_7  and  N_8
REMARK    3  A    between atoms: C_10  and  S_29
REMARK    4  A    between atoms: C_16  and  S_19
REMARK    5  A    between atoms: S_19  and  O_22
REMARK    6  A    between atoms: O_22  and  C_23
REMARK    7  A    between atoms: S_29  and  O_32
REMARK    8  A    between atoms: O_32  and  C_33
REMARK                            x       y       z     vdW  Elec       q    Type
REMARK                         _______ _______ _______ _____ _____    ______ ____
ROOT
ATOM      1  N   UNL     1       4.153  -0.953   1.342  0.00  0.00    +0.388 N 
ATOM      2  C   UNL     1       4.577   0.321   1.964  0.00  0.00    -0.048 C 
ATOM      3  C   UNL     1       5.779  -0.060   2.865  0.00  0.00    +0.154 C 
ATOM      4  C   UNL     1       6.481  -1.150   2.011  0.00  0.00    +0.016 C 
ATOM      5  C   UNL     1       5.300  -1.870   1.338  0.00  0.00    -0.061 C 
ATOM      6  C   UNL     1       4.966  -3.163   2.091  0.00  0.00    -0.010 C 
ATOM      7  C   UNL     1       5.150  -4.316   1.079  0.00  0.00    +0.028 C 
ATOM      8  C   UNL     1       4.982  -3.638  -0.304  0.00  0.00    +0.170 C 
ATOM      9  C   UNL     1       5.672  -2.265  -0.100  0.00  0.00    +0.018 C 
ATOM     10  H   UNL     1       3.397  -1.356   1.875  0.00  0.00    -0.080 HD
ENDROOT
BRANCH   8  11
ATOM     11  S   UNL     1       5.820  -4.598  -1.596  0.00  0.00    +0.123 S 
ATOM     12  O   UNL     1       5.538  -4.047  -2.875  0.00  0.00    -0.136 OA
ATOM     13  O   UNL     1       7.157  -4.879  -1.207  0.00  0.00    -0.136 OA
BRANCH  11  14
ATOM     14  O   UNL     1       5.122  -5.950  -1.592  0.00  0.00    -0.346 OA
BRANCH  14  15
ATOM     15  C   UNL     1       3.889  -5.938  -2.164  0.00  0.00    +0.156 A 
ATOM     16  C   UNL     1       2.768  -5.669  -1.393  0.00  0.00    +0.048 A 
ATOM     17  C   UNL     1       1.516  -5.657  -1.977  0.00  0.00    +0.004 A 
ATOM     18  C   UNL     1       1.380  -5.911  -3.329  0.00  0.00    +0.000 A 
ATOM     19  C   UNL     1       2.496  -6.180  -4.100  0.00  0.00    +0.004 A 
ATOM     20  C   UNL     1       3.751  -6.188  -3.522  0.00  0.00    +0.048 A 
ENDBRANCH  14  15
ENDBRANCH  11  14
ENDBRANCH   8  11
BRANCH   3  21
ATOM     21  S   UNL     1       6.872   1.365   3.126  0.00  0.00    +0.122 S 
ATOM     22  O   UNL     1       7.885   1.038   4.067  0.00  0.00    -0.137 OA
ATOM     23  O   UNL     1       7.205   1.961   1.880  0.00  0.00    -0.137 OA
BRANCH  21  24
ATOM     24  O   UNL     1       6.005   2.398   3.831  0.00  0.00    -0.346 OA
BRANCH  24  25
ATOM     25  C   UNL     1       5.772   2.123   5.141  0.00  0.00    +0.156 A 
ATOM     26  C   UNL     1       4.671   1.360   5.506  0.00  0.00    +0.048 A 
ATOM     27  C   UNL     1       4.437   1.081   6.838  0.00  0.00    +0.004 A 
ATOM     28  C   UNL     1       5.296   1.561   7.808  0.00  0.00    +0.000 A 
ATOM     29  C   UNL     1       6.394   2.322   7.448  0.00  0.00    +0.004 A 
ATOM     30  C   UNL     1       6.636   2.599   6.117  0.00  0.00    +0.048 A 
ENDBRANCH  24  25
ENDBRANCH  21  24
ENDBRANCH   3  21
BRANCH   1  31
ATOM     31  C   UNL     1       3.711  -0.707  -0.038  0.00  0.00    -0.042 C 
BRANCH  31  35
ATOM     32  C   UNL     1       0.112   1.593   0.007  0.00  0.00    +0.000 A 
ATOM     33  C   UNL     1       1.338   2.229  -0.026  0.00  0.00    +0.000 A 
ATOM     34  C   UNL     1       2.503   1.485  -0.040  0.00  0.00    +0.002 A 
ATOM     35  C   UNL     1       2.441   0.104  -0.021  0.00  0.00    -0.064 A 
ATOM     36  C   UNL     1       1.215  -0.532   0.012  0.00  0.00    +0.002 A 
ATOM     37  C   UNL     1       0.050   0.212   0.025  0.00  0.00    +0.000 A 
ENDBRANCH  31  35
ENDBRANCH   1  31
TORSDOF 8
