REMARK  Name = ZINC16312687
REMARK  7 active torsions:
REMARK  status: ('A' for Active; 'I' for Inactive)
REMARK    1  A    between atoms: C_1  and  C_2
REMARK    2  A    between atoms: C_5  and  N_20
REMARK    3  A    between atoms: C_7  and  C_8
REMARK    4  A    between atoms: C_8  and  N_9
REMARK    5  A    between atoms: N_20  and  C_21
REMARK    6  A    between atoms: C_23  and  C_32
REMARK    7  A    between atoms: C_24  and  C_30
REMARK                            x       y       z     vdW  Elec       q    Type
REMARK                         _______ _______ _______ _____ _____    ______ ____
ROOT
ATOM      1  C   UNL     1       0.042   1.631   0.035  0.00  0.00    +0.044 C 
ATOM      2  C   UNL     1       0.081   0.126   0.104  0.00  0.00    -0.046 A 
ATOM      3  C   UNL     1      -0.034  -0.621  -1.054  0.00  0.00    +0.005 A 
ATOM      4  C   UNL     1       0.002  -2.000  -0.995  0.00  0.00    +0.023 A 
ATOM      5  C   UNL     1       0.154  -2.637   0.231  0.00  0.00    +0.031 A 
ATOM      6  C   UNL     1       0.269  -1.883   1.392  0.00  0.00    +0.028 A 
ATOM      7  C   UNL     1       0.238  -0.504   1.325  0.00  0.00    -0.025 A 
ENDROOT
BRANCH   5   8
ATOM      8  N   UNL     1       0.190  -4.032   0.295  0.00  0.00    -0.320 N 
ATOM      9  H   UNL     1       0.296  -4.476   1.151  0.00  0.00    +0.152 HD
BRANCH   8  10
ATOM     10  C   UNL     1       0.078  -4.761  -0.831  0.00  0.00    +0.085 C 
ATOM     11  C   UNL     1       0.224  -6.144  -0.782  0.00  0.00    +0.055 C 
ATOM     12  C   UNL     1       0.255  -6.902  -1.974  0.00  0.00    -0.015 C 
ATOM     13  C   UNL     1       0.403  -8.279  -1.885  0.00  0.00    +0.117 C 
ATOM     14  C   UNL     1       0.522  -8.909  -0.569  0.00  0.00    +0.261 C 
ATOM     15  O   UNL     1       0.652 -10.117  -0.491  0.00  0.00    -0.269 OA
ATOM     16  N   UNL     1       0.491  -8.170   0.554  0.00  0.00    -0.248 N 
ATOM     17  C   UNL     1       0.354  -6.833   0.508  0.00  0.00    +0.252 C 
ATOM     18  O   UNL     1       0.334  -6.191   1.542  0.00  0.00    -0.270 OA
ATOM     19  C   UNL     1       0.130  -6.228  -3.316  0.00  0.00    +0.046 C 
ATOM     20  H   UNL     1       0.573  -8.610   1.414  0.00  0.00    +0.158 HD
BRANCH  13  21
ATOM     21  C   UNL     1       0.438  -9.078  -3.073  0.00  0.00    +0.105 C 
ATOM     22  N   UNL     1       0.466  -9.712  -4.015  0.00  0.00    -0.191 NA
ENDBRANCH  13  21
ENDBRANCH   8  10
ENDBRANCH   5   8
BRANCH   7  23
ATOM     23  C   UNL     1       0.369   0.314   2.583  0.00  0.00    +0.152 C 
BRANCH  23  24
ATOM     24  N   UNL     1       0.632  -0.574   3.718  0.00  0.00    -0.230 N 
ATOM     25  C   UNL     1      -0.320  -1.205   4.428  0.00  0.00    +0.254 C 
ATOM     26  O   UNL     1      -1.517  -1.129   4.233  0.00  0.00    -0.270 OA
ATOM     27  C   UNL     1       0.333  -2.006   5.485  0.00  0.00    +0.049 A 
ATOM     28  C   UNL     1      -0.128  -2.840   6.491  0.00  0.00    +0.014 A 
ATOM     29  C   UNL     1       0.777  -3.458   7.340  0.00  0.00    +0.001 A 
ATOM     30  C   UNL     1       2.135  -3.248   7.189  0.00  0.00    +0.001 A 
ATOM     31  C   UNL     1       2.610  -2.416   6.188  0.00  0.00    +0.014 A 
ATOM     32  C   UNL     1       1.717  -1.791   5.332  0.00  0.00    +0.049 A 
ATOM     33  C   UNL     1       1.859  -0.871   4.184  0.00  0.00    +0.254 C 
ATOM     34  O   UNL     1       2.907  -0.451   3.737  0.00  0.00    -0.270 OA
ENDBRANCH  23  24
ENDBRANCH   7  23
TORSDOF 5
