REMARK  Name = ZINC56218429
REMARK  9 active torsions:
REMARK  status: ('A' for Active; 'I' for Inactive)
REMARK    1  A    between atoms: C_1  and  C_2
REMARK    2  A    between atoms: C_7  and  C_13
REMARK    3  A    between atoms: C_13  and  S_14
REMARK    4  A    between atoms: S_14  and  C_15
REMARK    5  A    between atoms: C_15  and  C_17
REMARK    6  A    between atoms: C_15  and  C_18
REMARK    7  A    between atoms: N_20  and  C_21
REMARK    8  A    between atoms: C_26  and  C_31
REMARK    9  A    between atoms: C_28  and  C_30
REMARK                            x       y       z     vdW  Elec       q    Type
REMARK                         _______ _______ _______ _____ _____    ______ ____
ROOT
ATOM      1  S   UNL     1      -1.551  -6.892   0.665  0.00  0.00    -0.142 S 
ENDROOT
BRANCH   1   2
ATOM      2  C   UNL     1      -1.359  -8.695   0.670  0.00  0.00    +0.129 C 
ATOM      3  C   UNL     1      -0.388  -9.108  -0.438  0.00  0.00    +0.029 C 
BRANCH   2   4
ATOM      4  C   UNL     1      -2.698  -9.344   0.430  0.00  0.00    +0.226 C 
ATOM      5  O   UNL     1      -3.568  -8.739  -0.160  0.00  0.00    -0.275 OA
ATOM      6  N   UNL     1      -2.929 -10.596   0.871  0.00  0.00    -0.311 N 
ATOM      7  H   UNL     1      -2.234 -11.080   1.343  0.00  0.00    +0.149 HD
BRANCH   6   8
ATOM      8  C   UNL     1      -4.231 -11.226   0.638  0.00  0.00    +0.076 C 
ATOM      9  C   UNL     1      -4.245 -11.870  -0.750  0.00  0.00    +0.022 C 
ATOM     10  C   UNL     1      -5.605 -12.528  -0.993  0.00  0.00    +0.002 C 
ATOM     11  C   UNL     1      -5.849 -13.601   0.070  0.00  0.00    +0.003 C 
ATOM     12  C   UNL     1      -5.835 -12.958   1.458  0.00  0.00    -0.009 C 
ATOM     13  C   UNL     1      -4.476 -12.300   1.701  0.00  0.00    +0.009 C 
ATOM     14  C   UNL     1      -4.462 -11.656   3.089  0.00  0.00    +0.009 C 
ATOM     15  C   UNL     1      -6.937 -11.899   1.540  0.00  0.00    +0.008 C 
ENDBRANCH   6   8
ENDBRANCH   2   4
ENDBRANCH   1   2
BRANCH   1  16
ATOM     16  C   UNL     1       0.095  -6.274   1.112  0.00  0.00    +0.125 C 
BRANCH  16  23
ATOM     17  C   UNL     1      -0.018   1.503   0.010  0.00  0.00    +0.045 C 
ATOM     18  C   UNL     1       0.002  -0.004   0.002  0.00  0.00    -0.034 A 
ATOM     19  C   UNL     1       0.006  -0.697  -1.217  0.00  0.00    +0.008 A 
ATOM     20  C   UNL     1       0.025  -2.059  -1.216  0.00  0.00    +0.047 A 
ATOM     21  C   UNL     1       0.040  -2.750   0.010  0.00  0.00    +0.141 A 
ATOM     22  N   UNL     1       0.059  -4.082   0.013  0.00  0.00    -0.233 NA
ATOM     23  C   UNL     1       0.074  -4.768   1.145  0.00  0.00    +0.059 A 
ATOM     24  C   UNL     1       0.071  -4.104   2.356  0.00  0.00    +0.094 A 
ATOM     25  C   UNL     1       0.051  -2.704   2.361  0.00  0.00    +0.259 A 
ATOM     26  O   UNL     1       0.048  -2.088   3.415  0.00  0.00    -0.267 OA
ATOM     27  N   UNL     1       0.037  -2.046   1.182  0.00  0.00    -0.268 N 
ATOM     28  C   UNL     1       0.022  -0.685   1.170  0.00  0.00    +0.099 A 
ENDBRANCH  16  23
ENDBRANCH   1  16
TORSDOF 5
