REMARK  Name = ZINC02654588
REMARK  2 active torsions:
REMARK  status: ('A' for Active; 'I' for Inactive)
REMARK    1  A    between atoms: C_6  and  S_7
REMARK    2  A    between atoms: S_7  and  N_10
REMARK                            x       y       z     vdW  Elec       q    Type
REMARK                         _______ _______ _______ _____ _____    ______ ____
ROOT
ATOM      1  C   UNL     1      -0.017   1.383   0.010  0.00  0.00    +0.030 A 
ATOM      2  C   UNL     1       1.180   2.076   0.002  0.00  0.00    +0.019 A 
ATOM      3  C   UNL     1       2.364   1.384  -0.013  0.00  0.00    +0.041 A 
ATOM      4  C   UNL     1       2.422  -0.029  -0.021  0.00  0.00    +0.082 A 
ATOM      5  C   UNL     1       1.181  -0.704  -0.013  0.00  0.00    +0.058 A 
ATOM      6  C   UNL     1       0.002  -0.004   0.002  0.00  0.00    +0.115 A 
ATOM      7  N   UNL     1       3.663  -0.564  -0.037  0.00  0.00    -0.225 NA
ATOM      8  C   UNL     1       4.749   0.175  -0.044  0.00  0.00    +0.157 A 
ATOM      9  S   UNL     1       4.083   1.833  -0.028  0.00  0.00    -0.053 S 
ATOM     10  N   UNL     1       6.069  -0.228  -0.059  0.00  0.00    -0.337 N 
ATOM     11  H   UNL     1       6.288  -1.172  -0.066  0.00  0.00    +0.144 HD
ATOM     12  H   UNL     1       6.778   0.435  -0.062  0.00  0.00    +0.144 HD
ENDROOT
BRANCH   6  13
ATOM     13  S   UNL     1      -1.523  -0.886   0.012  0.00  0.00    +0.100 S 
ATOM     14  O   UNL     1      -1.246  -2.170   0.554  0.00  0.00    -0.146 OA
ATOM     15  O   UNL     1      -2.493  -0.014   0.578  0.00  0.00    -0.146 OA
BRANCH  13  16
ATOM     16  N   UNL     1      -1.963  -1.123  -1.567  0.00  0.00    -0.118 NA
ATOM     17  C   UNL     1      -3.058  -1.752  -1.846  0.00  0.00    +0.117 C 
ATOM     18  N   UNL     1      -3.894  -2.240  -0.830  0.00  0.00    -0.331 N 
ATOM     19  C   UNL     1      -5.172  -1.610  -0.675  0.00  0.00    +0.102 C 
ATOM     20  C   UNL     1      -6.316  -2.198  -1.518  0.00  0.00    +0.019 C 
ATOM     21  C   UNL     1      -5.819  -2.530  -2.948  0.00  0.00    +0.002 C 
ATOM     22  C   UNL     1      -4.890  -1.487  -3.503  0.00  0.00    +0.008 C 
ATOM     23  C   UNL     1      -3.466  -1.973  -3.217  0.00  0.00    +0.073 C 
ATOM     24  H   UNL     1      -3.618  -2.972  -0.256  0.00  0.00    +0.147 HD
ENDBRANCH  13  16
ENDBRANCH   6  13
TORSDOF 2
