REMARK  Name = ZINC40316016
REMARK  12 active torsions:
REMARK  status: ('A' for Active; 'I' for Inactive)
REMARK    1  A    between atoms: C_1  and  C_2
REMARK    2  A    between atoms: C_2  and  C_3
REMARK    3  A    between atoms: C_2  and  C_4
REMARK    4  A    between atoms: C_7  and  O_10
REMARK    5  A    between atoms: O_10  and  C_11
REMARK    6  A    between atoms: C_11  and  C_12
REMARK    7  A    between atoms: C_12  and  C_14
REMARK    8  A    between atoms: C_12  and  O_31
REMARK    9  A    between atoms: C_14  and  N_15
REMARK   10  A    between atoms: N_15  and  C_16
REMARK   11  A    between atoms: N_15  and  C_23
REMARK   12  A    between atoms: C_16  and  C_17
REMARK                            x       y       z     vdW  Elec       q    Type
REMARK                         _______ _______ _______ _____ _____    ______ ____
ROOT
ATOM      1  N   UNL     1      -8.754  -4.934  -1.631  0.00  0.00    +0.389 N 
ATOM      2  H   UNL     1      -8.787  -5.588  -0.863  0.00  0.00    -0.081 HD
ENDROOT
BRANCH   1   3
ATOM      3  C   UNL     1      -9.778  -3.899  -1.438  0.00  0.00    -0.045 C 
ATOM      4  C   UNL     1     -11.048  -4.529  -0.842  0.00  0.00    +0.009 C 
ATOM      5  C   UNL     1     -12.226  -3.530  -0.933  0.00  0.00    +0.164 C 
ATOM      6  S   UNL     1     -11.783  -2.516  -2.402  0.00  0.00    -0.033 S 
ATOM      7  O   UNL     1     -11.585  -1.170  -1.993  0.00  0.00    -0.174 OA
ATOM      8  O   UNL     1     -12.697  -2.801  -3.453  0.00  0.00    -0.174 OA
ATOM      9  C   UNL     1     -10.149  -3.265  -2.809  0.00  0.00    +0.151 C 
ENDBRANCH   1   3
BRANCH   1  10
ATOM     10  C   UNL     1      -7.426  -4.306  -1.683  0.00  0.00    -0.043 C 
BRANCH  10  11
ATOM     11  C   UNL     1      -7.039  -3.817  -0.286  0.00  0.00    +0.135 C 
BRANCH  11  12
ATOM     12  O   UNL     1      -7.887  -2.731   0.091  0.00  0.00    -0.390 OA
ATOM     13  H   UNL     1      -7.891  -1.998  -0.540  0.00  0.00    +0.210 HD
ENDBRANCH  11  12
BRANCH  11  14
ATOM     14  C   UNL     1      -5.582  -3.348  -0.296  0.00  0.00    +0.258 C 
BRANCH  14  15
ATOM     15  O   UNL     1      -5.185  -3.001   1.032  0.00  0.00    -0.489 OA
BRANCH  15  19
ATOM     16  C   UNL     1      -1.314  -1.667   1.539  0.00  0.00    -0.045 A 
ATOM     17  C   UNL     1      -2.160  -1.760   2.628  0.00  0.00    +0.007 A 
ATOM     18  C   UNL     1      -3.457  -2.207   2.461  0.00  0.00    +0.046 A 
ATOM     19  C   UNL     1      -3.910  -2.561   1.199  0.00  0.00    +0.121 A 
ATOM     20  C   UNL     1      -3.059  -2.466   0.107  0.00  0.00    +0.046 A 
ATOM     21  C   UNL     1      -1.765  -2.014   0.279  0.00  0.00    +0.007 A 
BRANCH  16  23
ATOM     22  C   UNL     1       0.081   0.234   2.307  0.00  0.00    +0.012 C 
ATOM     23  C   UNL     1       0.100  -1.180   1.724  0.00  0.00    +0.013 C 
ATOM     24  C   UNL     1       0.840  -2.116   2.682  0.00  0.00    +0.012 C 
ENDBRANCH  16  23
ENDBRANCH  15  19
ENDBRANCH  14  15
ENDBRANCH  11  14
ENDBRANCH  10  11
ENDBRANCH   1  10
BRANCH   1  25
ATOM     25  C   UNL     1      -9.008  -5.646  -2.890  0.00  0.00    -0.003 C 
BRANCH  25  26
ATOM     26  C   UNL     1     -10.312  -6.396  -2.789  0.00  0.00    +0.090 A 
ATOM     27  C   UNL     1     -11.474  -6.032  -3.359  0.00  0.00    +0.044 A 
ATOM     28  C   UNL     1     -12.428  -7.015  -3.007  0.00  0.00    +0.057 A 
ATOM     29  C   UNL     1     -11.790  -7.921  -2.243  0.00  0.00    +0.170 A 
ATOM     30  O   UNL     1     -10.507  -7.544  -2.119  0.00  0.00    -0.455 OA
ATOM     31 BR   UNL     1     -12.567  -9.467  -1.479  0.00  0.00    -0.008 Br
ENDBRANCH  25  26
ENDBRANCH   1  25
TORSDOF 10
