REMARK  Name = ZINC02952595
REMARK  4 active torsions:
REMARK  status: ('A' for Active; 'I' for Inactive)
REMARK    1  A    between atoms: N_9  and  C_14
REMARK    2  A    between atoms: C_17  and  C_20
REMARK    3  A    between atoms: C_20  and  C_21
REMARK    4  A    between atoms: N_23  and  C_24
REMARK                            x       y       z     vdW  Elec       q    Type
REMARK                         _______ _______ _______ _____ _____    ______ ____
ROOT
ATOM      1  C   UNL     1      -1.247   2.017   0.019  0.00  0.00    +0.054 A 
ATOM      2  C   UNL     1      -2.430   1.300  -0.090  0.00  0.00    +0.027 A 
ATOM      3  C   UNL     1      -3.642   1.963  -0.075  0.00  0.00    +0.006 A 
ATOM      4  C   UNL     1      -3.676   3.341   0.038  0.00  0.00    -0.038 A 
ATOM      5  C   UNL     1      -2.499   4.058   0.140  0.00  0.00    +0.006 A 
ATOM      6  C   UNL     1      -1.284   3.400   0.131  0.00  0.00    +0.027 A 
ENDROOT
BRANCH   1  15
ATOM      7  C   UNL     1       3.825  -0.490  -2.248  0.00  0.00    +0.001 A 
ATOM      8  C   UNL     1       4.334  -0.894  -1.023  0.00  0.00    +0.002 A 
ATOM      9  C   UNL     1       3.641  -0.643   0.144  0.00  0.00    +0.026 A 
ATOM     10  C   UNL     1       2.424   0.019   0.093  0.00  0.00    +0.056 A 
ATOM     11  C   UNL     1       1.907   0.429  -1.149  0.00  0.00    +0.063 A 
ATOM     12  C   UNL     1       2.617   0.170  -2.319  0.00  0.00    +0.015 A 
ATOM     13  C   UNL     1       0.612   1.131  -1.167  0.00  0.00    +0.269 A 
ATOM     14  O   UNL     1       0.120   1.506  -2.214  0.00  0.00    -0.266 OA
ATOM     15  N   UNL     1      -0.016   1.347   0.009  0.00  0.00    -0.229 N 
ATOM     16  C   UNL     1       0.518   0.936   1.170  0.00  0.00    +0.334 A 
ATOM     17  O   UNL     1      -0.089   1.155   2.200  0.00  0.00    -0.246 OA
ATOM     18  N   UNL     1       1.696   0.292   1.242  0.00  0.00    -0.307 N 
ATOM     19  H   UNL     1       2.051   0.007   2.132  0.00  0.00    +0.170 HD
ENDBRANCH   1  15
BRANCH   4  20
ATOM     20  C   UNL     1      -4.999   4.062   0.048  0.00  0.00    +0.130 C 
BRANCH  20  21
ATOM     21  C   UNL     1      -5.388   4.419  -1.364  0.00  0.00    +0.218 C 
ATOM     22  O   UNL     1      -4.662   4.117  -2.287  0.00  0.00    -0.275 OA
ATOM     23  N   UNL     1      -6.542   5.073  -1.600  0.00  0.00    -0.312 N 
ATOM     24  H   UNL     1      -7.123   5.314  -0.862  0.00  0.00    +0.149 HD
BRANCH  23  25
ATOM     25  C   UNL     1      -6.920   5.420  -2.973  0.00  0.00    +0.073 C 
ATOM     26  C   UNL     1      -6.191   6.717  -3.379  0.00  0.00    +0.022 C 
ATOM     27  C   UNL     1      -6.157   6.796  -4.881  0.00  0.00    +0.002 C 
ATOM     28  C   UNL     1      -7.330   7.614  -5.455  0.00  0.00    +0.000 C 
ATOM     29  C   UNL     1      -8.667   7.319  -4.748  0.00  0.00    +0.000 C 
ATOM     30  C   UNL     1      -8.861   5.852  -4.474  0.00  0.00    +0.002 C 
ATOM     31  C   UNL     1      -8.368   5.551  -3.044  0.00  0.00    +0.022 C 
ENDBRANCH  23  25
ENDBRANCH  20  21
ENDBRANCH   4  20
TORSDOF 4
