REMARK  Name = ZINC21176178
REMARK  9 active torsions:
REMARK  status: ('A' for Active; 'I' for Inactive)
REMARK    1  A    between atoms: C_1  and  C_2
REMARK    2  A    between atoms: C_2  and  C_36
REMARK    3  A    between atoms: C_5  and  C_26
REMARK    4  A    between atoms: C_9  and  C_20
REMARK    5  A    between atoms: N_12  and  C_19
REMARK    6  A    between atoms: N_15  and  C_18
REMARK    7  A    between atoms: C_30  and  C_33
REMARK    8  A    between atoms: C_31  and  O_32
REMARK    9  A    between atoms: C_33  and  C_34
REMARK                            x       y       z     vdW  Elec       q    Type
REMARK                         _______ _______ _______ _____ _____    ______ ____
ROOT
ATOM      1  C   UNL     1      -3.588   2.288  -2.151  0.00  0.00    +0.036 C 
ATOM      2  C   UNL     1      -2.308   2.495  -1.339  0.00  0.00    +0.064 C 
ATOM      3  C   UNL     1      -2.275   1.508  -0.166  0.00  0.00    +0.189 C 
ATOM      4  O   UNL     1      -0.976   1.516   0.433  0.00  0.00    -0.363 OA
ATOM      5  C   UNL     1       0.042   0.910  -0.374  0.00  0.00    +0.200 C 
ATOM      6  C   UNL     1      -0.042   1.512  -1.760  0.00  0.00    +0.078 A 
ATOM      7  N   UNL     1      -1.136   2.242  -2.188  0.00  0.00    -0.331 N 
ATOM      8  C   UNL     1      -0.949   2.666  -3.469  0.00  0.00    +0.064 A 
ATOM      9  C   UNL     1       0.275   2.207  -3.882  0.00  0.00    +0.089 A 
ATOM     10  C   UNL     1       0.849   1.452  -2.740  0.00  0.00    +0.083 A 
ATOM     11  N   UNL     1       2.114   0.864  -2.884  0.00  0.00    -0.294 N 
ATOM     12  C   UNL     1       2.739   1.025  -4.072  0.00  0.00    +0.332 A 
ATOM     13  O   UNL     1       3.836   0.515  -4.197  0.00  0.00    -0.246 OA
ATOM     14  N   UNL     1       2.254   1.698  -5.120  0.00  0.00    -0.263 N 
ATOM     15  C   UNL     1       1.045   2.317  -5.126  0.00  0.00    +0.266 A 
ATOM     16  O   UNL     1       0.630   2.922  -6.096  0.00  0.00    -0.267 OA
ATOM     17  C   UNL     1       3.073   1.771  -6.332  0.00  0.00    +0.157 C 
ATOM     18  C   UNL     1       2.732   0.106  -1.793  0.00  0.00    +0.154 C 
ATOM     19  C   UNL     1      -2.262   3.929  -0.807  0.00  0.00    +0.036 C 
ENDROOT
BRANCH   8  20
ATOM     20  C   UNL     1      -1.893   3.472  -4.268  0.00  0.00    -0.001 A 
ATOM     21  C   UNL     1      -2.649   2.872  -5.277  0.00  0.00    +0.010 A 
ATOM     22  C   UNL     1      -3.534   3.630  -6.015  0.00  0.00    +0.001 A 
ATOM     23  C   UNL     1      -3.664   4.985  -5.766  0.00  0.00    +0.000 A 
ATOM     24  C   UNL     1      -2.914   5.587  -4.771  0.00  0.00    +0.001 A 
ATOM     25  C   UNL     1      -2.030   4.840  -4.021  0.00  0.00    +0.010 A 
ENDBRANCH   8  20
BRANCH   5  26
ATOM     26  C   UNL     1       1.398   1.189   0.222  0.00  0.00    +0.029 A 
ATOM     27  C   UNL     1       2.044   2.378  -0.056  0.00  0.00    +0.010 A 
ATOM     28  C   UNL     1       3.287   2.635   0.491  0.00  0.00    +0.001 A 
ATOM     29  C   UNL     1       3.888   1.702   1.316  0.00  0.00    +0.007 A 
ATOM     30  C   UNL     1       3.247   0.511   1.596  0.00  0.00    -0.002 A 
ATOM     31  C   UNL     1       1.996   0.254   1.053  0.00  0.00    +0.126 A 
BRANCH  31  32
ATOM     32  O   UNL     1       1.361  -0.915   1.332  0.00  0.00    -0.506 OA
ATOM     33  H   UNL     1       1.836  -1.656   1.991  0.00  0.00    +0.292 HD
ENDBRANCH  31  32
BRANCH  30  34
ATOM     34  C   UNL     1       3.903  -0.506   2.494  0.00  0.00    +0.065 C 
BRANCH  34  35
ATOM     35  C   UNL     1       4.637  -1.519   1.655  0.00  0.00    -0.030 C 
ATOM     36  C   UNL     1       5.923  -1.702   1.824  0.00  0.00    +0.004 C 
ENDBRANCH  34  35
ENDBRANCH  30  34
ENDBRANCH   5  26
TORSDOF 5
