REMARK  Name = ZINC36358998
REMARK  5 active torsions:
REMARK  status: ('A' for Active; 'I' for Inactive)
REMARK    1  A    between atoms: C_1  and  O_2
REMARK    2  A    between atoms: O_2  and  C_3
REMARK    3  A    between atoms: C_8  and  C_9
REMARK    4  A    between atoms: C_9  and  C_10
REMARK    5  A    between atoms: C_10  and  N_11
REMARK                            x       y       z     vdW  Elec       q    Type
REMARK                         _______ _______ _______ _____ _____    ______ ____
ROOT
ATOM      1  N   UNL     1      -2.056  -3.731   0.815  0.00  0.00    -0.265 N 
ATOM      2  C   UNL     1      -2.070  -5.080   0.819  0.00  0.00    +0.251 C 
ATOM      3  O   UNL     1      -1.707  -5.700  -0.163  0.00  0.00    -0.270 OA
ATOM      4  C   UNL     1      -2.529  -5.795   2.023  0.00  0.00    +0.058 A 
ATOM      5  C   UNL     1      -2.736  -7.173   2.016  0.00  0.00    +0.015 A 
ATOM      6  C   UNL     1      -3.174  -7.800   3.163  0.00  0.00    +0.001 A 
ATOM      7  C   UNL     1      -3.410  -7.071   4.319  0.00  0.00    +0.002 A 
ATOM      8  C   UNL     1      -3.205  -5.705   4.340  0.00  0.00    +0.024 A 
ATOM      9  C   UNL     1      -2.761  -5.060   3.198  0.00  0.00    +0.041 A 
ATOM     10  N   UNL     1      -2.518  -3.690   3.181  0.00  0.00    -0.312 N 
ATOM     11  C   UNL     1      -2.637  -2.969   1.916  0.00  0.00    +0.208 C 
ATOM     12  C   UNL     1      -4.069  -2.633   1.635  0.00  0.00    +0.024 A 
ATOM     13  C   UNL     1      -5.174  -3.434   1.442  0.00  0.00    +0.010 A 
ATOM     14  C   UNL     1      -6.383  -2.792   1.195  0.00  0.00    +0.001 A 
ATOM     15  C   UNL     1      -6.470  -1.416   1.147  0.00  0.00    +0.002 A 
ATOM     16  C   UNL     1      -5.364  -0.604   1.342  0.00  0.00    +0.024 A 
ATOM     17  C   UNL     1      -4.144  -1.235   1.591  0.00  0.00    +0.041 A 
ATOM     18  N   UNL     1      -2.898  -0.679   1.822  0.00  0.00    -0.282 N 
ATOM     19  C   UNL     1      -1.954  -1.621   2.027  0.00  0.00    +0.264 C 
ATOM     20  O   UNL     1      -0.779  -1.426   2.255  0.00  0.00    -0.271 OA
ATOM     21  H   UNL     1      -2.270  -3.222   3.994  0.00  0.00    +0.149 HD
ATOM     22  H   UNL     1      -2.724   0.275   1.836  0.00  0.00    +0.155 HD
ENDROOT
BRANCH   1  23
ATOM     23  C   UNL     1      -1.442  -3.020  -0.309  0.00  0.00    +0.116 C 
BRANCH  23  24
ATOM     24  C   UNL     1      -2.498  -2.755  -1.384  0.00  0.00    +0.058 C 
BRANCH  24  30
ATOM     25  C   UNL     1      -1.258  -2.943  -3.555  0.00  0.00    +0.123 A 
ATOM     26  C   UNL     1      -0.660  -2.369  -4.668  0.00  0.00    +0.046 A 
ATOM     27  C   UNL     1      -0.644  -0.996  -4.811  0.00  0.00    +0.004 A 
ATOM     28  C   UNL     1      -1.224  -0.192  -3.846  0.00  0.00    +0.000 A 
ATOM     29  C   UNL     1      -1.820  -0.761  -2.736  0.00  0.00    +0.007 A 
ATOM     30  C   UNL     1      -1.843  -2.135  -2.591  0.00  0.00    -0.004 A 
BRANCH  25  32
ATOM     31  C   UNL     1      -0.653  -5.064  -4.443  0.00  0.00    +0.277 C 
ATOM     32  O   UNL     1      -1.275  -4.295  -3.412  0.00  0.00    -0.495 OA
ENDBRANCH  25  32
ENDBRANCH  24  30
ENDBRANCH  23  24
ENDBRANCH   1  23
TORSDOF 4
