REMARK  Name = ZINC63886895
REMARK  13 active torsions:
REMARK  status: ('A' for Active; 'I' for Inactive)
REMARK    1  A    between atoms: C_1  and  N_2
REMARK    2  A    between atoms: N_2  and  C_3
REMARK    3  A    between atoms: N_2  and  C_4
REMARK    4  A    between atoms: C_7  and  C_10
REMARK    5  A    between atoms: C_10  and  C_12
REMARK    6  A    between atoms: C_10  and  C_29
REMARK    7  A    between atoms: C_12  and  N_13
REMARK    8  A    between atoms: C_14  and  C_16
REMARK    9  A    between atoms: C_16  and  N_17
REMARK   10  A    between atoms: N_17  and  S_18
REMARK   11  A    between atoms: S_18  and  C_21
REMARK   12  A    between atoms: C_24  and  O_27
REMARK   13  A    between atoms: O_27  and  C_28
REMARK                            x       y       z     vdW  Elec       q    Type
REMARK                         _______ _______ _______ _____ _____    ______ ____
ROOT
ATOM      1  C   UNL     1      -4.870  -2.906   0.033  0.00  0.00    +0.064 C 
ENDROOT
BRANCH   1   2
ATOM      2  C   UNL     1      -5.673  -2.551  -1.191  0.00  0.00    -0.033 C 
ATOM      3  C   UNL     1      -6.091  -3.394  -2.163  0.00  0.00    -0.000 A 
ATOM      4  C   UNL     1      -5.926  -4.839  -2.364  0.00  0.00    +0.010 A 
ATOM      5  C   UNL     1      -6.470  -5.415  -3.460  0.00  0.00    +0.001 A 
ATOM      6  C   UNL     1      -7.184  -4.668  -4.407  0.00  0.00    +0.002 A 
ATOM      7  C   UNL     1      -7.377  -3.337  -4.292  0.00  0.00    +0.026 A 
ATOM      8  C   UNL     1      -6.849  -2.628  -3.178  0.00  0.00    +0.043 A 
ATOM      9  N   UNL     1      -6.899  -1.361  -2.846  0.00  0.00    -0.380 N 
ATOM     10  C   UNL     1      -6.182  -1.180  -1.579  0.00  0.00    +0.145 C 
ATOM     11  H   UNL     1      -7.340  -0.661  -3.352  0.00  0.00    +0.160 HD
ENDBRANCH   1   2
BRANCH   1  15
ATOM     12  C   UNL     1      -1.198  -0.719   0.010  0.00  0.00    +0.029 A 
ATOM     13  C   UNL     1      -1.181  -2.108   0.008  0.00  0.00    +0.023 A 
ATOM     14  C   UNL     1      -2.369  -2.812   0.016  0.00  0.00    +0.006 A 
ATOM     15  C   UNL     1      -3.575  -2.135   0.025  0.00  0.00    -0.039 A 
ATOM     16  C   UNL     1      -3.596  -0.752   0.027  0.00  0.00    +0.006 A 
ATOM     17  C   UNL     1      -2.411  -0.042   0.025  0.00  0.00    +0.023 A 
BRANCH  12  19
ATOM     18  C   UNL     1      -0.018   1.461   0.010  0.00  0.00    +0.129 C 
ATOM     19  N   UNL     1       0.002  -0.004   0.002  0.00  0.00    -0.336 N 
ATOM     20  C   UNL     1       1.281  -0.719  -0.014  0.00  0.00    +0.129 C 
ENDBRANCH  12  19
ENDBRANCH   1  15
BRANCH   1  21
ATOM     21  C   UNL     1      -5.668  -2.549   1.288  0.00  0.00    +0.116 C 
BRANCH  21  22
ATOM     22  N   UNL     1      -6.869  -3.385   1.357  0.00  0.00    -0.313 N 
ATOM     23  C   UNL     1      -7.730  -3.246   2.385  0.00  0.00    +0.229 C 
ATOM     24  O   UNL     1      -7.510  -2.428   3.253  0.00  0.00    -0.274 OA
ATOM     25  H   UNL     1      -7.045  -4.039   0.663  0.00  0.00    +0.149 HD
BRANCH  23  26
ATOM     26  C   UNL     1      -8.965  -4.106   2.456  0.00  0.00    +0.201 C 
BRANCH  26  27
ATOM     27  N   UNL     1      -9.730  -3.764   3.658  0.00  0.00    -0.181 NA
ATOM     28  H   UNL     1      -9.317  -3.243   4.363  0.00  0.00    +0.149 HD
BRANCH  27  29
ATOM     29  S   UNL     1     -11.300  -4.269   3.812  0.00  0.00    +0.059 S 
ATOM     30  O   UNL     1     -11.752  -3.809   5.078  0.00  0.00    -0.153 OA
ATOM     31  O   UNL     1     -11.957  -3.928   2.599  0.00  0.00    -0.153 OA
BRANCH  29  32
ATOM     32  C   UNL     1     -11.276  -6.029   3.894  0.00  0.00    +0.105 A 
ATOM     33  C   UNL     1     -11.359  -6.775   2.733  0.00  0.00    +0.032 A 
ATOM     34  C   UNL     1     -11.341  -8.155   2.794  0.00  0.00    +0.047 A 
ATOM     35  C   UNL     1     -11.238  -8.792   4.022  0.00  0.00    +0.120 A 
ATOM     36  C   UNL     1     -11.154  -8.041   5.186  0.00  0.00    +0.047 A 
ATOM     37  C   UNL     1     -11.168  -6.661   5.119  0.00  0.00    +0.032 A 
BRANCH  35  38
ATOM     38  O   UNL     1     -11.221 -10.149   4.086  0.00  0.00    -0.495 OA
ATOM     39  C   UNL     1     -11.113 -10.737   5.384  0.00  0.00    +0.277 C 
ENDBRANCH  35  38
ENDBRANCH  29  32
ENDBRANCH  27  29
ENDBRANCH  26  27
ENDBRANCH  23  26
ENDBRANCH  21  22
ENDBRANCH   1  21
TORSDOF 10
