REMARK  Name = ZINC20814983
REMARK  10 active torsions:
REMARK  status: ('A' for Active; 'I' for Inactive)
REMARK    1  A    between atoms: C_1  and  C_2
REMARK    2  A    between atoms: C_2  and  N_3
REMARK    3  A    between atoms: N_3  and  C_4
REMARK    4  A    between atoms: N_3  and  C_11
REMARK    5  A    between atoms: C_4  and  C_5
REMARK    6  A    between atoms: C_11  and  C_12
REMARK    7  A    between atoms: C_18  and  C_27
REMARK    8  A    between atoms: C_19  and  C_23
REMARK    9  A    between atoms: C_23  and  O_25
REMARK   10  A    between atoms: O_25  and  C_26
REMARK                            x       y       z     vdW  Elec       q    Type
REMARK                         _______ _______ _______ _____ _____    ______ ____
ROOT
ATOM      1  C   UNL     1       3.728   3.195   1.013  0.00  0.00    +0.094 A 
ATOM      2  N   UNL     1       4.345   2.069   1.449  0.00  0.00    -0.312 N 
ATOM      3  H   UNL     1       5.440   2.043   1.546  0.00  0.00    +0.170 HD
ATOM      4  C   UNL     1       3.642   0.965   1.772  0.00  0.00    +0.260 A 
ATOM      5  O   UNL     1       4.205  -0.042   2.163  0.00  0.00    -0.267 OA
ATOM      6  C   UNL     1       2.168   1.008   1.640  0.00  0.00    +0.076 A 
ATOM      7  C   UNL     1       1.228   0.011   1.908  0.00  0.00    -0.015 A 
ATOM      8  C   UNL     1      -0.100   0.260   1.716  0.00  0.00    +0.102 A 
ATOM      9  S   UNL     1      -0.105   1.948   1.136  0.00  0.00    -0.062 S 
ATOM     10  C   UNL     1       1.646   2.238   1.176  0.00  0.00    +0.116 A 
ATOM     11  N   UNL     1       2.431   3.266   0.884  0.00  0.00    -0.229 NA
ATOM     12  C   UNL     1       1.679  -1.337   2.407  0.00  0.00    +0.046 C 
ENDROOT
BRANCH   8  13
ATOM     13  C   UNL     1      -1.239  -0.635   1.933  0.00  0.00    +0.346 C 
ATOM     14  O   UNL     1      -1.054  -1.768   2.336  0.00  0.00    -0.244 OA
BRANCH  13  15
ATOM     15  O   UNL     1      -2.493  -0.204   1.685  0.00  0.00    -0.464 OA
ATOM     16  C   UNL     1      -3.572  -1.145   1.922  0.00  0.00    +0.280 C 
ENDBRANCH  13  15
ENDBRANCH   8  13
BRANCH   1  17
ATOM     17  C   UNL     1       4.566   4.399   0.666  0.00  0.00    -0.003 C 
BRANCH  17  18
ATOM     18  N   UNL     1       3.691   5.491   0.220  0.00  0.00    +0.387 N 
ATOM     19  H   UNL     1       2.912   5.633   0.984  0.00  0.00    -0.081 HD
BRANCH  18  21
ATOM     20  C   UNL     1       4.081   4.902  -2.124  0.00  0.00    -0.017 C 
ATOM     21  C   UNL     1       3.026   5.151  -1.045  0.00  0.00    -0.081 C 
ENDBRANCH  18  21
BRANCH  18  22
ATOM     22  C   UNL     1       4.439   6.750   0.100  0.00  0.00    -0.035 C 
BRANCH  22  23
ATOM     23  C   UNL     1       3.473   7.902   0.009  0.00  0.00    -0.026 A 
ATOM     24  C   UNL     1       2.862   8.585   1.008  0.00  0.00    +0.010 A 
ATOM     25  C   UNL     1       2.004   9.620   0.686  0.00  0.00    +0.023 A 
ATOM     26  C   UNL     1       1.798   9.921  -0.621  0.00  0.00    +0.055 A 
ATOM     27  S   UNL     1       2.842   8.728  -1.443  0.00  0.00    -0.088 S 
ATOM     28 BR   UNL     1       0.698  11.261  -1.375  0.00  0.00    -0.043 Br
ENDBRANCH  22  23
ENDBRANCH  18  22
ENDBRANCH  17  18
ENDBRANCH   1  17
TORSDOF 7
