REMARK  Name = ZINC16866212
REMARK  12 active torsions:
REMARK  status: ('A' for Active; 'I' for Inactive)
REMARK    1  A    between atoms: C_1  and  C_2
REMARK    2  A    between atoms: C_2  and  C_4
REMARK    3  A    between atoms: C_2  and  S_15
REMARK    4  A    between atoms: N_6  and  C_7
REMARK    5  A    between atoms: S_15  and  C_16
REMARK    6  A    between atoms: C_19  and  C_24
REMARK    7  A    between atoms: N_20  and  C_21
REMARK    8  A    between atoms: C_21  and  C_22
REMARK    9  A    between atoms: C_27  and  C_30
REMARK   10  A    between atoms: C_30  and  C_31
REMARK   11  A    between atoms: C_30  and  C_32
REMARK   12  A    between atoms: C_30  and  C_33
REMARK                            x       y       z     vdW  Elec       q    Type
REMARK                         _______ _______ _______ _____ _____    ______ ____
ROOT
ATOM      1  C   UNL     1      -0.480  -0.632  -1.923  0.00  0.00    +0.193 A 
ATOM      2  N   UNL     1       0.003   0.370  -2.622  0.00  0.00    -0.122 NA
ATOM      3  N   UNL     1       0.569  -0.068  -3.689  0.00  0.00    -0.128 NA
ATOM      4  C   UNL     1       0.483  -1.377  -3.736  0.00  0.00    +0.165 A 
ATOM      5  N   UNL     1      -0.186  -1.779  -2.603  0.00  0.00    -0.298 N 
ENDROOT
BRANCH   4   6
ATOM      6  C   UNL     1       1.012  -2.255  -4.802  0.00  0.00    +0.019 A 
ATOM      7  C   UNL     1       0.545  -3.564  -4.928  0.00  0.00    +0.012 A 
ATOM      8  C   UNL     1       1.039  -4.375  -5.929  0.00  0.00    +0.005 A 
ATOM      9  C   UNL     1       2.002  -3.898  -6.799  0.00  0.00    -0.042 A 
ATOM     10  C   UNL     1       2.474  -2.603  -6.676  0.00  0.00    +0.005 A 
ATOM     11  C   UNL     1       1.985  -1.779  -5.683  0.00  0.00    +0.012 A 
BRANCH   9  12
ATOM     12  C   UNL     1       2.541  -4.792  -7.886  0.00  0.00    -0.013 C 
ATOM     13  C   UNL     1       4.051  -4.962  -7.705  0.00  0.00    +0.015 C 
ATOM     14  C   UNL     1       1.861  -6.160  -7.805  0.00  0.00    +0.015 C 
ATOM     15  C   UNL     1       2.259  -4.162  -9.252  0.00  0.00    +0.015 C 
ENDBRANCH   9  12
ENDBRANCH   4   6
BRANCH   1  16
ATOM     16  S   UNL     1      -1.339  -0.519  -0.388  0.00  0.00    -0.073 S 
BRANCH  16  18
ATOM     17  C   UNL     1       0.121   1.751   0.035  0.00  0.00    +0.029 C 
ATOM     18  C   UNL     1      -1.321   1.275  -0.150  0.00  0.00    +0.137 C 
BRANCH  18  19
ATOM     19  C   UNL     1      -2.127   1.628   1.074  0.00  0.00    +0.230 C 
ATOM     20  O   UNL     1      -2.277   0.810   1.957  0.00  0.00    -0.274 OA
ATOM     21  N   UNL     1      -2.681   2.851   1.186  0.00  0.00    -0.280 N 
ATOM     22  H   UNL     1      -2.583   3.496   0.468  0.00  0.00    +0.155 HD
BRANCH  21  23
ATOM     23  C   UNL     1      -3.399   3.191   2.341  0.00  0.00    +0.105 A 
ATOM     24  C   UNL     1      -4.534   3.988   2.246  0.00  0.00    +0.147 A 
ATOM     25  C   UNL     1      -5.244   4.317   3.387  0.00  0.00    +0.040 A 
ATOM     26  C   UNL     1      -4.819   3.864   4.622  0.00  0.00    +0.006 A 
ATOM     27  C   UNL     1      -3.687   3.076   4.721  0.00  0.00    +0.040 A 
ATOM     28  C   UNL     1      -2.975   2.738   3.584  0.00  0.00    +0.147 A 
ATOM     29  F   UNL     1      -1.869   1.968   3.682  0.00  0.00    -0.203 F 
ATOM     30  F   UNL     1      -4.947   4.436   1.040  0.00  0.00    -0.203 F 
ENDBRANCH  21  23
ENDBRANCH  18  19
ENDBRANCH  16  18
ENDBRANCH   1  16
BRANCH   5  31
ATOM     31  C   UNL     1      -0.517  -3.151  -2.211  0.00  0.00    +0.152 C 
BRANCH  31  32
ATOM     32  C   UNL     1      -1.928  -3.469  -2.635  0.00  0.00    -0.013 C 
ATOM     33  C   UNL     1      -2.173  -4.544  -3.341  0.00  0.00    +0.005 C 
ENDBRANCH  31  32
ENDBRANCH   5  31
TORSDOF 8
