REMARK  Name = ZINC06301813
REMARK  6 active torsions:
REMARK  status: ('A' for Active; 'I' for Inactive)
REMARK    1  A    between atoms: C_1  and  C_2
REMARK    2  A    between atoms: C_4  and  C_35
REMARK    3  A    between atoms: C_7  and  C_14
REMARK    4  A    between atoms: C_14  and  C_16
REMARK    5  A    between atoms: C_14  and  N_64
REMARK    6  A    between atoms: N_20  and  C_21
REMARK                            x       y       z     vdW  Elec       q    Type
REMARK                         _______ _______ _______ _____ _____    ______ ____
ROOT
ATOM      1  C   UNL     1       3.510   0.737  -0.027  0.00  0.00    +0.039 C 
ENDROOT
BRANCH   1   8
ATOM      2  C   UNL     1       5.315   1.566  -7.752  0.00  0.00    +0.044 C 
ATOM      3  C   UNL     1       5.067   1.196  -6.312  0.00  0.00    -0.048 A 
ATOM      4  C   UNL     1       5.452  -0.054  -5.848  0.00  0.00    +0.007 A 
ATOM      5  C   UNL     1       5.237  -0.410  -4.547  0.00  0.00    -0.041 A 
ATOM      6  C   UNL     1       4.623   0.495  -3.674  0.00  0.00    +0.002 A 
ATOM      7  C   UNL     1       4.377   0.146  -2.273  0.00  0.00    +0.018 A 
ATOM      8  C   UNL     1       3.778   1.063  -1.474  0.00  0.00    +0.011 A 
ATOM      9  C   UNL     1       3.400   2.320  -1.993  0.00  0.00    +0.251 A 
ATOM     10  O   UNL     1       2.858   3.128  -1.258  0.00  0.00    -0.268 OA
ATOM     11  N   UNL     1       3.627   2.651  -3.276  0.00  0.00    -0.322 N 
ATOM     12  H   UNL     1       3.357   3.525  -3.599  0.00  0.00    +0.169 HD
ATOM     13  C   UNL     1       4.232   1.764  -4.141  0.00  0.00    +0.050 A 
ATOM     14  C   UNL     1       4.462   2.103  -5.470  0.00  0.00    +0.029 A 
ATOM     15  C   UNL     1       5.659  -1.770  -4.054  0.00  0.00    +0.044 C 
ENDBRANCH   1   8
BRANCH   1  25
ATOM     16  C   UNL     1       5.545   1.870   0.641  0.00  0.00    -0.072 C 
ATOM     17  C   UNL     1       6.035   3.183   1.252  0.00  0.00    +0.017 C 
ATOM     18  C   UNL     1       5.505   3.326   2.656  0.00  0.00    -0.048 A 
ATOM     19  C   UNL     1       6.105   4.251   3.498  0.00  0.00    +0.004 A 
ATOM     20  C   UNL     1       5.645   4.420   4.788  0.00  0.00    +0.000 A 
ATOM     21  C   UNL     1       4.582   3.663   5.244  0.00  0.00    +0.000 A 
ATOM     22  C   UNL     1       3.986   2.741   4.408  0.00  0.00    +0.002 A 
ATOM     23  C   UNL     1       4.448   2.569   3.111  0.00  0.00    -0.061 A 
ATOM     24  C   UNL     1       3.768   1.547   2.238  0.00  0.00    -0.041 C 
ATOM     25  N   UNL     1       4.081   1.807   0.822  0.00  0.00    +0.392 N 
ATOM     26  H   UNL     1       3.670   2.706   0.547  0.00  0.00    -0.080 HD
ENDBRANCH   1  25
BRANCH   1  27
ATOM     27  C   UNL     1       2.023   0.664   0.204  0.00  0.00    +0.143 A 
ATOM     28  N   UNL     1       1.201   1.677   0.337  0.00  0.00    -0.115 NA
ATOM     29  N   UNL     1       0.016   1.206   0.520  0.00  0.00    -0.023 NA
ATOM     30  N   UNL     1       0.060  -0.081   0.508  0.00  0.00    -0.044 NA
ATOM     31  N   UNL     1       1.280  -0.453   0.316  0.00  0.00    -0.227 N 
BRANCH  31  32
ATOM     32  C   UNL     1       1.767  -1.833   0.234  0.00  0.00    +0.111 C 
ATOM     33  C   UNL     1       1.036  -2.584  -0.898  0.00  0.00    +0.027 C 
ATOM     34  C   UNL     1       0.846  -4.017  -0.340  0.00  0.00    +0.002 C 
ATOM     35  C   UNL     1       0.532  -3.764   1.156  0.00  0.00    +0.002 C 
ATOM     36  C   UNL     1       1.447  -2.583   1.539  0.00  0.00    +0.027 C 
ENDBRANCH  31  32
ENDBRANCH   1  27
TORSDOF 4
