REMARK  Name = ZINC62527915
REMARK  5 active torsions:
REMARK  status: ('A' for Active; 'I' for Inactive)
REMARK    1  A    between atoms: C_1  and  C_2
REMARK    2  A    between atoms: C_2  and  C_3
REMARK    3  A    between atoms: C_3  and  C_4
REMARK    4  A    between atoms: C_6  and  N_17
REMARK    5  A    between atoms: C_13  and  C_16
REMARK                            x       y       z     vdW  Elec       q    Type
REMARK                         _______ _______ _______ _____ _____    ______ ____
ROOT
ATOM      1  C   UNL     1       0.762  -2.018   1.233  0.00  0.00    -0.044 A 
ATOM      2  C   UNL     1      -0.263  -2.724   1.834  0.00  0.00    +0.030 A 
ATOM      3  C   UNL     1      -0.251  -4.112   1.830  0.00  0.00    +0.069 A 
ATOM      4  C   UNL     1       0.797  -4.791   1.219  0.00  0.00    +0.163 A 
ATOM      5  C   UNL     1       1.827  -4.076   0.617  0.00  0.00    +0.078 A 
ATOM      6  C   UNL     1       1.804  -2.689   0.620  0.00  0.00    +0.030 A 
ATOM      7  N   UNL     1       2.880  -4.772   0.006  0.00  0.00    -0.279 N 
ATOM      8  C   UNL     1       2.727  -6.087  -0.264  0.00  0.00    +0.258 C 
ATOM      9  O   UNL     1       3.635  -6.716  -0.764  0.00  0.00    -0.271 OA
ATOM     10  C   UNL     1       1.421  -6.768   0.058  0.00  0.00    +0.256 C 
ATOM     11  O   UNL     1       0.828  -6.151   1.204  0.00  0.00    -0.476 OA
ATOM     12  C   UNL     1       0.472  -6.642  -1.136  0.00  0.00    +0.062 C 
ATOM     13  H   UNL     1       3.707  -4.317  -0.219  0.00  0.00    +0.155 HD
ENDROOT
BRANCH   3  14
ATOM     14  N   UNL     1      -1.290  -4.826   2.439  0.00  0.00    -0.355 N 
ATOM     15  H   UNL     1      -2.020  -4.351   2.864  0.00  0.00    +0.142 HD
ATOM     16  H   UNL     1      -1.279  -5.796   2.435  0.00  0.00    +0.142 HD
ENDBRANCH   3  14
BRANCH   1  17
ATOM     17  C   UNL     1       0.742  -0.511   1.242  0.00  0.00    +0.035 C 
BRANCH  17  19
ATOM     18  C   UNL     1      -0.019   1.526   0.010  0.00  0.00    +0.004 C 
ATOM     19  C   UNL     1       0.002  -0.004   0.002  0.00  0.00    +0.001 C 
ENDBRANCH  17  19
ENDBRANCH   1  17
TORSDOF 3
