REMARK  Name = ZINC45727540
REMARK  8 active torsions:
REMARK  status: ('A' for Active; 'I' for Inactive)
REMARK    1  A    between atoms: C_1  and  N_2
REMARK    2  A    between atoms: N_2  and  C_3
REMARK    3  A    between atoms: N_2  and  C_16
REMARK    4  A    between atoms: C_3  and  C_4
REMARK    5  A    between atoms: C_9  and  O_14
REMARK    6  A    between atoms: O_14  and  C_15
REMARK    7  A    between atoms: C_16  and  C_17
REMARK    8  A    between atoms: C_30  and  C_32
REMARK                            x       y       z     vdW  Elec       q    Type
REMARK                         _______ _______ _______ _____ _____    ______ ____
ROOT
ATOM      1  C   UNL     1       2.158  -0.072   1.120  0.00  0.00    +0.204 C 
ATOM      2  O   UNL     1       2.558   0.569   0.171  0.00  0.00    -0.277 OA
ATOM      3  N   UNL     1       3.008  -0.409   2.111  0.00  0.00    -0.259 N 
ATOM      4  C   UNL     1       2.561  -1.155   3.211  0.00  0.00    +0.058 A 
ATOM      5  C   UNL     1       1.741  -0.580   4.168  0.00  0.00    +0.025 A 
ATOM      6  C   UNL     1       1.329  -1.324   5.258  0.00  0.00    +0.002 A 
ATOM      7  C   UNL     1       1.734  -2.639   5.398  0.00  0.00    +0.002 A 
ATOM      8  C   UNL     1       2.546  -3.223   4.443  0.00  0.00    +0.025 A 
ATOM      9  C   UNL     1       2.953  -2.487   3.342  0.00  0.00    +0.055 A 
ATOM     10  N   UNL     1       3.728  -3.073   2.334  0.00  0.00    -0.284 N 
ATOM     11  C   UNL     1       4.833  -2.450   1.870  0.00  0.00    +0.219 C 
ATOM     12  O   UNL     1       5.448  -2.927   0.940  0.00  0.00    -0.275 OA
ATOM     13  C   UNL     1       5.306  -1.166   2.498  0.00  0.00    +0.128 C 
ATOM     14  C   UNL     1       4.415  -0.010   2.054  0.00  0.00    +0.194 C 
ATOM     15  H   UNL     1       3.470  -3.933   1.967  0.00  0.00    +0.155 HD
ENDROOT
BRANCH  14  16
ATOM     16  C   UNL     1       4.642   1.186   2.982  0.00  0.00    +0.409 C 
ATOM     17  F   UNL     1       4.310   0.828   4.293  0.00  0.00    -0.169 F 
ATOM     18  F   UNL     1       5.986   1.569   2.929  0.00  0.00    -0.169 F 
ATOM     19  F   UNL     1       3.836   2.253   2.572  0.00  0.00    -0.169 F 
ENDBRANCH  14  16
BRANCH   1  20
ATOM     20  C   UNL     1       0.713  -0.491   1.192  0.00  0.00    +0.019 C 
BRANCH  20  22
ATOM     21  C   UNL     1      -0.018   1.465   0.010  0.00  0.00    -0.095 C 
ATOM     22  N   UNL     1       0.002  -0.004   0.002  0.00  0.00    +0.386 N 
ATOM     23  H   UNL     1       0.474  -0.330  -0.828  0.00  0.00    -0.081 HD
BRANCH  22  24
ATOM     24  C   UNL     1      -1.376  -0.512   0.012  0.00  0.00    -0.043 C 
BRANCH  24  25
ATOM     25  C   UNL     1      -2.067  -0.116  -1.267  0.00  0.00    -0.063 A 
ATOM     26  C   UNL     1      -2.753   1.096  -1.329  0.00  0.00    +0.002 A 
ATOM     27  C   UNL     1      -3.388   1.483  -2.469  0.00  0.00    +0.009 A 
ATOM     28  C   UNL     1      -3.353   0.652  -3.602  0.00  0.00    -0.014 A 
ATOM     29  C   UNL     1      -3.996   1.019  -4.795  0.00  0.00    +0.054 A 
ATOM     30  C   UNL     1      -3.941   0.186  -5.876  0.00  0.00    +0.121 A 
ATOM     31  C   UNL     1      -3.252  -1.029  -5.811  0.00  0.00    +0.046 A 
ATOM     32  C   UNL     1      -2.620  -1.414  -4.670  0.00  0.00    +0.012 A 
ATOM     33  C   UNL     1      -2.655  -0.580  -3.538  0.00  0.00    -0.017 A 
ATOM     34  C   UNL     1      -2.008  -0.944  -2.345  0.00  0.00    +0.010 A 
BRANCH  30  35
ATOM     35  O   UNL     1      -4.564   0.543  -7.030  0.00  0.00    -0.495 OA
ATOM     36  C   UNL     1      -4.471  -0.369  -8.126  0.00  0.00    +0.277 C 
ENDBRANCH  30  35
ENDBRANCH  24  25
ENDBRANCH  22  24
ENDBRANCH  20  22
ENDBRANCH   1  20
TORSDOF 6
