REMARK  Name = ZINC29031764
REMARK  11 active torsions:
REMARK  status: ('A' for Active; 'I' for Inactive)
REMARK    1  A    between atoms: C_1  and  C_2
REMARK    2  A    between atoms: C_2  and  C_4
REMARK    3  A    between atoms: C_2  and  N_15
REMARK    4  A    between atoms: N_6  and  C_7
REMARK    5  A    between atoms: C_12  and  O_13
REMARK    6  A    between atoms: O_13  and  C_14
REMARK    7  A    between atoms: N_18  and  C_21
REMARK    8  A    between atoms: C_21  and  C_23
REMARK    9  A    between atoms: C_21  and  C_30
REMARK   10  A    between atoms: C_30  and  O_32
REMARK   11  A    between atoms: O_32  and  C_33
REMARK                            x       y       z     vdW  Elec       q    Type
REMARK                         _______ _______ _______ _____ _____    ______ ____
ROOT
ATOM      1  N   UNL     1       3.944   1.913  -0.169  0.00  0.00    +0.389 N 
ATOM      2  C   UNL     1       4.054   2.751  -1.370  0.00  0.00    -0.062 C 
ATOM      3  C   UNL     1       5.110   3.834  -1.139  0.00  0.00    +0.067 C 
ATOM      4  N   UNL     1       6.398   3.200  -0.824  0.00  0.00    -0.290 NA
ATOM      5  C   UNL     1       6.288   2.361   0.378  0.00  0.00    +0.067 C 
ATOM      6  C   UNL     1       5.231   1.278   0.146  0.00  0.00    -0.062 C 
ATOM      7  H   UNL     1       3.670   2.563   0.675  0.00  0.00    -0.081 HD
ENDROOT
BRANCH   1   9
ATOM      8  C   UNL     1       3.190   0.028  -1.539  0.00  0.00    -0.004 C 
ATOM      9  C   UNL     1       2.885   0.906  -0.324  0.00  0.00    +0.017 C 
BRANCH   9  10
ATOM     10  C   UNL     1       1.561   1.597  -0.524  0.00  0.00    +0.203 C 
ATOM     11  O   UNL     1       1.505   2.809  -0.536  0.00  0.00    -0.277 OA
ATOM     12  N   UNL     1       0.439   0.869  -0.690  0.00  0.00    -0.284 N 
ATOM     13  H   UNL     1       0.500  -0.226  -0.767  0.00  0.00    +0.155 HD
BRANCH  12  14
ATOM     14  C   UNL     1      -0.806   1.508  -0.763  0.00  0.00    +0.076 A 
ATOM     15  C   UNL     1      -0.972   2.774  -0.220  0.00  0.00    +0.027 A 
ATOM     16  C   UNL     1      -2.200   3.404  -0.299  0.00  0.00    +0.002 A 
ATOM     17  C   UNL     1      -3.268   2.771  -0.908  0.00  0.00    +0.004 A 
ATOM     18  C   UNL     1      -3.111   1.507  -1.447  0.00  0.00    +0.047 A 
ATOM     19  C   UNL     1      -1.883   0.871  -1.377  0.00  0.00    +0.141 A 
BRANCH  19  20
ATOM     20  O   UNL     1      -1.728  -0.372  -1.906  0.00  0.00    -0.493 OA
ATOM     21  C   UNL     1      -2.874  -0.964  -2.520  0.00  0.00    +0.277 C 
ENDBRANCH  19  20
ENDBRANCH  12  14
ENDBRANCH   9  10
ENDBRANCH   1   9
BRANCH   4  22
ATOM     22  C   UNL     1       7.457   4.206  -0.668  0.00  0.00    +0.198 C 
BRANCH  22  23
ATOM     23  C   UNL     1       7.576   5.009  -1.938  0.00  0.00    -0.001 A 
ATOM     24  C   UNL     1       7.071   6.295  -1.992  0.00  0.00    +0.007 A 
ATOM     25  C   UNL     1       7.180   7.031  -3.157  0.00  0.00    +0.000 A 
ATOM     26  C   UNL     1       7.796   6.483  -4.267  0.00  0.00    +0.001 A 
ATOM     27  C   UNL     1       8.302   5.199  -4.213  0.00  0.00    +0.020 A 
ATOM     28  C   UNL     1       8.197   4.462  -3.046  0.00  0.00    +0.046 A 
ATOM     29 CL   UNL     1       8.839   2.851  -2.976  0.00  0.00    -0.083 Cl
ENDBRANCH  22  23
BRANCH  22  30
ATOM     30  C   UNL     1       7.113   5.124   0.477  0.00  0.00    +0.329 C 
ATOM     31  O   UNL     1       6.091   4.957   1.099  0.00  0.00    -0.249 OA
BRANCH  30  32
ATOM     32  O   UNL     1       7.943   6.127   0.805  0.00  0.00    -0.467 OA
ATOM     33  C   UNL     1       7.548   6.971   1.918  0.00  0.00    +0.280 C 
ENDBRANCH  30  32
ENDBRANCH  22  30
ENDBRANCH   4  22
TORSDOF 8
