REMARK  Name = ZINC57671883
REMARK  8 active torsions:
REMARK  status: ('A' for Active; 'I' for Inactive)
REMARK    1  A    between atoms: C_1  and  C_2
REMARK    2  A    between atoms: C_2  and  C_3
REMARK    3  A    between atoms: C_2  and  C_4
REMARK    4  A    between atoms: C_4  and  C_6
REMARK    5  A    between atoms: C_4  and  N_16
REMARK    6  A    between atoms: C_17  and  C_19
REMARK    7  A    between atoms: C_19  and  C_20
REMARK    8  A    between atoms: C_20  and  N_21
REMARK                            x       y       z     vdW  Elec       q    Type
REMARK                         _______ _______ _______ _____ _____    ______ ____
ROOT
ATOM      1  N   UNL     1      -2.155   0.035   1.154  0.00  0.00    -0.305 N 
ATOM      2  C   UNL     1      -2.067  -0.550   2.366  0.00  0.00    +0.215 C 
ATOM      3  O   UNL     1      -1.391  -1.546   2.511  0.00  0.00    -0.276 OA
ATOM      4  H   UNL     1      -2.696   0.831   1.038  0.00  0.00    +0.149 HD
ENDROOT
BRANCH   1   5
ATOM      5  C   UNL     1      -1.433  -0.534   0.013  0.00  0.00    +0.141 C 
BRANCH   5   6
ATOM      6  C   UNL     1      -2.125  -0.137  -1.266  0.00  0.00    +0.129 A 
ATOM      7  N   UNL     1      -2.737  -1.000  -2.121  0.00  0.00    -0.340 N 
ATOM      8  H   UNL     1      -2.804  -1.962  -2.016  0.00  0.00    +0.167 HD
ATOM      9  C   UNL     1      -3.245  -0.254  -3.165  0.00  0.00    +0.066 A 
ATOM     10  C   UNL     1      -3.956  -0.560  -4.317  0.00  0.00    +0.028 A 
ATOM     11  C   UNL     1      -4.324   0.448  -5.181  0.00  0.00    +0.002 A 
ATOM     12  C   UNL     1      -3.989   1.767  -4.907  0.00  0.00    +0.002 A 
ATOM     13  C   UNL     1      -3.290   2.087  -3.778  0.00  0.00    +0.030 A 
ATOM     14  C   UNL     1      -2.906   1.081  -2.888  0.00  0.00    +0.089 A 
ATOM     15  N   UNL     1      -2.228   1.081  -1.711  0.00  0.00    -0.231 NA
ENDBRANCH   5   6
BRANCH   5  17
ATOM     16  C   UNL     1      -0.019   1.526   0.010  0.00  0.00    +0.009 C 
ATOM     17  C   UNL     1       0.002  -0.004   0.002  0.00  0.00    +0.011 C 
ATOM     18  C   UNL     1       0.742  -0.511   1.242  0.00  0.00    +0.009 C 
ENDBRANCH   5  17
ENDBRANCH   1   5
BRANCH   2  19
ATOM     19  C   UNL     1      -2.809   0.034   3.540  0.00  0.00    +0.115 C 
BRANCH  19  20
ATOM     20  C   UNL     1      -2.542  -0.813   4.785  0.00  0.00    +0.126 C 
BRANCH  20  21
ATOM     21  N   UNL     1      -3.264  -0.245   5.927  0.00  0.00    -0.234 N 
ATOM     22  C   UNL     1      -2.761   0.686   6.757  0.00  0.00    +0.254 C 
ATOM     23  O   UNL     1      -1.655   1.181   6.681  0.00  0.00    -0.270 OA
ATOM     24  C   UNL     1      -3.781   1.006   7.778  0.00  0.00    +0.049 A 
ATOM     25  C   UNL     1      -3.827   1.867   8.863  0.00  0.00    +0.015 A 
ATOM     26  C   UNL     1      -4.970   1.928   9.644  0.00  0.00    +0.016 A 
ATOM     27  C   UNL     1      -6.064   1.135   9.348  0.00  0.00    +0.019 A 
ATOM     28  C   UNL     1      -6.032   0.268   8.265  0.00  0.00    +0.029 A 
ATOM     29  C   UNL     1      -4.896   0.198   7.476  0.00  0.00    +0.050 A 
ATOM     30  C   UNL     1      -4.518  -0.582   6.278  0.00  0.00    +0.254 C 
ATOM     31  O   UNL     1      -5.220  -1.392   5.709  0.00  0.00    -0.270 OA
ATOM     32 BR   UNL     1      -7.615   1.234  10.426  0.00  0.00    -0.050 Br
ENDBRANCH  20  21
ENDBRANCH  19  20
ENDBRANCH   2  19
TORSDOF 6
