REMARK  Name = ZINC36553444
REMARK  10 active torsions:
REMARK  status: ('A' for Active; 'I' for Inactive)
REMARK    1  A    between atoms: C_1  and  C_2
REMARK    2  A    between atoms: C_2  and  C_4
REMARK    3  A    between atoms: N_6  and  C_7
REMARK    4  A    between atoms: N_6  and  C_14
REMARK    5  A    between atoms: C_14  and  C_16
REMARK    6  A    between atoms: C_14  and  C_25
REMARK    7  A    between atoms: C_19  and  N_22
REMARK    8  A    between atoms: N_22  and  C_23
REMARK    9  A    between atoms: N_22  and  C_24
REMARK   10  A    between atoms: N_27  and  C_28
REMARK                            x       y       z     vdW  Elec       q    Type
REMARK                         _______ _______ _______ _____ _____    ______ ____
ROOT
ATOM      1  C   UNL     1      -2.615   1.531  -0.035  0.00  0.00    +0.197 C 
ENDROOT
BRANCH   1   2
ATOM      2  C   UNL     1      -1.745   1.979   1.111  0.00  0.00    -0.018 A 
ATOM      3  C   UNL     1      -0.368   1.914   0.999  0.00  0.00    +0.008 A 
ATOM      4  C   UNL     1       0.432   2.324   2.047  0.00  0.00    +0.023 A 
ATOM      5  C   UNL     1      -0.148   2.803   3.215  0.00  0.00    +0.029 A 
ATOM      6  C   UNL     1      -1.531   2.867   3.325  0.00  0.00    +0.023 A 
ATOM      7  C   UNL     1      -2.325   2.461   2.270  0.00  0.00    +0.008 A 
BRANCH   5   8
ATOM      8  N   UNL     1       0.658   3.218   4.278  0.00  0.00    -0.336 N 
ATOM      9  C   UNL     1       2.113   3.275   4.115  0.00  0.00    +0.129 C 
ATOM     10  C   UNL     1       0.049   3.597   5.555  0.00  0.00    +0.129 C 
ENDBRANCH   5   8
ENDBRANCH   1   2
BRANCH   1  11
ATOM     11  C   UNL     1      -3.517   2.663  -0.454  0.00  0.00    +0.239 C 
ATOM     12  O   UNL     1      -3.866   2.764  -1.611  0.00  0.00    -0.273 OA
ATOM     13  N   UNL     1      -3.936   3.563   0.458  0.00  0.00    -0.311 N 
ATOM     14  H   UNL     1      -3.657   3.482   1.383  0.00  0.00    +0.149 HD
BRANCH  13  15
ATOM     15  C   UNL     1      -4.813   4.664   0.051  0.00  0.00    +0.073 C 
ATOM     16  C   UNL     1      -3.966   5.819  -0.485  0.00  0.00    +0.022 C 
ATOM     17  C   UNL     1      -4.883   6.969  -0.910  0.00  0.00    +0.002 C 
ATOM     18  C   UNL     1      -5.693   7.447   0.295  0.00  0.00    +0.000 C 
ATOM     19  C   UNL     1      -6.540   6.292   0.832  0.00  0.00    +0.002 C 
ATOM     20  C   UNL     1      -5.624   5.142   1.257  0.00  0.00    +0.022 C 
ENDBRANCH  13  15
ENDBRANCH   1  11
BRANCH   1  23
ATOM     21  C   UNL     1      -1.753  -0.145  -1.579  0.00  0.00    +0.247 C 
ATOM     22  O   UNL     1      -0.973  -0.495  -2.444  0.00  0.00    -0.270 OA
ATOM     23  N   UNL     1      -1.769   1.137  -1.165  0.00  0.00    -0.252 N 
BRANCH  23  24
ATOM     24  C   UNL     1      -0.979   2.091  -1.813  0.00  0.00    +0.039 A 
ATOM     25  C   UNL     1      -0.990   3.412  -1.382  0.00  0.00    +0.023 A 
ATOM     26  C   UNL     1      -0.208   4.353  -2.024  0.00  0.00    +0.003 A 
ATOM     27  C   UNL     1       0.584   3.982  -3.095  0.00  0.00    +0.020 A 
ATOM     28  C   UNL     1       0.597   2.667  -3.527  0.00  0.00    +0.043 A 
ATOM     29  C   UNL     1      -0.178   1.720  -2.885  0.00  0.00    +0.043 A 
ATOM     30 CL   UNL     1       1.593   2.206  -4.871  0.00  0.00    -0.083 Cl
ENDBRANCH  23  24
BRANCH  21  32
ATOM     31  C   UNL     1      -4.155  -0.822  -0.929  0.00  0.00    +0.048 C 
ATOM     32  C   UNL     1      -2.679  -1.122  -0.986  0.00  0.00    +0.005 C 
ATOM     33  C   UNL     1      -2.214  -2.269  -0.500  0.00  0.00    +0.017 C 
ENDBRANCH  21  32
ENDBRANCH   1  23
TORSDOF 7
