REMARK  Name = ZINC43210427
REMARK  9 active torsions:
REMARK  status: ('A' for Active; 'I' for Inactive)
REMARK    1  A    between atoms: C_4  and  C_7
REMARK    2  A    between atoms: C_8  and  C_9
REMARK    3  A    between atoms: C_9  and  N_10
REMARK    4  A    between atoms: C_15  and  C_28
REMARK    5  A    between atoms: C_18  and  C_23
REMARK    6  A    between atoms: C_18  and  C_25
REMARK    7  A    between atoms: C_23  and  O_24
REMARK    8  A    between atoms: C_31  and  O_34
REMARK    9  A    between atoms: O_34  and  C_35
REMARK                            x       y       z     vdW  Elec       q    Type
REMARK                         _______ _______ _______ _____ _____    ______ ____
ROOT
ATOM      1  N   UNL     1       4.211  -4.489   0.320  0.00  0.00    -0.238 N 
ATOM      2  C   UNL     1       4.799  -4.178   1.521  0.00  0.00    +0.225 C 
ATOM      3  O   UNL     1       5.128  -3.083   1.924  0.00  0.00    -0.275 OA
ATOM      4  C   UNL     1       4.940  -5.447   2.198  0.00  0.00    +0.077 C 
ATOM      5  C   UNL     1       5.153  -5.988   3.547  0.00  0.00    -0.027 C 
ATOM      6  N   UNL     1       4.714  -7.419   3.447  0.00  0.00    +0.397 N 
ATOM      7  C   UNL     1       4.146  -7.621   2.074  0.00  0.00    +0.071 C 
ATOM      8  C   UNL     1       3.636  -6.206   1.725  0.00  0.00    +0.088 C 
ATOM      9  C   UNL     1       3.708  -5.758   0.291  0.00  0.00    +0.225 C 
ATOM     10  O   UNL     1       3.387  -6.395  -0.689  0.00  0.00    -0.275 OA
ATOM     11  H   UNL     1       5.505  -8.030   3.583  0.00  0.00    -0.083 HD
ATOM     12  H   UNL     1       4.008  -7.610   4.141  0.00  0.00    -0.083 HD
ENDROOT
BRANCH   5  13
ATOM     13  C   UNL     1       4.311  -5.245   4.552  0.00  0.00    -0.060 A 
ATOM     14  C   UNL     1       2.971  -5.557   4.695  0.00  0.00    +0.005 A 
ATOM     15  C   UNL     1       2.197  -4.878   5.616  0.00  0.00    +0.046 A 
ATOM     16  C   UNL     1       2.765  -3.882   6.397  0.00  0.00    +0.128 A 
ATOM     17  C   UNL     1       4.109  -3.570   6.252  0.00  0.00    +0.046 A 
ATOM     18  C   UNL     1       4.880  -4.256   5.333  0.00  0.00    +0.005 A 
BRANCH  16  19
ATOM     19  O   UNL     1       2.005  -3.212   7.303  0.00  0.00    -0.456 OA
BRANCH  19  20
ATOM     20  C   UNL     1       0.726  -3.628   7.496  0.00  0.00    +0.128 A 
ATOM     21  C   UNL     1       0.473  -4.773   8.238  0.00  0.00    +0.046 A 
ATOM     22  C   UNL     1      -0.829  -5.195   8.432  0.00  0.00    +0.004 A 
ATOM     23  C   UNL     1      -1.878  -4.477   7.888  0.00  0.00    +0.000 A 
ATOM     24  C   UNL     1      -1.627  -3.336   7.148  0.00  0.00    +0.004 A 
ATOM     25  C   UNL     1      -0.329  -2.907   6.956  0.00  0.00    +0.046 A 
ENDBRANCH  19  20
ENDBRANCH  16  19
ENDBRANCH   5  13
BRANCH   7  26
ATOM     26  C   UNL     1       3.000  -8.599   2.109  0.00  0.00    +0.348 C 
ATOM     27  O   UNL     1       2.677  -9.122   3.162  0.00  0.00    -0.248 OA
ATOM     28  O   UNL     1       2.395  -8.867   1.085  0.00  0.00    -0.248 OA
ENDBRANCH   7  26
BRANCH   1  29
ATOM     29  C   UNL     1       4.127  -3.557  -0.807  0.00  0.00    +0.143 C 
BRANCH  29  31
ATOM     30  C   UNL     1       2.904  -1.431  -0.705  0.00  0.00    +0.005 C 
ATOM     31  C   UNL     1       2.855  -2.756  -0.702  0.00  0.00    -0.007 C 
BRANCH  30  35
ATOM     32  C   UNL     1      -0.681   0.828  -0.411  0.00  0.00    +0.000 A 
ATOM     33  C   UNL     1       0.537   1.478  -0.509  0.00  0.00    +0.001 A 
ATOM     34  C   UNL     1       1.705   0.750  -0.604  0.00  0.00    +0.008 A 
ATOM     35  C   UNL     1       1.657  -0.645  -0.602  0.00  0.00    -0.025 A 
ATOM     36  C   UNL     1       0.426  -1.294  -0.503  0.00  0.00    +0.008 A 
ATOM     37  C   UNL     1      -0.735  -0.555  -0.409  0.00  0.00    +0.001 A 
ENDBRANCH  30  35
ENDBRANCH  29  31
ENDBRANCH   1  29
BRANCH   7  38
ATOM     38  C   UNL     1       5.230  -8.089   1.102  0.00  0.00    +0.155 C 
BRANCH  38  39
ATOM     39  O   UNL     1       5.844  -9.275   1.608  0.00  0.00    -0.396 OA
ATOM     40  H   UNL     1       6.543  -9.629   1.041  0.00  0.00    +0.209 HD
ENDBRANCH  38  39
ENDBRANCH   7  38
TORSDOF 9
