REMARK  Name = ZINC39565471
REMARK  13 active torsions:
REMARK  status: ('A' for Active; 'I' for Inactive)
REMARK    1  A    between atoms: C_1  and  C_2
REMARK    2  A    between atoms: C_2  and  C_3
REMARK    3  A    between atoms: C_12  and  C_13
REMARK    4  A    between atoms: C_13  and  C_15
REMARK    5  A    between atoms: C_15  and  C_17
REMARK    6  A    between atoms: C_15  and  O_23
REMARK    7  A    between atoms: O_23  and  C_24
REMARK    8  A    between atoms: C_24  and  C_26
REMARK    9  A    between atoms: C_26  and  N_27
REMARK   10  A    between atoms: C_30  and  C_34
REMARK   11  A    between atoms: C_30  and  C_36
REMARK   12  A    between atoms: C_34  and  C_35
REMARK   13  A    between atoms: C_36  and  C_37
REMARK                            x       y       z     vdW  Elec       q    Type
REMARK                         _______ _______ _______ _____ _____    ______ ____
ROOT
ATOM      1  C   UNL     1      -5.435  -1.565  -4.519  0.00  0.00    +0.277 C 
ENDROOT
BRANCH   1   2
ATOM      2  C   UNL     1      -4.825  -2.773  -5.182  0.00  0.00    +0.000 A 
ATOM      3  C   UNL     1      -5.519  -3.968  -5.213  0.00  0.00    +0.008 A 
ATOM      4  C   UNL     1      -4.959  -5.077  -5.821  0.00  0.00    +0.000 A 
ATOM      5  C   UNL     1      -3.706  -4.990  -6.398  0.00  0.00    +0.000 A 
ATOM      6  C   UNL     1      -3.013  -3.794  -6.368  0.00  0.00    +0.000 A 
ATOM      7  C   UNL     1      -3.574  -2.685  -5.764  0.00  0.00    +0.008 A 
ENDBRANCH   1   2
BRANCH   1   8
ATOM      8  C   UNL     1      -5.141  -1.601  -3.042  0.00  0.00    +0.210 C 
ATOM      9  O   UNL     1      -5.989  -1.988  -2.264  0.00  0.00    -0.288 OA
BRANCH   8  19
ATOM     10  C   UNL     1      -1.412  -0.526   0.013  0.00  0.00    -0.024 A 
ATOM     11  C   UNL     1      -2.013  -0.863   1.206  0.00  0.00    +0.005 A 
ATOM     12  C   UNL     1      -3.314  -1.344   1.230  0.00  0.00    +0.001 A 
ATOM     13  C   UNL     1      -4.023  -1.490   0.058  0.00  0.00    +0.011 A 
ATOM     14  C   UNL     1      -3.427  -1.153  -1.154  0.00  0.00    +0.011 A 
ATOM     15  C   UNL     1      -2.112  -0.662  -1.181  0.00  0.00    +0.050 A 
ATOM     16  N   UNL     1      -1.788  -0.408  -2.498  0.00  0.00    -0.360 N 
ATOM     17  H   UNL     1      -0.932  -0.063  -2.799  0.00  0.00    +0.165 HD
ATOM     18  C   UNL     1      -2.821  -0.705  -3.309  0.00  0.00    +0.095 A 
ATOM     19  C   UNL     1      -3.876  -1.182  -2.560  0.00  0.00    +0.047 A 
BRANCH  10  21
ATOM     20  C   UNL     1      -0.019   1.526   0.010  0.00  0.00    +0.009 C 
ATOM     21  C   UNL     1       0.002  -0.004   0.002  0.00  0.00    +0.034 C 
ENDBRANCH  10  21
ENDBRANCH   8  19
ENDBRANCH   1   8
BRANCH   1  22
ATOM     22  O   UNL     1      -6.849  -1.572  -4.724  0.00  0.00    -0.447 OA
BRANCH  22  23
ATOM     23  C   UNL     1      -7.309  -0.949  -5.821  0.00  0.00    +0.326 C 
ATOM     24  O   UNL     1      -6.536  -0.416  -6.582  0.00  0.00    -0.249 OA
BRANCH  23  25
ATOM     25  C   UNL     1      -8.789  -0.916  -6.104  0.00  0.00    +0.238 C 
BRANCH  25  26
ATOM     26  N   UNL     1      -9.031  -0.183  -7.349  0.00  0.00    -0.213 N 
ATOM     27  C   UNL     1      -9.240   1.147  -7.416  0.00  0.00    +0.247 C 
ATOM     28  O   UNL     1      -9.262   1.932  -6.493  0.00  0.00    -0.273 OA
ATOM     29  C   UNL     1      -9.442   1.456  -8.886  0.00  0.00    +0.112 C 
ATOM     30  N   UNL     1      -9.311   0.141  -9.538  0.00  0.00    -0.285 N 
ATOM     31  C   UNL     1      -9.068  -0.750  -8.560  0.00  0.00    +0.310 C 
ATOM     32  O   UNL     1      -8.903  -1.938  -8.755  0.00  0.00    -0.252 OA
ATOM     33  H   UNL     1      -9.383  -0.045 -10.487  0.00  0.00    +0.151 HD
BRANCH  29  34
ATOM     34  C   UNL     1      -8.360   2.415  -9.388  0.00  0.00    +0.032 C 
ATOM     35  C   UNL     1      -6.993   1.734  -9.300  0.00  0.00    +0.006 C 
ENDBRANCH  29  34
BRANCH  29  36
ATOM     36  C   UNL     1     -10.835   2.040  -9.128  0.00  0.00    +0.032 C 
ATOM     37  C   UNL     1     -11.895   1.037  -8.667  0.00  0.00    +0.006 C 
ENDBRANCH  29  36
ENDBRANCH  25  26
ENDBRANCH  23  25
ENDBRANCH  22  23
ENDBRANCH   1  22
TORSDOF 10
