REMARK  Name = ZINC62564291
REMARK  6 active torsions:
REMARK  status: ('A' for Active; 'I' for Inactive)
REMARK    1  A    between atoms: C_1  and  C_2
REMARK    2  A    between atoms: C_2  and  C_3
REMARK    3  A    between atoms: C_10  and  C_16
REMARK    4  A    between atoms: C_16  and  C_17
REMARK    5  A    between atoms: C_16  and  C_18
REMARK    6  A    between atoms: C_16  and  C_19
REMARK                            x       y       z     vdW  Elec       q    Type
REMARK                         _______ _______ _______ _____ _____    ______ ____
ROOT
ATOM      1  C   UNL     1      -1.433  -0.534   0.013  0.00  0.00    +0.259 C 
ATOM      2  C   UNL     1      -1.415  -2.035  -0.121  0.00  0.00    +0.258 C 
ATOM      3  O   UNL     1      -1.502  -2.550  -1.216  0.00  0.00    -0.271 OA
ATOM      4  N   UNL     1      -1.301  -2.804   0.982  0.00  0.00    -0.279 N 
ATOM      5  C   UNL     1      -1.329  -2.197   2.245  0.00  0.00    +0.077 A 
ATOM      6  C   UNL     1      -0.990  -2.917   3.380  0.00  0.00    +0.031 A 
ATOM      7  C   UNL     1      -1.010  -2.300   4.617  0.00  0.00    -0.039 A 
ATOM      8  C   UNL     1      -1.365  -0.968   4.725  0.00  0.00    +0.023 A 
ATOM      9  C   UNL     1      -1.710  -0.246   3.596  0.00  0.00    +0.062 A 
ATOM     10  C   UNL     1      -1.699  -0.859   2.354  0.00  0.00    +0.157 A 
ATOM     11  O   UNL     1      -2.066  -0.169   1.242  0.00  0.00    -0.477 OA
ATOM     12 BR   UNL     1      -2.197   1.575   3.749  0.00  0.00    -0.046 Br
ATOM     13  H   UNL     1      -1.202  -3.766   0.902  0.00  0.00    +0.155 HD
ENDROOT
BRANCH   7  14
ATOM     14  C   UNL     1      -0.642  -3.081   5.852  0.00  0.00    -0.013 C 
ATOM     15  C   UNL     1       0.791  -3.600   5.719  0.00  0.00    +0.015 C 
ATOM     16  C   UNL     1      -0.743  -2.173   7.079  0.00  0.00    +0.015 C 
ATOM     17  C   UNL     1      -1.599  -4.264   6.011  0.00  0.00    +0.015 C 
ENDBRANCH   7  14
BRANCH   1  19
ATOM     18  C   UNL     1      -0.019   1.526   0.010  0.00  0.00    +0.008 C 
ATOM     19  C   UNL     1       0.002  -0.004   0.002  0.00  0.00    +0.051 C 
ENDBRANCH   1  19
TORSDOF 2
