REMARK  Name = ZINC39623526
REMARK  9 active torsions:
REMARK  status: ('A' for Active; 'I' for Inactive)
REMARK    1  A    between atoms: C_1  and  C_2
REMARK    2  A    between atoms: C_2  and  C_3
REMARK    3  A    between atoms: C_3  and  C_4
REMARK    4  A    between atoms: C_4  and  C_5
REMARK    5  A    between atoms: C_5  and  N_6
REMARK    6  A    between atoms: C_7  and  C_9
REMARK    7  A    between atoms: C_20  and  C_22
REMARK    8  A    between atoms: C_23  and  C_33
REMARK    9  A    between atoms: C_26  and  C_27
REMARK                            x       y       z     vdW  Elec       q    Type
REMARK                         _______ _______ _______ _____ _____    ______ ____
ROOT
ATOM      1  C   UNL     1       2.078  -6.153  -3.560  0.00  0.00    +0.100 C 
ATOM      2  C   UNL     1       2.987  -6.685  -2.430  0.00  0.00    +0.121 C 
ATOM      3  N   UNL     1       3.656  -7.871  -3.014  0.00  0.00    -0.296 N 
ATOM      4  C   UNL     1       3.956  -7.475  -4.411  0.00  0.00    +0.115 C 
ATOM      5  C   UNL     1       2.718  -6.673  -4.859  0.00  0.00    -0.004 C 
ATOM      6  C   UNL     1       3.139  -5.504  -5.745  0.00  0.00    -0.010 C 
ATOM      7  C   UNL     1       3.718  -6.046  -7.055  0.00  0.00    -0.082 C 
ATOM      8  N   UNL     1       2.709  -6.864  -7.737  0.00  0.00    +0.379 N 
ATOM      9  C   UNL     1       2.378  -8.037  -6.918  0.00  0.00    -0.082 C 
ATOM     10  C   UNL     1       1.742  -7.579  -5.602  0.00  0.00    -0.010 C 
ATOM     11  C   UNL     1       3.930  -9.045  -2.412  0.00  0.00    +0.252 C 
ATOM     12  O   UNL     1       4.490  -9.930  -3.031  0.00  0.00    -0.270 OA
ATOM     13  H   UNL     1       1.877  -6.314  -7.886  0.00  0.00    -0.086 HD
ATOM     14  H   UNL     1       3.071  -7.170  -8.628  0.00  0.00    -0.086 HD
ENDROOT
BRANCH  11  15
ATOM     15  C   UNL     1       3.552  -9.257  -1.004  0.00  0.00    +0.106 A 
ATOM     16  C   UNL     1       2.373  -9.770  -0.547  0.00  0.00    +0.147 A 
ATOM     17  O   UNL     1       2.420  -9.800   0.787  0.00  0.00    -0.359 OA
ATOM     18  N   UNL     1       3.664  -9.293   1.228  0.00  0.00    -0.077 NA
ATOM     19  C   UNL     1       4.373  -8.962   0.179  0.00  0.00    +0.126 A 
ATOM     20  C   UNL     1       1.218 -10.224  -1.401  0.00  0.00    +0.090 C 
BRANCH  19  21
ATOM     21  C   UNL     1       5.744  -8.393   0.183  0.00  0.00    +0.004 A 
ATOM     22  C   UNL     1       6.642  -8.725  -0.829  0.00  0.00    +0.010 A 
ATOM     23  C   UNL     1       7.915  -8.193  -0.820  0.00  0.00    +0.001 A 
ATOM     24  C   UNL     1       8.301  -7.332   0.192  0.00  0.00    +0.000 A 
ATOM     25  C   UNL     1       7.414  -7.000   1.200  0.00  0.00    +0.001 A 
ATOM     26  C   UNL     1       6.136  -7.521   1.197  0.00  0.00    +0.010 A 
ENDBRANCH  19  21
ENDBRANCH  11  15
BRANCH   1  28
ATOM     27  N   UNL     1       0.974  -3.984  -4.004  0.00  0.00    -0.315 N 
ATOM     28  C   UNL     1       2.058  -4.646  -3.552  0.00  0.00    +0.218 C 
ATOM     29  O   UNL     1       3.017  -4.029  -3.139  0.00  0.00    -0.275 OA
ATOM     30  H   UNL     1       0.208  -4.478  -4.335  0.00  0.00    +0.149 HD
BRANCH  27  31
ATOM     31  C   UNL     1       0.955  -2.519  -3.996  0.00  0.00    +0.104 C 
BRANCH  31  32
ATOM     32  C   UNL     1      -0.380  -2.024  -4.556  0.00  0.00    +0.019 C 
BRANCH  32  33
ATOM     33  C   UNL     1      -0.401  -0.495  -4.548  0.00  0.00    +0.001 C 
BRANCH  33  35
ATOM     34  C   UNL     1      -1.757   1.530  -5.100  0.00  0.00    +0.004 C 
ATOM     35  C   UNL     1      -1.736   0.001  -5.109  0.00  0.00    -0.003 C 
ENDBRANCH  33  35
ENDBRANCH  32  33
ENDBRANCH  31  32
ENDBRANCH  27  31
ENDBRANCH   1  28
TORSDOF 7
