REMARK  Name = ZINC62273449
REMARK  6 active torsions:
REMARK  status: ('A' for Active; 'I' for Inactive)
REMARK    1  A    between atoms: C_1  and  C_2
REMARK    2  A    between atoms: C_2  and  C_4
REMARK    3  A    between atoms: C_2  and  C_7
REMARK    4  A    between atoms: N_9  and  C_10
REMARK    5  A    between atoms: C_16  and  C_20
REMARK    6  A    between atoms: C_16  and  C_21
REMARK                            x       y       z     vdW  Elec       q    Type
REMARK                         _______ _______ _______ _____ _____    ______ ____
ROOT
ATOM      1  C   UNL     1       2.718  -0.643  -2.551  0.00  0.00    +0.034 A 
ATOM      2  C   UNL     1       2.092  -1.438  -3.502  0.00  0.00    +0.025 A 
ATOM      3  C   UNL     1       2.805  -1.930  -4.575  0.00  0.00    +0.025 A 
ATOM      4  C   UNL     1       4.160  -1.633  -4.713  0.00  0.00    +0.038 A 
ATOM      5  C   UNL     1       4.777  -0.837  -3.756  0.00  0.00    -0.010 A 
ATOM      6  C   UNL     1       4.067  -0.340  -2.687  0.00  0.00    +0.029 A 
ATOM      7  C   UNL     1       6.221  -0.702  -4.182  0.00  0.00    +0.068 C 
ATOM      8  C   UNL     1       6.305  -1.506  -5.462  0.00  0.00    +0.227 C 
ATOM      9  O   UNL     1       7.292  -1.669  -6.147  0.00  0.00    -0.275 OA
ATOM     10  N   UNL     1       5.080  -2.007  -5.696  0.00  0.00    -0.285 N 
ATOM     11  C   UNL     1       6.565   0.765  -4.448  0.00  0.00    +0.025 C 
ATOM     12  C   UNL     1       7.151  -1.288  -3.118  0.00  0.00    +0.025 C 
ATOM     13  H   UNL     1       4.860  -2.564  -6.459  0.00  0.00    +0.155 HD
ENDROOT
BRANCH   1  16
ATOM     14  C   UNL     1       1.016  -0.891  -0.905  0.00  0.00    +0.220 C 
ATOM     15  O   UNL     1       0.710  -1.956  -1.399  0.00  0.00    -0.275 OA
ATOM     16  N   UNL     1       1.991  -0.146  -1.462  0.00  0.00    -0.285 N 
ATOM     17  H   UNL     1       2.190   0.735  -1.108  0.00  0.00    +0.155 HD
BRANCH  14  19
ATOM     18  C   UNL     1      -0.377   0.936   0.030  0.00  0.00    +0.017 C 
ATOM     19  C   UNL     1       0.305  -0.401   0.330  0.00  0.00    +0.075 C 
BRANCH  19  20
ATOM     20  C   UNL     1      -0.749  -1.427   0.752  0.00  0.00    +0.001 C 
ATOM     21  C   UNL     1      -0.734  -1.896   2.209  0.00  0.00    +0.004 C 
ATOM     22  C   UNL     1      -0.264  -2.836   1.097  0.00  0.00    +0.004 C 
ENDBRANCH  19  20
ENDBRANCH  14  19
ENDBRANCH   1  16
TORSDOF 3
