REMARK  Name = ZINC59040314
REMARK  5 active torsions:
REMARK  status: ('A' for Active; 'I' for Inactive)
REMARK    1  A    between atoms: C_3  and  N_9
REMARK    2  A    between atoms: C_10  and  C_12
REMARK    3  A    between atoms: C_12  and  S_13
REMARK    4  A    between atoms: S_13  and  C_14
REMARK    5  A    between atoms: N_19  and  N_20
REMARK                            x       y       z     vdW  Elec       q    Type
REMARK                         _______ _______ _______ _____ _____    ______ ____
ROOT
ATOM      1  C   UNL     1       6.102   6.752  -0.486  0.00  0.00    +0.211 A 
ATOM      2  N   UNL     1       6.341   8.064  -0.585  0.00  0.00    -0.186 NA
ATOM      3  C   UNL     1       7.638   8.272  -0.668  0.00  0.00    +0.232 A 
ATOM      4  N   UNL     1       8.257   7.073  -0.621  0.00  0.00    -0.245 N 
ATOM      5  N   UNL     1       7.245   6.108  -0.498  0.00  0.00    -0.144 NA
ATOM      6  N   UNL     1       8.258   9.504  -0.783  0.00  0.00    -0.205 N 
ATOM      7  H   UNL     1       9.225   9.556  -0.838  0.00  0.00    +0.177 HD
ATOM      8  H   UNL     1       9.213   6.911  -0.661  0.00  0.00    +0.192 HD
ENDROOT
BRANCH   6   9
ATOM      9  N   UNL     1       7.490  10.674  -0.821  0.00  0.00    -0.189 NA
ATOM     10  C   UNL     1       8.055  11.805  -1.024  0.00  0.00    +0.037 C 
ATOM     11  C   UNL     1       9.560  11.913  -1.122  0.00  0.00    +0.052 C 
ATOM     12  C   UNL     1       9.912  12.670  -2.407  0.00  0.00    +0.006 C 
ATOM     13  C   UNL     1       9.181  14.014  -2.421  0.00  0.00    +0.001 C 
ATOM     14  C   UNL     1       7.670  13.782  -2.457  0.00  0.00    +0.006 C 
ATOM     15  C   UNL     1       7.234  13.066  -1.180  0.00  0.00    +0.052 C 
ENDBRANCH   6   9
BRANCH   1  16
ATOM     16  S   UNL     1       4.510   6.009  -0.351  0.00  0.00    -0.075 S 
BRANCH  16  17
ATOM     17  C   UNL     1       4.862   4.232  -0.243  0.00  0.00    +0.173 C 
BRANCH  17  19
ATOM     18  N   UNL     1       3.584   2.126  -0.029  0.00  0.00    -0.284 N 
ATOM     19  C   UNL     1       3.568   3.470  -0.123  0.00  0.00    +0.228 C 
ATOM     20  O   UNL     1       2.512   4.066  -0.111  0.00  0.00    -0.275 OA
ATOM     21  H   UNL     1       4.429   1.655   0.043  0.00  0.00    +0.155 HD
BRANCH  18  24
ATOM     22  C   UNL     1       0.066   1.242  -0.632  0.00  0.00    +0.017 A 
ATOM     23  C   UNL     1       1.251   1.952  -0.629  0.00  0.00    +0.025 A 
ATOM     24  C   UNL     1       2.381   1.409  -0.033  0.00  0.00    +0.048 A 
ATOM     25  C   UNL     1       2.317   0.153   0.558  0.00  0.00    +0.040 A 
ATOM     26  C   UNL     1       1.129  -0.552   0.551  0.00  0.00    +0.032 A 
ATOM     27  C   UNL     1       0.004  -0.008  -0.044  0.00  0.00    +0.019 A 
ATOM     28 BR   UNL     1      -1.621  -0.975  -0.051  0.00  0.00    -0.050 Br
ATOM     29 BR   UNL     1       3.854  -0.591   1.370  0.00  0.00    -0.048 Br
ENDBRANCH  18  24
ENDBRANCH  17  19
ENDBRANCH  16  17
ENDBRANCH   1  16
TORSDOF 5
