REMARK  Name = ZINC40994426
REMARK  11 active torsions:
REMARK  status: ('A' for Active; 'I' for Inactive)
REMARK    1  A    between atoms: C_1  and  C_2
REMARK    2  A    between atoms: C_5  and  C_36
REMARK    3  A    between atoms: C_6  and  O_8
REMARK    4  A    between atoms: O_8  and  C_9
REMARK    5  A    between atoms: C_9  and  C_11
REMARK    6  A    between atoms: C_9  and  C_12
REMARK    7  A    between atoms: N_14  and  C_15
REMARK    8  A    between atoms: C_16  and  C_24
REMARK    9  A    between atoms: C_26  and  C_29
REMARK   10  A    between atoms: C_36  and  C_37
REMARK   11  A    between atoms: C_36  and  C_38
REMARK                            x       y       z     vdW  Elec       q    Type
REMARK                         _______ _______ _______ _____ _____    ______ ____
ROOT
ATOM      1  C   UNL     1       1.965  -2.936   6.717  0.00  0.00    +0.085 A 
ATOM      2  C   UNL     1       2.311  -2.569   8.010  0.00  0.00    +0.071 A 
ATOM      3  C   UNL     1       3.119  -3.494   8.785  0.00  0.00    -0.023 A 
ATOM      4  C   UNL     1       3.466  -4.647   8.168  0.00  0.00    -0.004 A 
ATOM      5  S   UNL     1       2.731  -4.539   6.559  0.00  0.00    -0.077 S 
ATOM      6  C   UNL     1       4.287  -5.765   8.732  0.00  0.00    +0.043 C 
ATOM      7  C   UNL     1       4.998  -5.256   9.994  0.00  0.00    +0.005 C 
ATOM      8  C   UNL     1       3.976  -4.531  10.874  0.00  0.00    +0.005 C 
ATOM      9  C   UNL     1       3.566  -3.213  10.216  0.00  0.00    +0.037 C 
ENDROOT
BRANCH   2  10
ATOM     10  C   UNL     1       1.875  -1.285   8.576  0.00  0.00    +0.261 A 
ATOM     11  N   UNL     1       1.140  -0.381   7.964  0.00  0.00    -0.187 NA
ATOM     12  C   UNL     1       0.932   0.666   8.777  0.00  0.00    +0.202 A 
ATOM     13  N   UNL     1       1.534   0.441   9.921  0.00  0.00    -0.056 NA
ATOM     14  O   UNL     1       2.152  -0.832   9.813  0.00  0.00    -0.332 OA
BRANCH  12  15
ATOM     15  C   UNL     1       0.150   1.881   8.438  0.00  0.00    +0.023 A 
ATOM     16  C   UNL     1      -0.448   1.999   7.186  0.00  0.00    +0.014 A 
ATOM     17  C   UNL     1      -1.175   3.130   6.875  0.00  0.00    +0.039 A 
ATOM     18  C   UNL     1      -1.310   4.147   7.806  0.00  0.00    +0.123 A 
ATOM     19  C   UNL     1      -0.717   4.033   9.053  0.00  0.00    +0.039 A 
ATOM     20  C   UNL     1       0.007   2.903   9.374  0.00  0.00    +0.014 A 
ATOM     21  F   UNL     1      -2.023   5.253   7.498  0.00  0.00    -0.205 F 
ENDBRANCH  12  15
ENDBRANCH   2  10
BRANCH   1  24
ATOM     22  C   UNL     1       0.976  -2.768   4.570  0.00  0.00    +0.258 C 
ATOM     23  O   UNL     1       1.425  -3.860   4.290  0.00  0.00    -0.271 OA
ATOM     24  N   UNL     1       1.210  -2.235   5.786  0.00  0.00    -0.276 N 
ATOM     25  H   UNL     1       0.851  -1.363   6.010  0.00  0.00    +0.155 HD
BRANCH  22  26
ATOM     26  C   UNL     1       0.156  -2.008   3.559  0.00  0.00    +0.256 C 
ATOM     27  C   UNL     1      -1.242  -1.751   4.126  0.00  0.00    +0.062 C 
BRANCH  26  28
ATOM     28  O   UNL     1       0.050  -2.776   2.358  0.00  0.00    -0.480 OA
BRANCH  28  34
ATOM     29  C   UNL     1      -0.901   1.454   0.116  0.00  0.00    +0.044 C 
ATOM     30  C   UNL     1      -0.644  -0.030   0.074  0.00  0.00    -0.047 A 
ATOM     31  C   UNL     1      -0.641  -0.697  -1.137  0.00  0.00    +0.004 A 
ATOM     32  C   UNL     1      -0.405  -2.058  -1.179  0.00  0.00    +0.008 A 
ATOM     33  C   UNL     1      -0.174  -2.757  -0.010  0.00  0.00    -0.003 A 
ATOM     34  C   UNL     1      -0.177  -2.091   1.207  0.00  0.00    +0.125 A 
ATOM     35  C   UNL     1      -0.408  -0.723   1.246  0.00  0.00    +0.049 A 
BRANCH  33  36
ATOM     36  C   UNL     1       0.081  -4.241  -0.056  0.00  0.00    +0.016 C 
ATOM     37  C   UNL     1      -1.127  -4.947  -0.675  0.00  0.00    +0.012 C 
ATOM     38  C   UNL     1       1.324  -4.519  -0.904  0.00  0.00    +0.012 C 
ENDBRANCH  33  36
ENDBRANCH  28  34
ENDBRANCH  26  28
ENDBRANCH  22  26
ENDBRANCH   1  24
TORSDOF 7
