REMARK  Name = ZINC36365603
REMARK  5 active torsions:
REMARK  status: ('A' for Active; 'I' for Inactive)
REMARK    1  A    between atoms: C_1  and  C_2
REMARK    2  A    between atoms: N_8  and  C_31
REMARK    3  A    between atoms: C_13  and  O_30
REMARK    4  A    between atoms: C_18  and  C_27
REMARK    5  A    between atoms: C_19  and  C_20
REMARK                            x       y       z     vdW  Elec       q    Type
REMARK                         _______ _______ _______ _____ _____    ______ ____
ROOT
ATOM      1  C   UNL     1      -0.535   1.483   0.107  0.00  0.00    +0.045 C 
ATOM      2  C   UNL     1      -0.445  -0.021   0.086  0.00  0.00    -0.029 A 
ATOM      3  C   UNL     1      -0.717  -0.745  -1.065  0.00  0.00    +0.005 A 
ATOM      4  C   UNL     1      -0.639  -2.122  -1.098  0.00  0.00    +0.001 A 
ATOM      5  C   UNL     1      -0.280  -2.854   0.029  0.00  0.00    +0.007 A 
ATOM      6  C   UNL     1      -0.008  -2.142   1.177  0.00  0.00    -0.005 A 
ATOM      7  C   UNL     1      -0.079  -0.744   1.222  0.00  0.00    +0.043 A 
ATOM      8  N   UNL     1       0.247  -0.286   2.487  0.00  0.00    -0.273 N 
ATOM      9  C   UNL     1       0.549  -1.297   3.329  0.00  0.00    +0.236 C 
ATOM     10  O   UNL     1       0.870  -1.194   4.494  0.00  0.00    -0.274 OA
ATOM     11  C   UNL     1       0.399  -2.583   2.546  0.00  0.00    +0.115 C 
ATOM     12  C   UNL     1      -0.671  -3.474   3.179  0.00  0.00    +0.121 C 
ATOM     13  C   UNL     1      -0.521  -4.897   2.727  0.00  0.00    +0.189 C 
ATOM     14  N   UNL     1       0.603  -5.455   2.424  0.00  0.00    -0.216 NA
ATOM     15  C   UNL     1       1.782  -4.717   2.475  0.00  0.00    +0.087 A 
ATOM     16  C   UNL     1       1.692  -3.332   2.527  0.00  0.00    +0.036 A 
ATOM     17  S   UNL     1       3.258  -2.772   2.560  0.00  0.00    -0.082 S 
ATOM     18  C   UNL     1       4.123  -4.332   2.523  0.00  0.00    +0.110 A 
ATOM     19  C   UNL     1       3.072  -5.255   2.479  0.00  0.00    +0.031 A 
ATOM     20  C   UNL     1       0.264   1.129   2.867  0.00  0.00    +0.138 C 
ENDROOT
BRANCH  19  21
ATOM     21  C   UNL     1       3.313  -6.714   2.437  0.00  0.00    +0.004 A 
ATOM     22  C   UNL     1       3.453  -7.367   1.211  0.00  0.00    +0.010 A 
ATOM     23  C   UNL     1       3.677  -8.727   1.179  0.00  0.00    +0.001 A 
ATOM     24  C   UNL     1       3.764  -9.446   2.359  0.00  0.00    +0.001 A 
ATOM     25  C   UNL     1       3.627  -8.806   3.577  0.00  0.00    +0.020 A 
ATOM     26  C   UNL     1       3.408  -7.443   3.624  0.00  0.00    +0.049 A 
ATOM     27 CL   UNL     1       3.244  -6.640   5.154  0.00  0.00    -0.083 Cl
ENDBRANCH  19  21
BRANCH  18  28
ATOM     28  C   UNL     1       5.515  -4.573   2.536  0.00  0.00    +0.394 C 
ATOM     29  O   UNL     1       6.300  -3.633   2.578  0.00  0.00    -0.240 OA
ATOM     30  O   UNL     1       5.938  -5.723   2.505  0.00  0.00    -0.240 OA
ENDBRANCH  18  28
BRANCH  13  31
ATOM     31  O   UNL     1      -1.640  -5.647   2.630  0.00  0.00    -0.495 OA
ATOM     32  H   UNL     1      -1.482  -6.554   2.335  0.00  0.00    +0.293 HD
ENDBRANCH  13  31
TORSDOF 3
