REMARK  Name = ZINC11730724
REMARK  6 active torsions:
REMARK  status: ('A' for Active; 'I' for Inactive)
REMARK    1  A    between atoms: C_1  and  C_2
REMARK    2  A    between atoms: C_5  and  C_8
REMARK    3  A    between atoms: C_9  and  S_20
REMARK    4  A    between atoms: N_12  and  C_13
REMARK    5  A    between atoms: C_16  and  N_19
REMARK    6  A    between atoms: S_20  and  C_23
REMARK                            x       y       z     vdW  Elec       q    Type
REMARK                         _______ _______ _______ _____ _____    ______ ____
ROOT
ATOM      1  C   UNL     1      -2.825   1.693   2.461  0.00  0.00    +0.120 A 
ATOM      2  C   UNL     1      -1.766   2.302   1.846  0.00  0.00    +0.231 A 
ATOM      3  N   UNL     1      -1.473   3.378   2.580  0.00  0.00    -0.109 NA
ATOM      4  N   UNL     1      -2.277   3.443   3.581  0.00  0.00    -0.058 NA
ATOM      5  N   UNL     1      -3.105   2.458   3.561  0.00  0.00    -0.210 N 
ENDROOT
BRANCH   1  10
ATOM      6  C   UNL     1      -5.537  -3.096   0.777  0.00  0.00    +0.044 C 
ATOM      7  C   UNL     1      -4.827  -1.842   1.218  0.00  0.00    -0.050 A 
ATOM      8  C   UNL     1      -4.262  -1.778   2.479  0.00  0.00    +0.004 A 
ATOM      9  C   UNL     1      -3.611  -0.632   2.889  0.00  0.00    +0.010 A 
ATOM     10  C   UNL     1      -3.522   0.462   2.028  0.00  0.00    +0.004 A 
ATOM     11  C   UNL     1      -4.098   0.392   0.759  0.00  0.00    +0.010 A 
ATOM     12  C   UNL     1      -4.742  -0.761   0.360  0.00  0.00    +0.004 A 
ENDBRANCH   1  10
BRANCH   5  13
ATOM     13  C   UNL     1      -4.119   2.214   4.499  0.00  0.00    +0.068 A 
ATOM     14  C   UNL     1      -5.328   1.668   4.088  0.00  0.00    +0.029 A 
ATOM     15  C   UNL     1      -6.324   1.424   5.011  0.00  0.00    +0.025 A 
ATOM     16  C   UNL     1      -6.122   1.734   6.350  0.00  0.00    +0.025 A 
ATOM     17  C   UNL     1      -4.914   2.285   6.760  0.00  0.00    +0.025 A 
ATOM     18  C   UNL     1      -3.916   2.524   5.837  0.00  0.00    +0.029 A 
BRANCH  16  19
ATOM     19  N   UNL     1      -7.133   1.492   7.284  0.00  0.00    -0.358 N 
ATOM     20  H   UNL     1      -6.991   1.710   8.219  0.00  0.00    +0.142 HD
ATOM     21  H   UNL     1      -7.976   1.107   6.998  0.00  0.00    +0.142 HD
ENDBRANCH  16  19
ENDBRANCH   5  13
BRANCH   2  22
ATOM     22  S   UNL     1      -0.955   1.776   0.373  0.00  0.00    +0.046 S 
ATOM     23  O   UNL     1      -0.460   2.948  -0.259  0.00  0.00    -0.163 OA
ATOM     24  O   UNL     1      -1.840   0.874  -0.278  0.00  0.00    -0.163 OA
BRANCH  22  25
ATOM     25  C   UNL     1       0.452   0.835   0.862  0.00  0.00    +0.096 A 
ATOM     26  C   UNL     1       0.341  -0.531   1.045  0.00  0.00    +0.027 A 
ATOM     27  C   UNL     1       1.446  -1.271   1.422  0.00  0.00    +0.003 A 
ATOM     28  C   UNL     1       2.663  -0.645   1.617  0.00  0.00    +0.015 A 
ATOM     29  C   UNL     1       2.775   0.721   1.435  0.00  0.00    +0.020 A 
ATOM     30  C   UNL     1       1.668   1.461   1.057  0.00  0.00    +0.042 A 
ATOM     31 BR   UNL     1       4.439   1.578   1.701  0.00  0.00    -0.050 Br
ENDBRANCH  22  25
ENDBRANCH   2  22
TORSDOF 5
