REMARK  Name = ZINC25278928
REMARK  8 active torsions:
REMARK  status: ('A' for Active; 'I' for Inactive)
REMARK    1  A    between atoms: C_1  and  C_2
REMARK    2  A    between atoms: C_12  and  C_14
REMARK    3  A    between atoms: C_14  and  C_16
REMARK    4  A    between atoms: C_14  and  N_19
REMARK    5  A    between atoms: C_16  and  C_17
REMARK    6  A    between atoms: C_16  and  C_18
REMARK    7  A    between atoms: N_19  and  S_20
REMARK    8  A    between atoms: S_20  and  C_23
REMARK                            x       y       z     vdW  Elec       q    Type
REMARK                         _______ _______ _______ _____ _____    ______ ____
ROOT
ATOM      1  C   UNL     1       3.661   0.374   7.569  0.00  0.00    +0.165 C 
ENDROOT
BRANCH   1  12
ATOM      2  C   UNL     1      -2.417  -4.392   1.189  0.00  0.00    +0.008 C 
ATOM      3  C   UNL     1      -1.267  -3.952   2.096  0.00  0.00    -0.009 C 
ATOM      4  C   UNL     1      -0.466  -2.843   1.409  0.00  0.00    +0.010 C 
ATOM      5  C   UNL     1       0.824  -2.568   2.183  0.00  0.00    +0.056 C 
ATOM      6  C   UNL     1       0.473  -2.309   3.644  0.00  0.00    +0.054 A 
ATOM      7  C   UNL     1      -0.728  -2.706   4.140  0.00  0.00    +0.015 A 
ATOM      8  S   UNL     1      -0.642  -2.183   5.831  0.00  0.00    -0.057 S 
ATOM      9  C   UNL     1       0.950  -1.489   5.759  0.00  0.00    +0.165 A 
ATOM     10  N   UNL     1       1.285  -1.698   4.503  0.00  0.00    -0.229 NA
ATOM     11  N   UNL     1       1.681  -0.873   6.768  0.00  0.00    -0.263 N 
ATOM     12  C   UNL     1       2.914  -0.393   6.510  0.00  0.00    +0.238 C 
ATOM     13  O   UNL     1       3.422  -0.580   5.424  0.00  0.00    -0.274 OA
ATOM     14  C   UNL     1      -1.829  -3.408   3.419  0.00  0.00    +0.047 C 
ATOM     15  H   UNL     1       1.253  -0.776   7.776  0.00  0.00    +0.157 HD
ENDBRANCH   1  12
BRANCH   1  16
ATOM     16  C   UNL     1       3.223   1.840   7.542  0.00  0.00    +0.010 C 
ATOM     17  C   UNL     1       3.877   2.590   8.704  0.00  0.00    +0.009 C 
ATOM     18  C   UNL     1       3.653   2.476   6.218  0.00  0.00    +0.009 C 
ENDBRANCH   1  16
BRANCH   1  19
ATOM     19  N   UNL     1       5.101   0.290   7.310  0.00  0.00    -0.178 NA
ATOM     20  H   UNL     1       5.503   0.600   6.335  0.00  0.00    +0.149 HD
BRANCH  19  21
ATOM     21  S   UNL     1       6.090  -0.496   8.381  0.00  0.00    +0.059 S 
ATOM     22  O   UNL     1       7.400  -0.448   7.833  0.00  0.00    -0.153 OA
ATOM     23  O   UNL     1       5.783   0.018   9.670  0.00  0.00    -0.153 OA
BRANCH  21  24
ATOM     24  C   UNL     1       5.609  -2.191   8.387  0.00  0.00    +0.109 A 
ATOM     25  C   UNL     1       4.647  -2.631   9.277  0.00  0.00    +0.032 A 
ATOM     26  C   UNL     1       4.260  -3.959   9.284  0.00  0.00    +0.051 A 
ATOM     27  C   UNL     1       4.849  -4.850   8.403  0.00  0.00    +0.162 A 
ATOM     28  C   UNL     1       5.818  -4.410   7.513  0.00  0.00    +0.164 A 
ATOM     29  C   UNL     1       6.199  -3.079   7.505  0.00  0.00    +0.078 A 
ATOM     30  O   UNL     1       6.392  -5.295   6.648  0.00  0.00    -0.488 OA
ATOM     31  C   UNL     1       7.234  -6.288   7.237  0.00  0.00    +0.232 C 
ATOM     32  C   UNL     1       6.412  -7.470   7.727  0.00  0.00    +0.082 C 
ATOM     33  C   UNL     1       5.468  -7.090   8.857  0.00  0.00    +0.232 C 
ATOM     34  O   UNL     1       4.480  -6.164   8.402  0.00  0.00    -0.488 OA
ENDBRANCH  21  24
ENDBRANCH  19  21
ENDBRANCH   1  19
TORSDOF 5
