REMARK  Name = ZINC33276720
REMARK  10 active torsions:
REMARK  status: ('A' for Active; 'I' for Inactive)
REMARK    1  A    between atoms: C_1  and  C_2
REMARK    2  A    between atoms: C_2  and  C_3
REMARK    3  A    between atoms: C_6  and  N_9
REMARK    4  A    between atoms: N_9  and  S_10
REMARK    5  A    between atoms: S_10  and  C_13
REMARK    6  A    between atoms: C_15  and  C_21
REMARK    7  A    between atoms: C_18  and  O_19
REMARK    8  A    between atoms: O_19  and  C_20
REMARK    9  A    between atoms: C_22  and  C_33
REMARK   10  A    between atoms: C_33  and  C_34
REMARK                            x       y       z     vdW  Elec       q    Type
REMARK                         _______ _______ _______ _____ _____    ______ ____
ROOT
ATOM      1  C   UNL     1       2.009  -5.404   1.056  0.00  0.00    +0.150 A 
ATOM      2  C   UNL     1       1.150  -4.324   1.034  0.00  0.00    +0.041 A 
ATOM      3  C   UNL     1       0.939  -3.629  -0.156  0.00  0.00    -0.011 A 
ATOM      4  C   UNL     1       1.604  -4.020  -1.316  0.00  0.00    +0.012 A 
ATOM      5  C   UNL     1       2.466  -5.097  -1.285  0.00  0.00    +0.048 A 
ATOM      6  C   UNL     1       2.670  -5.791  -0.101  0.00  0.00    +0.147 A 
ENDROOT
BRANCH   3   7
ATOM      7  C   UNL     1       0.011  -2.471  -0.185  0.00  0.00    +0.045 A 
ATOM      8  C   UNL     1      -1.379  -2.512   0.030  0.00  0.00    +0.073 A 
ATOM      9  N   UNL     1      -1.844  -1.300  -0.057  0.00  0.00    -0.167 NA
ATOM     10  N   UNL     1      -0.776  -0.411  -0.291  0.00  0.00    -0.185 N 
ATOM     11  C   UNL     1       0.357  -1.147  -0.431  0.00  0.00    +0.139 A 
ATOM     12  N   UNL     1       1.627  -0.762  -0.812  0.00  0.00    -0.270 N 
ATOM     13  C   UNL     1       2.192   0.429  -0.525  0.00  0.00    +0.219 C 
ATOM     14  O   UNL     1       3.311   0.681  -0.918  0.00  0.00    -0.275 OA
ATOM     15  C   UNL     1       1.437   1.436   0.278  0.00  0.00    +0.105 C 
ATOM     16  C   UNL     1       0.179   1.879  -0.422  0.00  0.00    +0.110 C 
ATOM     17  C   UNL     1      -0.943   0.927  -0.329  0.00  0.00    +0.250 C 
ATOM     18  O   UNL     1      -2.067   1.368  -0.289  0.00  0.00    -0.271 OA
ATOM     19  H   UNL     1       2.258  -1.449  -1.395  0.00  0.00    +0.156 HD
BRANCH   8  20
ATOM     20  C   UNL     1      -2.190  -3.749   0.314  0.00  0.00    +0.054 C 
ATOM     21  C   UNL     1      -2.679  -4.353  -1.004  0.00  0.00    +0.010 C 
ENDBRANCH   8  20
ENDBRANCH   3   7
BRANCH   1  22
ATOM     22  S   UNL     1       2.271  -6.288   2.558  0.00  0.00    +0.076 S 
ATOM     23  O   UNL     1       3.678  -6.388   2.730  0.00  0.00    -0.150 OA
ATOM     24  O   UNL     1       1.425  -5.693   3.533  0.00  0.00    -0.150 OA
BRANCH  22  25
ATOM     25  N   UNL     1       1.712  -7.829   2.323  0.00  0.00    -0.216 N 
ATOM     26  H   UNL     1       2.409  -8.679   2.368  0.00  0.00    +0.174 HD
BRANCH  25  30
ATOM     27  C   UNL     1      -2.329  -8.486   1.566  0.00  0.00    -0.048 A 
ATOM     28  C   UNL     1      -1.371  -9.123   0.799  0.00  0.00    +0.005 A 
ATOM     29  C   UNL     1      -0.029  -8.908   1.048  0.00  0.00    +0.025 A 
ATOM     30  C   UNL     1       0.357  -8.049   2.069  0.00  0.00    +0.048 A 
ATOM     31  C   UNL     1      -0.608  -7.414   2.841  0.00  0.00    +0.025 A 
ATOM     32  C   UNL     1      -1.948  -7.630   2.583  0.00  0.00    +0.005 A 
BRANCH  27  34
ATOM     33  C   UNL     1      -4.281  -9.909   2.125  0.00  0.00    +0.009 C 
ATOM     34  C   UNL     1      -3.791  -8.723   1.291  0.00  0.00    +0.032 C 
ENDBRANCH  27  34
ENDBRANCH  25  30
ENDBRANCH  22  25
ENDBRANCH   1  22
BRANCH   6  35
ATOM     35  O   UNL     1       3.519  -6.852  -0.073  0.00  0.00    -0.493 OA
ATOM     36  C   UNL     1       4.075  -7.270  -1.322  0.00  0.00    +0.277 C 
ENDBRANCH   6  35
TORSDOF 7
