REMARK  Name = ZINC22683156
REMARK  13 active torsions:
REMARK  status: ('A' for Active; 'I' for Inactive)
REMARK    1  A    between atoms: C_1  and  C_2
REMARK    2  A    between atoms: C_2  and  C_3
REMARK    3  A    between atoms: C_2  and  C_4
REMARK    4  A    between atoms: C_4  and  C_6
REMARK    5  A    between atoms: C_4  and  N_22
REMARK    6  A    between atoms: N_8  and  C_9
REMARK    7  A    between atoms: C_9  and  C_10
REMARK    8  A    between atoms: C_10  and  C_12
REMARK    9  A    between atoms: C_10  and  N_19
REMARK   10  A    between atoms: N_19  and  C_20
REMARK   11  A    between atoms: N_19  and  C_21
REMARK   12  A    between atoms: N_22  and  S_23
REMARK   13  A    between atoms: S_23  and  C_26
REMARK                            x       y       z     vdW  Elec       q    Type
REMARK                         _______ _______ _______ _____ _____    ______ ____
ROOT
ATOM      1  C   UNL     1      -1.386   1.886   0.247  0.00  0.00    +0.165 C 
ENDROOT
BRANCH   1   2
ATOM      2  C   UNL     1      -2.002   2.205  -1.091  0.00  0.00    +0.232 C 
ATOM      3  O   UNL     1      -3.051   2.811  -1.147  0.00  0.00    -0.274 OA
ATOM      4  N   UNL     1      -1.388   1.815  -2.226  0.00  0.00    -0.315 N 
ATOM      5  H   UNL     1      -0.478   1.200  -2.175  0.00  0.00    +0.149 HD
BRANCH   4   6
ATOM      6  C   UNL     1      -1.933   2.212  -3.527  0.00  0.00    +0.093 C 
BRANCH   6   7
ATOM      7  C   UNL     1      -1.054   1.643  -4.643  0.00  0.00    -0.021 C 
BRANCH   7   8
ATOM      8  C   UNL     1      -1.680   1.946  -5.979  0.00  0.00    -0.057 A 
ATOM      9  C   UNL     1      -0.907   2.460  -7.004  0.00  0.00    +0.002 A 
ATOM     10  C   UNL     1      -1.480   2.739  -8.231  0.00  0.00    +0.003 A 
ATOM     11  C   UNL     1      -2.827   2.503  -8.434  0.00  0.00    +0.038 A 
ATOM     12  C   UNL     1      -3.602   1.989  -7.409  0.00  0.00    +0.124 A 
ATOM     13  C   UNL     1      -3.025   1.705  -6.182  0.00  0.00    +0.040 A 
ATOM     14  F   UNL     1      -4.918   1.758  -7.607  0.00  0.00    -0.205 F 
ENDBRANCH   7   8
BRANCH   7  15
ATOM     15  N   UNL     1      -0.932   0.189  -4.477  0.00  0.00    +0.382 N 
ATOM     16  C   UNL     1      -2.242  -0.466  -4.593  0.00  0.00    -0.096 C 
ATOM     17  C   UNL     1       0.024  -0.372  -5.441  0.00  0.00    -0.096 C 
ATOM     18  H   UNL     1      -0.545  -0.005  -3.466  0.00  0.00    -0.082 HD
ENDBRANCH   7  15
ENDBRANCH   6   7
ENDBRANCH   4   6
ENDBRANCH   1   2
BRANCH   1  20
ATOM     19  C   UNL     1      -1.193   4.307   0.834  0.00  0.00    +0.009 C 
ATOM     20  C   UNL     1      -0.417   3.002   0.640  0.00  0.00    +0.010 C 
ATOM     21  C   UNL     1       0.287   2.629   1.947  0.00  0.00    +0.009 C 
ENDBRANCH   1  20
BRANCH   1  22
ATOM     22  N   UNL     1      -2.441   1.777   1.257  0.00  0.00    -0.178 NA
ATOM     23  H   UNL     1      -2.653   2.625   1.925  0.00  0.00    +0.149 HD
BRANCH  22  24
ATOM     24  S   UNL     1      -3.145   0.310   1.564  0.00  0.00    +0.059 S 
ATOM     25  O   UNL     1      -4.126   0.531   2.568  0.00  0.00    -0.153 OA
ATOM     26  O   UNL     1      -3.463  -0.260   0.301  0.00  0.00    -0.153 OA
BRANCH  24  27
ATOM     27  C   UNL     1      -1.910  -0.720   2.284  0.00  0.00    +0.106 A 
ATOM     28  C   UNL     1      -1.119  -1.521   1.462  0.00  0.00    +0.029 A 
ATOM     29  C   UNL     1      -0.153  -2.323   1.986  0.00  0.00    +0.010 A 
ATOM     30  C   UNL     1       0.045  -2.357   3.377  0.00  0.00    -0.018 A 
ATOM     31  C   UNL     1       1.028  -3.178   3.955  0.00  0.00    +0.008 A 
ATOM     32  C   UNL     1       1.191  -3.183   5.306  0.00  0.00    +0.001 A 
ATOM     33  C   UNL     1       0.397  -2.387   6.128  0.00  0.00    +0.001 A 
ATOM     34  C   UNL     1      -0.566  -1.580   5.604  0.00  0.00    +0.008 A 
ATOM     35  C   UNL     1      -0.763  -1.546   4.213  0.00  0.00    -0.016 A 
ATOM     36  C   UNL     1      -1.747  -0.726   3.635  0.00  0.00    +0.037 A 
ENDBRANCH  24  27
ENDBRANCH  22  24
ENDBRANCH   1  22
TORSDOF 9
