REMARK  Name = ZINC05547246
REMARK  7 active torsions:
REMARK  status: ('A' for Active; 'I' for Inactive)
REMARK    1  A    between atoms: C_1  and  C_2
REMARK    2  A    between atoms: C_5  and  N_9
REMARK    3  A    between atoms: N_9  and  C_10
REMARK    4  A    between atoms: C_10  and  N_11
REMARK    5  A    between atoms: C_15  and  C_16
REMARK    6  A    between atoms: C_19  and  O_22
REMARK    7  A    between atoms: O_22  and  C_23
REMARK                            x       y       z     vdW  Elec       q    Type
REMARK                         _______ _______ _______ _____ _____    ______ ____
ROOT
ATOM      1  N   UNL     1      -1.499   1.778  -0.772  0.00  0.00    -0.212 N 
ATOM      2  C   UNL     1      -2.428   0.914  -1.147  0.00  0.00    +0.262 C 
ATOM      3  O   UNL     1      -2.562  -0.161  -0.593  0.00  0.00    -0.269 OA
ATOM      4  C   UNL     1      -3.298   1.323  -2.268  0.00  0.00    +0.080 C 
ATOM      5  C   UNL     1      -4.322   0.654  -2.856  0.00  0.00    +0.028 C 
ATOM      6  S   UNL     1      -2.626   2.936  -2.642  0.00  0.00    -0.026 S 
ATOM      7  C   UNL     1      -1.351   2.966  -1.392  0.00  0.00    +0.287 C 
ATOM      8  O   UNL     1      -0.544   3.845  -1.157  0.00  0.00    -0.262 OA
ENDROOT
BRANCH   5   9
ATOM      9  C   UNL     1      -4.590  -0.743  -2.495  0.00  0.00    -0.024 A 
ATOM     10  C   UNL     1      -3.528  -1.631  -2.283  0.00  0.00    +0.011 A 
ATOM     11  C   UNL     1      -3.785  -2.939  -1.938  0.00  0.00    +0.046 A 
ATOM     12  C   UNL     1      -5.097  -3.382  -1.813  0.00  0.00    +0.120 A 
ATOM     13  C   UNL     1      -6.155  -2.507  -2.028  0.00  0.00    +0.046 A 
ATOM     14  C   UNL     1      -5.910  -1.195  -2.367  0.00  0.00    +0.011 A 
BRANCH  12  15
ATOM     15  O   UNL     1      -5.345  -4.674  -1.479  0.00  0.00    -0.495 OA
ATOM     16  C   UNL     1      -4.212  -5.520  -1.272  0.00  0.00    +0.277 C 
ENDBRANCH  12  15
ENDBRANCH   5   9
BRANCH   1  17
ATOM     17  C   UNL     1      -0.607   1.433   0.338  0.00  0.00    +0.222 C 
BRANCH  17  18
ATOM     18  N   UNL     1      -1.307   1.638   1.608  0.00  0.00    -0.328 N 
ATOM     19  H   UNL     1      -1.848   0.926   1.984  0.00  0.00    +0.148 HD
BRANCH  18  24
ATOM     20  C   UNL     1      -0.850   6.593   4.330  0.00  0.00    +0.045 C 
ATOM     21  C   UNL     1      -0.972   5.276   3.607  0.00  0.00    -0.032 A 
ATOM     22  C   UNL     1      -0.245   5.053   2.451  0.00  0.00    +0.006 A 
ATOM     23  C   UNL     1      -0.350   3.846   1.790  0.00  0.00    +0.023 A 
ATOM     24  C   UNL     1      -1.195   2.858   2.279  0.00  0.00    +0.030 A 
ATOM     25  C   UNL     1      -1.924   3.083   3.439  0.00  0.00    +0.043 A 
ATOM     26  C   UNL     1      -1.811   4.292   4.100  0.00  0.00    +0.046 A 
ATOM     27 CL   UNL     1      -2.722   4.576   5.551  0.00  0.00    -0.083 Cl
ENDBRANCH  18  24
ENDBRANCH  17  18
ENDBRANCH   1  17
TORSDOF 5
