REMARK  Name = ZINC23879753
REMARK  8 active torsions:
REMARK  status: ('A' for Active; 'I' for Inactive)
REMARK    1  A    between atoms: C_1  and  C_2
REMARK    2  A    between atoms: C_12  and  C_14
REMARK    3  A    between atoms: N_17  and  S_20
REMARK    4  A    between atoms: S_20  and  C_23
REMARK    5  A    between atoms: C_26  and  C_29
REMARK    6  A    between atoms: C_29  and  C_30
REMARK    7  A    between atoms: C_29  and  C_31
REMARK    8  A    between atoms: C_29  and  C_32
REMARK                            x       y       z     vdW  Elec       q    Type
REMARK                         _______ _______ _______ _____ _____    ______ ____
ROOT
ATOM      1  C   UNL     1       1.154   2.693  -0.424  0.00  0.00    +0.078 C 
ATOM      2  C   UNL     1      -0.254   2.516  -0.998  0.00  0.00    +0.030 C 
ATOM      3  C   UNL     1      -0.583   1.023  -1.082  0.00  0.00    +0.110 C 
ATOM      4  N   UNL     1      -0.392   0.421   0.244  0.00  0.00    -0.177 NA
ATOM      5  C   UNL     1       0.896   0.607   0.926  0.00  0.00    +0.110 C 
ATOM      6  C   UNL     1       1.209   2.106   0.988  0.00  0.00    +0.030 C 
ENDROOT
BRANCH   1  17
ATOM      7  C   UNL     1       4.149   2.866  -1.202  0.00  0.00    +0.029 C 
ATOM      8  C   UNL     1       3.893   3.647   0.088  0.00  0.00    +0.083 C 
ATOM      9  C   UNL     1       5.088   4.563   0.399  0.00  0.00    +0.059 C 
ATOM     10  C   UNL     1       4.510   5.960   0.390  0.00  0.00    -0.024 A 
ATOM     11  C   UNL     1       5.104   7.189   0.609  0.00  0.00    +0.005 A 
ATOM     12  C   UNL     1       4.351   8.346   0.544  0.00  0.00    +0.000 A 
ATOM     13  C   UNL     1       3.000   8.272   0.260  0.00  0.00    +0.002 A 
ATOM     14  C   UNL     1       2.402   7.049   0.042  0.00  0.00    +0.024 A 
ATOM     15  C   UNL     1       3.157   5.875   0.105  0.00  0.00    +0.040 A 
ATOM     16  N   UNL     1       2.752   4.550  -0.082  0.00  0.00    -0.268 N 
ATOM     17  C   UNL     1       1.494   4.160  -0.372  0.00  0.00    +0.223 C 
ATOM     18  O   UNL     1       0.637   4.990  -0.590  0.00  0.00    -0.275 OA
ENDBRANCH   1  17
BRANCH   4  19
ATOM     19  S   UNL     1      -1.605  -0.452   0.958  0.00  0.00    +0.061 S 
ATOM     20  O   UNL     1      -1.365  -0.411   2.358  0.00  0.00    -0.153 OA
ATOM     21  O   UNL     1      -2.823  -0.003   0.380  0.00  0.00    -0.153 OA
BRANCH  19  22
ATOM     22  C   UNL     1      -1.401  -2.130   0.461  0.00  0.00    +0.105 A 
ATOM     23  C   UNL     1      -2.026  -2.594  -0.682  0.00  0.00    +0.029 A 
ATOM     24  C   UNL     1      -1.862  -3.909  -1.074  0.00  0.00    +0.006 A 
ATOM     25  C   UNL     1      -1.081  -4.764  -0.318  0.00  0.00    -0.042 A 
ATOM     26  C   UNL     1      -0.461  -4.302   0.827  0.00  0.00    +0.006 A 
ATOM     27  C   UNL     1      -0.621  -2.985   1.217  0.00  0.00    +0.029 A 
BRANCH  25  28
ATOM     28  C   UNL     1      -0.908  -6.199  -0.743  0.00  0.00    -0.013 C 
ATOM     29  C   UNL     1      -1.430  -7.123   0.359  0.00  0.00    +0.015 C 
ATOM     30  C   UNL     1      -1.693  -6.448  -2.032  0.00  0.00    +0.015 C 
ATOM     31  C   UNL     1       0.576  -6.483  -0.986  0.00  0.00    +0.015 C 
ENDBRANCH  25  28
ENDBRANCH  19  22
ENDBRANCH   4  19
TORSDOF 4
