REMARK  Name = ZINC39658463
REMARK  13 active torsions:
REMARK  status: ('A' for Active; 'I' for Inactive)
REMARK    1  A    between atoms: C_1  and  O_2
REMARK    2  A    between atoms: O_2  and  C_3
REMARK    3  A    between atoms: C_5  and  C_13
REMARK    4  A    between atoms: C_7  and  O_11
REMARK    5  A    between atoms: C_8  and  O_9
REMARK    6  A    between atoms: O_9  and  C_10
REMARK    7  A    between atoms: O_11  and  C_12
REMARK    8  A    between atoms: C_17  and  C_26
REMARK    9  A    between atoms: N_28  and  C_29
REMARK   10  A    between atoms: C_29  and  C_30
REMARK   11  A    between atoms: C_30  and  S_31
REMARK   12  A    between atoms: S_31  and  C_32
REMARK   13  A    between atoms: C_32  and  C_33
REMARK                            x       y       z     vdW  Elec       q    Type
REMARK                         _______ _______ _______ _____ _____    ______ ____
ROOT
ATOM      1  C   UNL     1       2.459   0.316   4.193  0.00  0.00    +0.247 C 
ATOM      2  O   UNL     1       2.506   1.527   4.097  0.00  0.00    -0.270 OA
ATOM      3  N   UNL     1       2.986  -0.296   5.272  0.00  0.00    -0.296 N 
ATOM      4  C   UNL     1       3.140  -1.751   5.506  0.00  0.00    +0.121 C 
ATOM      5  C   UNL     1       4.517  -1.892   6.194  0.00  0.00    +0.100 C 
ATOM      6  C   UNL     1       4.774  -0.521   6.841  0.00  0.00    -0.004 C 
ATOM      7  C   UNL     1       3.549   0.335   6.490  0.00  0.00    +0.115 C 
ATOM      8  C   UNL     1       6.035   0.110   6.258  0.00  0.00    -0.010 C 
ATOM      9  C   UNL     1       6.302   1.446   6.957  0.00  0.00    -0.082 C 
ATOM     10  N   UNL     1       6.465   1.222   8.399  0.00  0.00    +0.379 N 
ATOM     11  C   UNL     1       5.216   0.702   8.968  0.00  0.00    -0.082 C 
ATOM     12  C   UNL     1       4.903  -0.665   8.354  0.00  0.00    -0.010 C 
ATOM     13  H   UNL     1       7.206   0.556   8.553  0.00  0.00    -0.086 HD
ATOM     14  H   UNL     1       6.701   2.094   8.848  0.00  0.00    -0.086 HD
ENDROOT
BRANCH   1  17
ATOM     15  C   UNL     1       0.710  -2.496   2.418  0.00  0.00    +0.166 A 
ATOM     16  C   UNL     1       1.305  -1.749   3.417  0.00  0.00    +0.062 A 
ATOM     17  C   UNL     1       1.824  -0.485   3.127  0.00  0.00    +0.044 A 
ATOM     18  C   UNL     1       1.742   0.020   1.828  0.00  0.00    +0.062 A 
ATOM     19  C   UNL     1       1.146  -0.731   0.832  0.00  0.00    +0.166 A 
ATOM     20  C   UNL     1       0.634  -1.993   1.122  0.00  0.00    +0.204 A 
BRANCH  15  22
ATOM     21  C   UNL     1       0.317  -4.181   4.050  0.00  0.00    +0.277 C 
ATOM     22  O   UNL     1       0.205  -3.727   2.700  0.00  0.00    -0.491 OA
ENDBRANCH  15  22
BRANCH  20  23
ATOM     23  O   UNL     1       0.054  -2.732   0.140  0.00  0.00    -0.488 OA
ATOM     24  C   UNL     1      -1.351  -2.559  -0.058  0.00  0.00    +0.277 C 
ENDBRANCH  20  23
BRANCH  19  25
ATOM     25  O   UNL     1       1.065  -0.240  -0.434  0.00  0.00    -0.491 OA
ATOM     26  C   UNL     1       1.616   1.059  -0.662  0.00  0.00    +0.277 C 
ENDBRANCH  19  25
ENDBRANCH   1  17
BRANCH   5  27
ATOM     27  C   UNL     1       5.583  -2.203   5.176  0.00  0.00    +0.218 C 
ATOM     28  O   UNL     1       5.518  -1.723   4.064  0.00  0.00    -0.275 OA
ATOM     29  N   UNL     1       6.609  -3.015   5.501  0.00  0.00    -0.314 N 
ATOM     30  H   UNL     1       6.661  -3.399   6.390  0.00  0.00    +0.149 HD
BRANCH  29  31
ATOM     31  C   UNL     1       7.645  -3.317   4.511  0.00  0.00    +0.115 C 
BRANCH  31  32
ATOM     32  C   UNL     1       8.685  -4.254   5.130  0.00  0.00    +0.088 C 
BRANCH  32  33
ATOM     33  S   UNL     1       9.968  -4.628   3.904  0.00  0.00    -0.155 S 
BRANCH  33  34
ATOM     34  C   UNL     1      11.106  -5.733   4.784  0.00  0.00    +0.104 C 
BRANCH  34  35
ATOM     35  C   UNL     1      12.235  -6.126   3.866  0.00  0.00    -0.038 A 
ATOM     36  C   UNL     1      12.120  -7.249   3.069  0.00  0.00    +0.004 A 
ATOM     37  C   UNL     1      13.155  -7.609   2.228  0.00  0.00    +0.000 A 
ATOM     38  C   UNL     1      14.306  -6.846   2.182  0.00  0.00    +0.000 A 
ATOM     39  C   UNL     1      14.422  -5.722   2.978  0.00  0.00    +0.000 A 
ATOM     40  C   UNL     1      13.385  -5.359   3.817  0.00  0.00    +0.004 A 
ENDBRANCH  34  35
ENDBRANCH  33  34
ENDBRANCH  32  33
ENDBRANCH  31  32
ENDBRANCH  29  31
ENDBRANCH   5  27
TORSDOF 10
