REMARK  Name = ZINC08980475
REMARK  12 active torsions:
REMARK  status: ('A' for Active; 'I' for Inactive)
REMARK    1  A    between atoms: C_1  and  C_2
REMARK    2  A    between atoms: C_2  and  C_4
REMARK    3  A    between atoms: C_2  and  N_16
REMARK    4  A    between atoms: C_7  and  C_10
REMARK    5  A    between atoms: C_17  and  C_19
REMARK    6  A    between atoms: C_19  and  N_20
REMARK    7  A    between atoms: C_23  and  C_27
REMARK    8  A    between atoms: C_23  and  C_28
REMARK    9  A    between atoms: C_31  and  C_34
REMARK   10  A    between atoms: C_34  and  C_35
REMARK   11  A    between atoms: C_34  and  C_36
REMARK   12  A    between atoms: C_34  and  C_37
REMARK                            x       y       z     vdW  Elec       q    Type
REMARK                         _______ _______ _______ _____ _____    ______ ____
ROOT
ATOM      1  C   UNL     1       1.720   3.289   0.002  0.00  0.00    +0.213 C 
ENDROOT
BRANCH   1   2
ATOM      2  N   UNL     1       1.274   1.894   0.000  0.00  0.00    -0.215 N 
ATOM      3  C   UNL     1      -0.018   1.512   0.010  0.00  0.00    +0.251 C 
ATOM      4  O   UNL     1      -0.995   2.231   0.019  0.00  0.00    -0.272 OA
ATOM      5  C   UNL     1       0.002  -0.004   0.002  0.00  0.00    +0.135 C 
ATOM      6  N   UNL     1       1.438  -0.331  -0.013  0.00  0.00    -0.281 N 
ATOM      7  C   UNL     1       2.099   0.841  -0.013  0.00  0.00    +0.310 C 
ATOM      8  O   UNL     1       3.311   0.933  -0.025  0.00  0.00    -0.252 OA
ATOM      9  C   UNL     1      -0.686  -0.545  -1.253  0.00  0.00    +0.047 C 
ATOM     10  H   UNL     1       1.831  -1.218  -0.022  0.00  0.00    +0.152 HD
BRANCH   5  11
ATOM     11  C   UNL     1      -0.652  -0.550   1.245  0.00  0.00    -0.015 A 
ATOM     12  C   UNL     1      -1.662   0.163   1.865  0.00  0.00    +0.006 A 
ATOM     13  C   UNL     1      -2.265  -0.340   3.002  0.00  0.00    +0.004 A 
ATOM     14  C   UNL     1      -1.853  -1.551   3.525  0.00  0.00    -0.042 A 
ATOM     15  C   UNL     1      -0.840  -2.262   2.908  0.00  0.00    +0.004 A 
ATOM     16  C   UNL     1      -0.240  -1.761   1.768  0.00  0.00    +0.006 A 
BRANCH  14  17
ATOM     17  C   UNL     1      -2.507  -2.097   4.769  0.00  0.00    -0.013 C 
ATOM     18  C   UNL     1      -1.454  -2.268   5.865  0.00  0.00    +0.015 C 
ATOM     19  C   UNL     1      -3.587  -1.124   5.245  0.00  0.00    +0.015 C 
ATOM     20  C   UNL     1      -3.143  -3.453   4.457  0.00  0.00    +0.015 C 
ENDBRANCH  14  17
ENDBRANCH   5  11
ENDBRANCH   1   2
BRANCH   1  22
ATOM     21  N   UNL     1       2.291   5.022   1.672  0.00  0.00    -0.307 N 
ATOM     22  C   UNL     1       1.886   3.761   1.424  0.00  0.00    +0.231 C 
ATOM     23  O   UNL     1       1.655   3.006   2.344  0.00  0.00    -0.274 OA
ATOM     24  H   UNL     1       2.476   5.626   0.936  0.00  0.00    +0.149 HD
BRANCH  21  26
ATOM     25  C   UNL     1       1.104   5.965   3.592  0.00  0.00    +0.033 C 
ATOM     26  C   UNL     1       2.453   5.481   3.054  0.00  0.00    +0.100 C 
BRANCH  26  27
ATOM     27  C   UNL     1       3.445   6.614   3.094  0.00  0.00    -0.027 A 
ATOM     28  C   UNL     1       3.437   7.574   2.098  0.00  0.00    +0.006 A 
ATOM     29  C   UNL     1       4.340   8.616   2.133  0.00  0.00    +0.009 A 
ATOM     30  C   UNL     1       5.270   8.695   3.168  0.00  0.00    -0.018 A 
ATOM     31  C   UNL     1       5.278   7.723   4.166  0.00  0.00    +0.009 A 
ATOM     32  C   UNL     1       4.366   6.688   4.124  0.00  0.00    +0.006 A 
BRANCH  30  33
ATOM     33  C   UNL     1       6.248   9.810   3.207  0.00  0.00    -0.018 A 
ATOM     34  C   UNL     1       7.174   9.892   4.245  0.00  0.00    +0.008 A 
ATOM     35  C   UNL     1       8.084  10.929   4.274  0.00  0.00    +0.001 A 
ATOM     36  C   UNL     1       8.072  11.892   3.281  0.00  0.00    +0.000 A 
ATOM     37  C   UNL     1       7.152  11.818   2.251  0.00  0.00    +0.001 A 
ATOM     38  C   UNL     1       6.240  10.783   2.209  0.00  0.00    +0.008 A 
ENDBRANCH  30  33
ENDBRANCH  26  27
ENDBRANCH  21  26
ENDBRANCH   1  22
TORSDOF 7
