REMARK  Name = ZINC32876602
REMARK  6 active torsions:
REMARK  status: ('A' for Active; 'I' for Inactive)
REMARK    1  A    between atoms: C_4  and  C_7
REMARK    2  A    between atoms: C_7  and  C_8
REMARK    3  A    between atoms: C_8  and  C_10
REMARK    4  A    between atoms: C_8  and  N_16
REMARK    5  A    between atoms: N_16  and  S_17
REMARK    6  A    between atoms: S_17  and  C_20
REMARK                            x       y       z     vdW  Elec       q    Type
REMARK                         _______ _______ _______ _____ _____    ______ ____
ROOT
ATOM      1  S   UNL     1       4.124   0.505   3.670  0.00  0.00    +0.059 S 
ATOM      2  O   UNL     1       4.524   1.825   4.013  0.00  0.00    -0.153 OA
ATOM      3  O   UNL     1       2.799   0.034   3.874  0.00  0.00    -0.153 OA
ENDROOT
BRANCH   1   4
ATOM      4  C   UNL     1       5.189  -0.589   4.550  0.00  0.00    +0.107 A 
ATOM      5  C   UNL     1       4.777  -1.882   4.822  0.00  0.00    +0.030 A 
ATOM      6  C   UNL     1       5.604  -2.745   5.511  0.00  0.00    +0.030 A 
ATOM      7  C   UNL     1       6.858  -2.317   5.935  0.00  0.00    +0.066 A 
ATOM      8  C   UNL     1       7.274  -1.013   5.660  0.00  0.00    +0.068 A 
ATOM      9  C   UNL     1       6.433  -0.155   4.959  0.00  0.00    +0.056 A 
ATOM     10  N   UNL     1       8.524  -0.566   6.076  0.00  0.00    -0.316 N 
ATOM     11  H   UNL     1       8.804   0.342   5.880  0.00  0.00    +0.169 HD
ATOM     12  C   UNL     1       9.348  -1.393   6.751  0.00  0.00    +0.314 A 
ATOM     13  O   UNL     1      10.440  -1.008   7.117  0.00  0.00    -0.262 OA
ATOM     14  C   UNL     1       8.904  -2.787   7.044  0.00  0.00    +0.314 A 
ATOM     15  O   UNL     1       9.631  -3.547   7.651  0.00  0.00    -0.262 OA
ATOM     16  N   UNL     1       7.687  -3.193   6.630  0.00  0.00    -0.316 N 
ATOM     17  H   UNL     1       7.389  -4.097   6.816  0.00  0.00    +0.169 HD
ENDBRANCH   1   4
BRANCH   1  18
ATOM     18  N   UNL     1       4.451   0.315   2.057  0.00  0.00    -0.182 NA
ATOM     19  H   UNL     1       4.828   1.050   1.549  0.00  0.00    +0.149 HD
BRANCH  18  20
ATOM     20  C   UNL     1       4.171  -0.963   1.399  0.00  0.00    +0.111 C 
BRANCH  20  21
ATOM     21  C   UNL     1       5.422  -1.804   1.383  0.00  0.00    -0.029 A 
ATOM     22  C   UNL     1       6.648  -1.216   1.138  0.00  0.00    +0.005 A 
ATOM     23  C   UNL     1       7.795  -1.987   1.124  0.00  0.00    +0.000 A 
ATOM     24  C   UNL     1       7.715  -3.348   1.355  0.00  0.00    +0.000 A 
ATOM     25  C   UNL     1       6.489  -3.937   1.602  0.00  0.00    +0.000 A 
ATOM     26  C   UNL     1       5.343  -3.164   1.620  0.00  0.00    +0.005 A 
ENDBRANCH  20  21
BRANCH  20  27
ATOM     27  C   UNL     1       3.711  -0.707  -0.038  0.00  0.00    +0.060 C 
BRANCH  27  31
ATOM     28  C   UNL     1      -0.017   1.378   0.010  0.00  0.00    +0.000 A 
ATOM     29  C   UNL     1       1.171   2.086   0.002  0.00  0.00    +0.000 A 
ATOM     30  C   UNL     1       2.377   1.411  -0.013  0.00  0.00    +0.004 A 
ATOM     31  C   UNL     1       2.396   0.029  -0.020  0.00  0.00    -0.046 A 
ATOM     32  C   UNL     1       1.208  -0.679  -0.012  0.00  0.00    +0.004 A 
ATOM     33  C   UNL     1       0.002  -0.004   0.002  0.00  0.00    +0.000 A 
ENDBRANCH  27  31
ENDBRANCH  20  27
ENDBRANCH  18  20
ENDBRANCH   1  18
TORSDOF 6
