REMARK  Name = ZINC39675290
REMARK  15 active torsions:
REMARK  status: ('A' for Active; 'I' for Inactive)
REMARK    1  A    between atoms: C_1  and  C_2
REMARK    2  A    between atoms: C_2  and  C_4
REMARK    3  A    between atoms: C_2  and  N_14
REMARK    4  A    between atoms: C_4  and  C_5
REMARK    5  A    between atoms: C_5  and  C_6
REMARK    6  A    between atoms: C_9  and  O_12
REMARK    7  A    between atoms: O_12  and  C_13
REMARK    8  A    between atoms: C_15  and  C_17
REMARK    9  A    between atoms: C_28  and  C_30
REMARK   10  A    between atoms: C_32  and  O_40
REMARK   11  A    between atoms: C_33  and  O_38
REMARK   12  A    between atoms: C_34  and  O_36
REMARK   13  A    between atoms: O_36  and  C_37
REMARK   14  A    between atoms: O_38  and  C_39
REMARK   15  A    between atoms: O_40  and  C_41
REMARK                            x       y       z     vdW  Elec       q    Type
REMARK                         _______ _______ _______ _____ _____    ______ ____
ROOT
ATOM      1  C   UNL     1      -2.950  -1.576  -1.327  0.00  0.00    +0.100 C 
ATOM      2  C   UNL     1      -3.270  -2.968  -0.740  0.00  0.00    +0.121 C 
ATOM      3  N   UNL     1      -4.369  -3.489  -1.587  0.00  0.00    -0.296 N 
ATOM      4  C   UNL     1      -4.010  -3.061  -2.960  0.00  0.00    +0.115 C 
ATOM      5  C   UNL     1      -3.437  -1.641  -2.785  0.00  0.00    -0.004 C 
ATOM      6  C   UNL     1      -2.269  -1.422  -3.742  0.00  0.00    -0.010 C 
ATOM      7  C   UNL     1      -2.787  -1.433  -5.183  0.00  0.00    -0.082 C 
ATOM      8  N   UNL     1      -3.789  -0.374  -5.353  0.00  0.00    +0.379 N 
ATOM      9  C   UNL     1      -4.951  -0.643  -4.496  0.00  0.00    -0.082 C 
ATOM     10  C   UNL     1      -4.524  -0.598  -3.026  0.00  0.00    -0.010 C 
ATOM     11  C   UNL     1      -5.451  -4.192  -1.196  0.00  0.00    +0.247 C 
ATOM     12  O   UNL     1      -5.674  -4.356  -0.013  0.00  0.00    -0.270 OA
ATOM     13  H   UNL     1      -3.384   0.514  -5.099  0.00  0.00    -0.086 HD
ATOM     14  H   UNL     1      -4.085  -0.344  -6.317  0.00  0.00    -0.086 HD
ENDROOT
BRANCH  11  15
ATOM     15  C   UNL     1      -6.364  -4.761  -2.206  0.00  0.00    +0.044 A 
ATOM     16  C   UNL     1      -5.920  -4.968  -3.514  0.00  0.00    +0.062 A 
ATOM     17  C   UNL     1      -6.777  -5.502  -4.458  0.00  0.00    +0.166 A 
ATOM     18  C   UNL     1      -8.083  -5.834  -4.106  0.00  0.00    +0.204 A 
ATOM     19  C   UNL     1      -8.528  -5.629  -2.803  0.00  0.00    +0.166 A 
ATOM     20  C   UNL     1      -7.673  -5.101  -1.854  0.00  0.00    +0.062 A 
BRANCH  19  21
ATOM     21  O   UNL     1      -9.804  -5.953  -2.462  0.00  0.00    -0.491 OA
ATOM     22  C   UNL     1     -10.194  -5.716  -1.108  0.00  0.00    +0.277 C 
ENDBRANCH  19  21
BRANCH  18  23
ATOM     23  O   UNL     1      -8.924  -6.359  -5.035  0.00  0.00    -0.488 OA
ATOM     24  C   UNL     1      -8.943  -7.782  -5.164  0.00  0.00    +0.277 C 
ENDBRANCH  18  23
BRANCH  17  25
ATOM     25  O   UNL     1      -6.346  -5.704  -5.732  0.00  0.00    -0.491 OA
ATOM     26  C   UNL     1      -4.995  -5.340  -6.024  0.00  0.00    +0.277 C 
ENDBRANCH  17  25
ENDBRANCH  11  15
BRANCH   1  28
ATOM     27  N   UNL     1      -1.008  -0.054  -1.149  0.00  0.00    -0.312 N 
ATOM     28  C   UNL     1      -1.467  -1.315  -1.281  0.00  0.00    +0.218 C 
ATOM     29  O   UNL     1      -0.686  -2.239  -1.361  0.00  0.00    -0.275 OA
ATOM     30  H   UNL     1      -1.633   0.685  -1.084  0.00  0.00    +0.149 HD
BRANCH  27  32
ATOM     31  C   UNL     1       0.978   0.307  -2.529  0.00  0.00    +0.028 C 
ATOM     32  C   UNL     1       0.434   0.200  -1.103  0.00  0.00    +0.070 C 
BRANCH  32  33
ATOM     33  C   UNL     1       0.698   1.509  -0.357  0.00  0.00    +0.026 C 
BRANCH  33  34
ATOM     34  C   UNL     1       0.267   1.359   1.103  0.00  0.00    +0.037 C 
BRANCH  34  35
ATOM     35  C   UNL     1       0.527   2.649   1.839  0.00  0.00    -0.047 A 
ATOM     36  C   UNL     1       1.747   2.858   2.455  0.00  0.00    +0.007 A 
ATOM     37  C   UNL     1       1.987   4.039   3.130  0.00  0.00    +0.046 A 
ATOM     38  C   UNL     1       1.004   5.016   3.189  0.00  0.00    +0.120 A 
ATOM     39  C   UNL     1      -0.219   4.804   2.569  0.00  0.00    +0.046 A 
ATOM     40  C   UNL     1      -0.453   3.623   1.891  0.00  0.00    +0.007 A 
BRANCH  38  41
ATOM     41  O   UNL     1       1.238   6.178   3.852  0.00  0.00    -0.495 OA
ATOM     42  C   UNL     1       0.181   7.139   3.871  0.00  0.00    +0.277 C 
ENDBRANCH  38  41
ENDBRANCH  34  35
ENDBRANCH  33  34
ENDBRANCH  32  33
ENDBRANCH  27  32
ENDBRANCH   1  28
TORSDOF 10
