REMARK  Name = ZINC12401699
REMARK  7 active torsions:
REMARK  status: ('A' for Active; 'I' for Inactive)
REMARK    1  A    between atoms: C_1  and  C_2
REMARK    2  A    between atoms: C_2  and  C_3
REMARK    3  A    between atoms: C_2  and  S_4
REMARK    4  A    between atoms: S_4  and  C_5
REMARK    5  A    between atoms: C_13  and  C_20
REMARK    6  A    between atoms: C_15  and  C_18
REMARK    7  A    between atoms: C_16  and  N_17
REMARK                            x       y       z     vdW  Elec       q    Type
REMARK                         _______ _______ _______ _____ _____    ______ ____
ROOT
ATOM      1  C   UNL     1       1.273  -4.441  -1.498  0.00  0.00    +0.160 A 
ATOM      2  N   UNL     1       1.186  -4.273  -0.186  0.00  0.00    -0.133 NA
ATOM      3  N   UNL     1       1.155  -3.126   0.338  0.00  0.00    -0.124 NA
ATOM      4  C   UNL     1       1.208  -2.021  -0.388  0.00  0.00    +0.194 A 
ATOM      5  S   UNL     1       1.308  -2.732  -2.029  0.00  0.00    -0.024 S 
ATOM      6  N   UNL     1       1.187  -0.686   0.009  0.00  0.00    -0.237 N 
ATOM      7  C   UNL     1      -0.007  -0.017   0.081  0.00  0.00    +0.026 C 
ATOM      8  C   UNL     1      -0.041   1.333   0.067  0.00  0.00    +0.027 C 
ATOM      9  C   UNL     1       1.229   2.139  -0.027  0.00  0.00    +0.117 C 
ATOM     10  C   UNL     1       2.427   1.308   0.326  0.00  0.00    +0.078 C 
ATOM     11  C   UNL     1       2.365  -0.049   0.328  0.00  0.00    +0.108 C 
ATOM     12  C   UNL     1      -1.262   2.027   0.134  0.00  0.00    +0.162 C 
ATOM     13  O   UNL     1      -1.257   3.242   0.137  0.00  0.00    -0.292 OA
ATOM     14  C   UNL     1      -2.574   1.294   0.205  0.00  0.00    +0.080 C 
ATOM     15  C   UNL     1      -2.424  -0.063  -0.490  0.00  0.00    +0.014 C 
ATOM     16  C   UNL     1      -1.278  -0.826   0.178  0.00  0.00    +0.052 C 
ENDROOT
BRANCH   9  17
ATOM     17  C   UNL     1       1.384   2.654  -1.435  0.00  0.00    +0.073 A 
ATOM     18  C   UNL     1       1.982   1.846  -2.405  0.00  0.00    +0.135 A 
ATOM     19  N   UNL     1       2.123   2.272  -3.639  0.00  0.00    -0.252 NA
ATOM     20  C   UNL     1       1.699   3.497  -3.970  0.00  0.00    +0.089 A 
ATOM     21  C   UNL     1       1.841   3.985  -5.281  0.00  0.00    +0.030 A 
ATOM     22  C   UNL     1       1.400   5.235  -5.586  0.00  0.00    +0.002 A 
ATOM     23  C   UNL     1       0.809   6.044  -4.617  0.00  0.00    +0.002 A 
ATOM     24  C   UNL     1       0.655   5.606  -3.338  0.00  0.00    +0.030 A 
ATOM     25  C   UNL     1       1.097   4.319  -2.984  0.00  0.00    +0.090 A 
ATOM     26  N   UNL     1       0.960   3.861  -1.735  0.00  0.00    -0.248 NA
ENDBRANCH   9  17
BRANCH  11  27
ATOM     27  N   UNL     1       3.480  -0.786   0.647  0.00  0.00    -0.345 N 
ATOM     28  H   UNL     1       3.462  -1.753   0.563  0.00  0.00    +0.144 HD
ATOM     29  H   UNL     1       4.284  -0.341   0.956  0.00  0.00    +0.144 HD
ENDBRANCH  11  27
BRANCH  10  30
ATOM     30  C   UNL     1       3.657   1.956   0.669  0.00  0.00    +0.099 C 
ATOM     31  N   UNL     1       4.633   2.471   0.941  0.00  0.00    -0.191 NA
ENDBRANCH  10  30
BRANCH   1  32
ATOM     32  S   UNL     1       1.330  -5.924  -2.448  0.00  0.00    -0.094 S 
BRANCH  32  34
ATOM     33  C   UNL     1       1.156  -8.600  -1.911  0.00  0.00    +0.019 C 
ATOM     34  C   UNL     1       1.241  -7.244  -1.207  0.00  0.00    +0.047 C 
ATOM     35  C   UNL     1       2.493  -7.203  -0.328  0.00  0.00    +0.019 C 
ENDBRANCH  32  34
ENDBRANCH   1  32
TORSDOF 5
