REMARK  Name = ZINC35829871
REMARK  11 active torsions:
REMARK  status: ('A' for Active; 'I' for Inactive)
REMARK    1  A    between atoms: C_1  and  C_2
REMARK    2  A    between atoms: C_2  and  C_3
REMARK    3  A    between atoms: C_3  and  N_4
REMARK    4  A    between atoms: N_4  and  C_5
REMARK    5  A    between atoms: C_5  and  C_6
REMARK    6  A    between atoms: C_16  and  C_18
REMARK    7  A    between atoms: C_21  and  C_24
REMARK    8  A    between atoms: N_27  and  C_28
REMARK    9  A    between atoms: C_31  and  C_34
REMARK   10  A    between atoms: C_34  and  C_35
REMARK   11  A    between atoms: C_34  and  C_36
REMARK                            x       y       z     vdW  Elec       q    Type
REMARK                         _______ _______ _______ _____ _____    ______ ____
ROOT
ATOM      1  C   UNL     1      -1.677  -3.659   0.519  0.00  0.00    +0.205 C 
ENDROOT
BRANCH   1   2
ATOM      2  C   UNL     1      -2.977  -3.673   1.282  0.00  0.00    +0.234 C 
ATOM      3  O   UNL     1      -3.986  -3.239   0.770  0.00  0.00    -0.274 OA
ATOM      4  N   UNL     1      -3.016  -4.169   2.535  0.00  0.00    -0.286 N 
ATOM      5  C   UNL     1      -1.824  -4.774   3.148  0.00  0.00    +0.130 C 
ATOM      6  C   UNL     1      -1.396  -3.936   4.357  0.00  0.00    +0.140 C 
ATOM      7  N   UNL     1      -2.576  -3.627   5.173  0.00  0.00    -0.347 N 
ATOM      8  C   UNL     1      -2.588  -3.225   6.473  0.00  0.00    +0.086 A 
ATOM      9  C   UNL     1      -3.872  -3.038   6.846  0.00  0.00    +0.019 A 
ATOM     10  C   UNL     1      -4.684  -3.338   5.732  0.00  0.00    +0.025 A 
ATOM     11  C   UNL     1      -3.868  -3.697   4.729  0.00  0.00    +0.044 A 
ATOM     12  C   UNL     1      -4.255  -4.116   3.333  0.00  0.00    +0.153 C 
BRANCH  12  13
ATOM     13  C   UNL     1      -5.207  -3.110   2.740  0.00  0.00    -0.021 A 
ATOM     14  C   UNL     1      -4.770  -1.829   2.457  0.00  0.00    +0.006 A 
ATOM     15  C   UNL     1      -5.643  -0.905   1.913  0.00  0.00    +0.004 A 
ATOM     16  C   UNL     1      -6.952  -1.263   1.651  0.00  0.00    -0.050 A 
ATOM     17  C   UNL     1      -7.389  -2.544   1.933  0.00  0.00    +0.004 A 
ATOM     18  C   UNL     1      -6.515  -3.468   2.474  0.00  0.00    +0.006 A 
ATOM     19  C   UNL     1      -7.904  -0.256   1.059  0.00  0.00    +0.044 C 
ENDBRANCH  12  13
ENDBRANCH   1   2
BRANCH   1  20
ATOM     20  N   UNL     1      -1.897  -3.075  -0.807  0.00  0.00    -0.277 N 
ATOM     21  C   UNL     1      -2.237  -3.866  -1.844  0.00  0.00    +0.307 C 
ATOM     22  O   UNL     1      -2.362  -5.064  -1.679  0.00  0.00    -0.252 OA
ATOM     23  N   UNL     1      -2.439  -3.329  -3.063  0.00  0.00    -0.269 N 
ATOM     24  H   UNL     1      -2.268  -2.386  -3.212  0.00  0.00    +0.156 HD
BRANCH  23  25
ATOM     25  C   UNL     1      -2.896  -4.131  -4.115  0.00  0.00    +0.035 A 
ATOM     26  C   UNL     1      -2.581  -3.805  -5.427  0.00  0.00    +0.023 A 
ATOM     27  C   UNL     1      -3.033  -4.599  -6.463  0.00  0.00    +0.006 A 
ATOM     28  C   UNL     1      -3.798  -5.719  -6.193  0.00  0.00    -0.045 A 
ATOM     29  C   UNL     1      -4.113  -6.047  -4.888  0.00  0.00    +0.006 A 
ATOM     30  C   UNL     1      -3.659  -5.260  -3.847  0.00  0.00    +0.023 A 
BRANCH  28  31
ATOM     31  C   UNL     1      -4.289  -6.584  -7.325  0.00  0.00    +0.013 C 
ATOM     32  C   UNL     1      -3.742  -8.003  -7.158  0.00  0.00    +0.012 C 
ATOM     33  C   UNL     1      -5.818  -6.622  -7.312  0.00  0.00    +0.012 C 
ENDBRANCH  28  31
ENDBRANCH  23  25
BRANCH  20  34
ATOM     34  C   UNL     1      -1.747  -1.631  -1.005  0.00  0.00    +0.109 C 
BRANCH  34  36
ATOM     35  C   UNL     1      -0.142   0.191  -1.596  0.00  0.00    +0.005 C 
ATOM     36  C   UNL     1      -0.299  -1.317  -1.388  0.00  0.00    +0.016 C 
ENDBRANCH  34  36
ENDBRANCH  20  34
ENDBRANCH   1  20
TORSDOF 7
