REMARK  Name = ZINC45889168
REMARK  7 active torsions:
REMARK  status: ('A' for Active; 'I' for Inactive)
REMARK    1  A    between atoms: C_5  and  N_7
REMARK    2  A    between atoms: N_7  and  S_8
REMARK    3  A    between atoms: S_8  and  C_11
REMARK    4  A    between atoms: C_14  and  C_17
REMARK    5  A    between atoms: C_18  and  C_19
REMARK    6  A    between atoms: N_21  and  C_22
REMARK    7  A    between atoms: C_28  and  C_30
REMARK                            x       y       z     vdW  Elec       q    Type
REMARK                         _______ _______ _______ _____ _____    ______ ____
ROOT
ATOM      1  C   UNL     1       0.234  -4.641  -0.027  0.00  0.00    +0.110 A 
ATOM      2  C   UNL     1       0.391  -5.301  -1.234  0.00  0.00    +0.029 A 
ATOM      3  C   UNL     1       0.717  -6.640  -1.253  0.00  0.00    +0.010 A 
ATOM      4  C   UNL     1       0.891  -7.332  -0.050  0.00  0.00    -0.025 A 
ATOM      5  C   UNL     1       0.732  -6.657   1.165  0.00  0.00    +0.010 A 
ATOM      6  C   UNL     1       0.410  -5.316   1.168  0.00  0.00    +0.029 A 
ENDROOT
BRANCH   1   7
ATOM      7  S   UNL     1      -0.183  -2.929  -0.013  0.00  0.00    +0.092 S 
ATOM      8  O   UNL     1      -0.802  -2.672   1.241  0.00  0.00    -0.148 OA
ATOM      9  O   UNL     1      -0.828  -2.658  -1.250  0.00  0.00    -0.148 OA
BRANCH   7  10
ATOM     10  N   UNL     1       1.237  -2.078  -0.022  0.00  0.00    -0.096 NA
BRANCH  10  15
ATOM     11  C   UNL     1      -0.017   1.377   0.010  0.00  0.00    +0.002 A 
ATOM     12  C   UNL     1       1.170   2.087   0.002  0.00  0.00    +0.002 A 
ATOM     13  C   UNL     1       2.380   1.417  -0.013  0.00  0.00    +0.022 A 
ATOM     14  C   UNL     1       2.406   0.035  -0.022  0.00  0.00    +0.065 A 
ATOM     15  C   UNL     1       1.215  -0.681  -0.014  0.00  0.00    +0.093 A 
ATOM     16  C   UNL     1       0.002  -0.004   0.002  0.00  0.00    +0.028 A 
ATOM     17 CL   UNL     1       3.925  -0.805  -0.042  0.00  0.00    -0.082 Cl
ENDBRANCH  10  15
ENDBRANCH   7  10
ENDBRANCH   1   7
BRANCH   4  18
ATOM     18  C   UNL     1       1.239  -8.762  -0.062  0.00  0.00    +0.013 C 
ATOM     19  C   UNL     1       1.405  -9.425   1.100  0.00  0.00    +0.068 C 
BRANCH  19  20
ATOM     20  C   UNL     1       1.752 -10.848   1.087  0.00  0.00    +0.237 C 
ATOM     21  O   UNL     1       1.889 -11.431   0.029  0.00  0.00    -0.271 OA
ATOM     22  N   UNL     1       1.918 -11.511   2.249  0.00  0.00    -0.309 N 
ATOM     23  H   UNL     1       1.809 -11.045   3.093  0.00  0.00    +0.149 HD
BRANCH  22  24
ATOM     24  C   UNL     1       2.265 -12.934   2.237  0.00  0.00    +0.076 C 
ATOM     25  C   UNL     1       0.988 -13.768   2.111  0.00  0.00    +0.041 C 
ATOM     26  C   UNL     1       1.357 -15.255   2.064  0.00  0.00    +0.109 C 
ATOM     27  N   UNL     1       2.175 -15.576   3.242  0.00  0.00    -0.301 N 
ATOM     28  C   UNL     1       3.377 -14.775   3.507  0.00  0.00    +0.109 C 
ATOM     29  C   UNL     1       2.986 -13.294   3.538  0.00  0.00    +0.041 C 
ATOM     30  C   UNL     1       1.828 -16.587   4.063  0.00  0.00    +0.219 C 
ATOM     31  O   UNL     1       0.833 -17.241   3.833  0.00  0.00    -0.275 OA
BRANCH  30  32
ATOM     32  C   UNL     1       2.678 -16.905   5.266  0.00  0.00    +0.075 C 
ATOM     33  C   UNL     1       3.455 -18.223   5.255  0.00  0.00    +0.013 C 
ATOM     34  C   UNL     1       2.231 -18.065   6.160  0.00  0.00    +0.013 C 
ENDBRANCH  30  32
ENDBRANCH  22  24
ENDBRANCH  19  20
ENDBRANCH   4  18
TORSDOF 7
