REMARK  Name = ZINC29049608
REMARK  8 active torsions:
REMARK  status: ('A' for Active; 'I' for Inactive)
REMARK    1  A    between atoms: C_1  and  N_2
REMARK    2  A    between atoms: N_2  and  C_3
REMARK    3  A    between atoms: N_2  and  C_4
REMARK    4  A    between atoms: C_4  and  C_6
REMARK    5  A    between atoms: C_4  and  C_25
REMARK    6  A    between atoms: C_6  and  N_7
REMARK    7  A    between atoms: C_8  and  C_10
REMARK    8  A    between atoms: C_10  and  N_11
REMARK                            x       y       z     vdW  Elec       q    Type
REMARK                         _______ _______ _______ _____ _____    ______ ____
ROOT
ATOM      1  N   UNL     1      -1.064  -5.836  -1.982  0.00  0.00    -0.315 N 
ATOM      2  C   UNL     1      -0.663  -4.561  -1.806  0.00  0.00    +0.232 C 
ATOM      3  O   UNL     1      -0.019  -4.003  -2.669  0.00  0.00    -0.274 OA
ATOM      4  H   UNL     1      -1.649  -6.342  -1.200  0.00  0.00    +0.149 HD
ENDROOT
BRANCH   1   5
ATOM      5  C   UNL     1      -0.722  -6.548  -3.216  0.00  0.00    +0.093 C 
BRANCH   5   6
ATOM      6  C   UNL     1      -1.109  -8.021  -3.079  0.00  0.00    -0.020 C 
BRANCH   6   7
ATOM      7  C   UNL     1      -0.897  -8.721  -4.397  0.00  0.00    -0.041 A 
ATOM      8  C   UNL     1       0.255  -9.455  -4.612  0.00  0.00    +0.003 A 
ATOM      9  C   UNL     1       0.448 -10.101  -5.819  0.00  0.00    +0.000 A 
ATOM     10  C   UNL     1      -0.506 -10.005  -6.815  0.00  0.00    +0.001 A 
ATOM     11  C   UNL     1      -1.655  -9.267  -6.603  0.00  0.00    +0.020 A 
ATOM     12  C   UNL     1      -1.851  -8.625  -5.393  0.00  0.00    +0.043 A 
ATOM     13 CL   UNL     1      -3.295  -7.697  -5.126  0.00  0.00    -0.083 Cl
ENDBRANCH   6   7
BRANCH   6  15
ATOM     14  C   UNL     1       1.048  -8.018  -1.980  0.00  0.00    -0.096 C 
ATOM     15  N   UNL     1      -0.275  -8.653  -2.049  0.00  0.00    +0.382 N 
ATOM     16  C   UNL     1      -0.942  -8.625  -0.740  0.00  0.00    -0.096 C 
ATOM     17  H   UNL     1      -0.129  -9.707  -2.331  0.00  0.00    -0.082 HD
ENDBRANCH   6  15
ENDBRANCH   5   6
ENDBRANCH   1   5
BRANCH   2  18
ATOM     18  C   UNL     1      -1.015  -3.829  -0.537  0.00  0.00    +0.227 C 
BRANCH  18  19
ATOM     19  N   UNL     1      -0.469  -2.471  -0.589  0.00  0.00    -0.194 N 
ATOM     20  C   UNL     1       0.829  -2.063  -0.237  0.00  0.00    +0.061 A 
ATOM     21  C   UNL     1       1.875  -2.853   0.237  0.00  0.00    +0.025 A 
ATOM     22  C   UNL     1       3.108  -2.292   0.541  0.00  0.00    +0.002 A 
ATOM     23  C   UNL     1       3.362  -0.960   0.398  0.00  0.00    +0.009 A 
ATOM     24  C   UNL     1       2.338  -0.122  -0.076  0.00  0.00    -0.014 A 
ATOM     25  C   UNL     1       1.089  -0.702  -0.383  0.00  0.00    +0.031 A 
ATOM     26  C   UNL     1       0.044   0.100  -0.858  0.00  0.00    +0.118 A 
ATOM     27  C   UNL     1       0.219   1.423  -1.025  0.00  0.00    +0.029 A 
ATOM     28  C   UNL     1       1.456   2.008  -0.723  0.00  0.00    +0.003 A 
ATOM     29  C   UNL     1       2.498   1.261  -0.258  0.00  0.00    +0.009 A 
ATOM     30  S   UNL     1      -1.259  -1.077  -1.081  0.00  0.00    +0.076 S 
ATOM     31  O   UNL     1      -2.270  -0.791  -0.125  0.00  0.00    -0.150 OA
ATOM     32  O   UNL     1      -1.508  -1.189  -2.476  0.00  0.00    -0.150 OA
ENDBRANCH  18  19
ENDBRANCH   2  18
TORSDOF 6
