REMARK  Name = ZINC01010015
REMARK  7 active torsions:
REMARK  status: ('A' for Active; 'I' for Inactive)
REMARK    1  A    between atoms: C_1  and  O_2
REMARK    2  A    between atoms: O_2  and  C_3
REMARK    3  A    between atoms: C_3  and  C_5
REMARK    4  A    between atoms: C_6  and  N_34
REMARK    5  A    between atoms: C_10  and  C_12
REMARK    6  A    between atoms: C_14  and  N_19
REMARK    7  A    between atoms: C_25  and  C_28
REMARK                            x       y       z     vdW  Elec       q    Type
REMARK                         _______ _______ _______ _____ _____    ______ ____
ROOT
ATOM      1  C   UNL     1       3.028   3.927   1.176  0.00  0.00    +0.105 C 
ATOM      2  C   UNL     1       4.273   3.384   1.193  0.00  0.00    +0.195 C 
ATOM      3  O   UNL     1       4.831   2.885   0.080  0.00  0.00    -0.446 OA
ATOM      4  C   UNL     1       4.392   3.285  -1.128  0.00  0.00    +0.115 C 
ATOM      5  C   UNL     1       3.164   3.812  -1.287  0.00  0.00    +0.045 C 
ATOM      6  C   UNL     1       2.242   3.985  -0.105  0.00  0.00    +0.099 C 
ATOM      7  C   UNL     1       2.699   4.214  -2.555  0.00  0.00    +0.164 C 
ATOM      8  O   UNL     1       1.591   4.700  -2.657  0.00  0.00    -0.292 OA
ATOM      9  C   UNL     1       3.551   4.053  -3.784  0.00  0.00    +0.088 C 
ATOM     10  C   UNL     1       4.503   2.870  -3.576  0.00  0.00    +0.034 C 
ATOM     11  C   UNL     1       5.321   3.124  -2.308  0.00  0.00    +0.083 C 
ENDROOT
BRANCH   6  12
ATOM     12  C   UNL     1       1.211   2.885  -0.109  0.00  0.00    -0.015 A 
ATOM     13  C   UNL     1       1.610   1.564  -0.033  0.00  0.00    +0.038 A 
ATOM     14  C   UNL     1       0.665   0.555  -0.037  0.00  0.00    +0.127 A 
ATOM     15  C   UNL     1      -0.679   0.867  -0.123  0.00  0.00    +0.034 A 
ATOM     16  C   UNL     1      -1.079   2.188  -0.194  0.00  0.00    +0.022 A 
ATOM     17  C   UNL     1      -0.134   3.198  -0.190  0.00  0.00    +0.045 A 
ATOM     18 CL   UNL     1      -0.635   4.857  -0.286  0.00  0.00    -0.083 Cl
BRANCH  14  19
ATOM     19  N   UNL     1       1.093  -0.859   0.045  0.00  0.00    +0.056 N 
ATOM     20  O   UNL     1       2.277  -1.134   0.116  0.00  0.00    -0.126 OA
ATOM     21  O   UNL     1       0.260  -1.748   0.041  0.00  0.00    -0.126 OA
ENDBRANCH  14  19
ENDBRANCH   6  12
BRANCH  10  22
ATOM     22  C   UNL     1       5.428   2.749  -4.760  0.00  0.00    -0.043 A 
ATOM     23  C   UNL     1       6.248   3.807  -5.106  0.00  0.00    +0.004 A 
ATOM     24  C   UNL     1       7.099   3.695  -6.190  0.00  0.00    +0.000 A 
ATOM     25  C   UNL     1       7.123   2.528  -6.932  0.00  0.00    +0.000 A 
ATOM     26  C   UNL     1       6.300   1.473  -6.588  0.00  0.00    +0.000 A 
ATOM     27  C   UNL     1       5.452   1.583  -5.502  0.00  0.00    +0.004 A 
ENDBRANCH  10  22
BRANCH   2  28
ATOM     28  N   UNL     1       4.971   3.345   2.370  0.00  0.00    -0.329 N 
ATOM     29  H   UNL     1       4.949   4.105   2.972  0.00  0.00    +0.145 HD
ATOM     30  H   UNL     1       5.490   2.559   2.600  0.00  0.00    +0.145 HD
ENDBRANCH   2  28
BRANCH   1  31
ATOM     31  C   UNL     1       2.472   4.437   2.359  0.00  0.00    +0.341 C 
ATOM     32  O   UNL     1       3.052   4.284   3.419  0.00  0.00    -0.245 OA
BRANCH  31  34
ATOM     33  C   UNL     1       0.787   5.588   3.565  0.00  0.00    +0.280 C 
ATOM     34  O   UNL     1       1.294   5.096   2.323  0.00  0.00    -0.465 OA
ENDBRANCH  31  34
ENDBRANCH   1  31
TORSDOF 6
