REMARK  Name = ZINC02134557
REMARK  6 active torsions:
REMARK  status: ('A' for Active; 'I' for Inactive)
REMARK    1  A    between atoms: C_1  and  C_2
REMARK    2  A    between atoms: C_5  and  C_8
REMARK    3  A    between atoms: C_8  and  C_9
REMARK    4  A    between atoms: C_9  and  C_24
REMARK    5  A    between atoms: N_15  and  C_18
REMARK    6  A    between atoms: C_24  and  N_68
REMARK                            x       y       z     vdW  Elec       q    Type
REMARK                         _______ _______ _______ _____ _____    ______ ____
ROOT
ATOM      1  C   UNL     1      -1.736  -5.180   0.045  0.00  0.00    +0.113 C 
ATOM      2  C   UNL     1      -2.268  -4.212  -0.995  0.00  0.00    +0.234 C 
ATOM      3  O   UNL     1      -2.047  -4.375  -2.176  0.00  0.00    -0.274 OA
ATOM      4  N   UNL     1      -2.997  -3.164  -0.557  0.00  0.00    -0.239 N 
ATOM      5  C   UNL     1      -3.250  -2.971   0.742  0.00  0.00    +0.319 C 
ATOM      6  O   UNL     1      -3.914  -2.001   1.049  0.00  0.00    -0.251 OA
ATOM      7  N   UNL     1      -2.825  -3.768   1.729  0.00  0.00    -0.193 N 
ATOM      8  C   UNL     1      -2.081  -4.869   1.489  0.00  0.00    +0.241 C 
ATOM      9  O   UNL     1      -1.703  -5.582   2.393  0.00  0.00    -0.274 OA
ATOM     10  H   UNL     1      -3.348  -2.532  -1.204  0.00  0.00    +0.159 HD
ENDROOT
BRANCH   7  11
ATOM     11  C   UNL     1      -3.161  -3.450   3.053  0.00  0.00    +0.045 A 
ATOM     12  C   UNL     1      -2.331  -2.629   3.804  0.00  0.00    +0.024 A 
ATOM     13  C   UNL     1      -2.668  -2.313   5.105  0.00  0.00    +0.002 A 
ATOM     14  C   UNL     1      -3.826  -2.823   5.664  0.00  0.00    +0.000 A 
ATOM     15  C   UNL     1      -4.652  -3.646   4.921  0.00  0.00    +0.002 A 
ATOM     16  C   UNL     1      -4.323  -3.961   3.617  0.00  0.00    +0.024 A 
ENDBRANCH   7  11
BRANCH   1  17
ATOM     17  C   UNL     1      -0.212  -5.224  -0.082  0.00  0.00    +0.058 C 
BRANCH  17  22
ATOM     18  C   UNL     1       1.949   0.058   0.825  0.00  0.00    +0.044 C 
ATOM     19  C   UNL     1       1.386  -1.320   0.588  0.00  0.00    -0.050 A 
ATOM     20  C   UNL     1       1.032  -1.712  -0.689  0.00  0.00    +0.003 A 
ATOM     21  C   UNL     1       0.520  -2.978  -0.907  0.00  0.00    +0.004 A 
ATOM     22  C   UNL     1       0.352  -3.847   0.155  0.00  0.00    -0.046 A 
ATOM     23  C   UNL     1       0.701  -3.453   1.433  0.00  0.00    +0.004 A 
ATOM     24  C   UNL     1       1.218  -2.189   1.650  0.00  0.00    +0.003 A 
ENDBRANCH  17  22
ENDBRANCH   1  17
BRANCH   1  25
ATOM     25  C   UNL     1      -2.278  -6.573  -0.280  0.00  0.00    -0.053 C 
BRANCH  25  39
ATOM     26  C   UNL     1      -4.300  -5.810   0.808  0.00  0.00    -0.074 C 
ATOM     27  C   UNL     1      -5.821  -5.813   0.772  0.00  0.00    -0.007 C 
ATOM     28  C   UNL     1      -6.335  -5.222  -0.557  0.00  0.00    +0.011 C 
ATOM     29  C   UNL     1      -5.725  -6.062  -1.685  0.00  0.00    +0.020 C 
ATOM     30  C   UNL     1      -4.196  -5.923  -1.610  0.00  0.00    -0.069 C 
ATOM     31  C   UNL     1      -6.061  -7.521  -1.470  0.00  0.00    +0.023 A 
ATOM     32  C   UNL     1      -6.165  -8.311  -2.572  0.00  0.00    +0.022 A 
ATOM     33  C   UNL     1      -6.409  -9.682  -2.441  0.00  0.00    +0.007 A 
ATOM     34  C   UNL     1      -6.513 -10.218  -1.191  0.00  0.00    +0.070 A 
ATOM     35  C   UNL     1      -6.396  -9.375  -0.076  0.00  0.00    +0.251 A 
ATOM     36  O   UNL     1      -6.422  -9.852   1.047  0.00  0.00    -0.268 OA
ATOM     37  N   UNL     1      -6.256  -8.036  -0.234  0.00  0.00    -0.312 N 
ATOM     38  C   UNL     1      -6.388  -7.210   0.966  0.00  0.00    +0.126 C 
ATOM     39  N   UNL     1      -3.754  -6.553  -0.345  0.00  0.00    +0.381 N 
ATOM     40  H   UNL     1      -4.103  -7.518  -0.314  0.00  0.00    -0.082 HD
ENDBRANCH  25  39
ENDBRANCH   1  25
TORSDOF 5
