REMARK  Name = ZINC22107961
REMARK  12 active torsions:
REMARK  status: ('A' for Active; 'I' for Inactive)
REMARK    1  A    between atoms: C_1  and  O_2
REMARK    2  A    between atoms: O_2  and  C_3
REMARK    3  A    between atoms: C_5  and  C_19
REMARK    4  A    between atoms: C_8  and  O_9
REMARK    5  A    between atoms: O_9  and  C_10
REMARK    6  A    between atoms: C_10  and  C_11
REMARK    7  A    between atoms: C_19  and  N_20
REMARK    8  A    between atoms: N_20  and  C_21
REMARK    9  A    between atoms: C_21  and  C_22
REMARK   10  A    between atoms: C_22  and  S_23
REMARK   11  A    between atoms: S_23  and  C_24
REMARK   12  A    between atoms: N_28  and  C_29
REMARK                            x       y       z     vdW  Elec       q    Type
REMARK                         _______ _______ _______ _____ _____    ______ ____
ROOT
ATOM      1  C   UNL     1      -0.787   2.893   1.346  0.00  0.00    +0.163 A 
ATOM      2  C   UNL     1      -0.259   3.751   0.395  0.00  0.00    +0.051 A 
ATOM      3  C   UNL     1      -0.367   5.119   0.561  0.00  0.00    -0.059 A 
ATOM      4  C   UNL     1      -1.002   5.635   1.675  0.00  0.00    +0.025 A 
ATOM      5  C   UNL     1      -1.532   4.784   2.629  0.00  0.00    +0.086 A 
ATOM      6  C   UNL     1      -1.431   3.411   2.465  0.00  0.00    +0.181 A 
ATOM      7 CL   UNL     1      -2.329   5.436   4.027  0.00  0.00    -0.080 Cl
ENDROOT
BRANCH   1   9
ATOM      8  C   UNL     1      -0.013   1.086   0.008  0.00  0.00    +0.277 C 
ATOM      9  O   UNL     1      -0.682   1.547   1.184  0.00  0.00    -0.491 OA
ENDBRANCH   1   9
BRANCH   6  10
ATOM     10  O   UNL     1      -1.956   2.573   3.399  0.00  0.00    -0.482 OA
BRANCH  10  11
ATOM     11  C   UNL     1      -1.101   2.184   4.476  0.00  0.00    +0.267 C 
BRANCH  11  12
ATOM     12  C   UNL     1      -1.850   1.261   5.403  0.00  0.00    +0.025 A 
ATOM     13  C   UNL     1      -3.164   0.929   5.136  0.00  0.00    +0.010 A 
ATOM     14  C   UNL     1      -3.849   0.079   5.983  0.00  0.00    +0.001 A 
ATOM     15  C   UNL     1      -3.224  -0.432   7.105  0.00  0.00    +0.003 A 
ATOM     16  C   UNL     1      -1.911  -0.097   7.378  0.00  0.00    +0.039 A 
ATOM     17  C   UNL     1      -1.222   0.751   6.526  0.00  0.00    +0.130 A 
ATOM     18  F   UNL     1       0.061   1.079   6.792  0.00  0.00    -0.205 F 
ENDBRANCH  11  12
ENDBRANCH  10  11
ENDBRANCH   6  10
BRANCH   3  19
ATOM     19  C   UNL     1       0.208   6.050  -0.475  0.00  0.00    -0.047 C 
BRANCH  19  20
ATOM     20  N   UNL     1      -0.811   6.340  -1.493  0.00  0.00    +0.382 N 
ATOM     21  H   UNL     1      -1.124   5.402  -1.976  0.00  0.00    -0.085 HD
ATOM     22  H   UNL     1      -1.681   6.814  -1.016  0.00  0.00    -0.085 HD
BRANCH  20  23
ATOM     23  C   UNL     1      -0.284   7.247  -2.522  0.00  0.00    -0.071 C 
BRANCH  23  24
ATOM     24  C   UNL     1      -1.371   7.524  -3.561  0.00  0.00    +0.058 C 
BRANCH  24  25
ATOM     25  S   UNL     1      -0.723   8.642  -4.829  0.00  0.00    -0.086 S 
BRANCH  25  26
ATOM     26  C   UNL     1      -2.141   8.786  -5.864  0.00  0.00    +0.214 A 
ATOM     27  N   UNL     1      -3.306   8.203  -5.681  0.00  0.00    -0.101 NA
ATOM     28  N   UNL     1      -4.121   8.521  -6.621  0.00  0.00    -0.022 NA
ATOM     29  N   UNL     1      -3.551   9.316  -7.460  0.00  0.00    -0.038 NA
ATOM     30  N   UNL     1      -2.240   9.525  -6.998  0.00  0.00    -0.187 N 
BRANCH  30  31
ATOM     31  C   UNL     1      -1.248  10.323  -7.584  0.00  0.00    +0.070 A 
ATOM     32  C   UNL     1      -0.351  11.018  -6.784  0.00  0.00    +0.028 A 
ATOM     33  C   UNL     1       0.629  11.799  -7.364  0.00  0.00    +0.002 A 
ATOM     34  C   UNL     1       0.711  11.899  -8.741  0.00  0.00    +0.000 A 
ATOM     35  C   UNL     1      -0.184  11.212  -9.541  0.00  0.00    +0.002 A 
ATOM     36  C   UNL     1      -1.163  10.425  -8.966  0.00  0.00    +0.028 A 
ENDBRANCH  30  31
ENDBRANCH  25  26
ENDBRANCH  24  25
ENDBRANCH  23  24
ENDBRANCH  20  23
ENDBRANCH  19  20
ENDBRANCH   3  19
TORSDOF 11
