REMARK  Name = ZINC46464758
REMARK  5 active torsions:
REMARK  status: ('A' for Active; 'I' for Inactive)
REMARK    1  A    between atoms: C_1  and  C_2
REMARK    2  A    between atoms: C_2  and  C_4
REMARK    3  A    between atoms: C_2  and  N_10
REMARK    4  A    between atoms: C_4  and  N_5
REMARK    5  A    between atoms: C_17  and  C_19
REMARK                            x       y       z     vdW  Elec       q    Type
REMARK                         _______ _______ _______ _____ _____    ______ ____
ROOT
ATOM      1  N   UNL     1       0.688  -0.476  -1.203  0.00  0.00    -0.295 N 
ATOM      2  C   UNL     1       0.006  -0.608  -2.358  0.00  0.00    +0.303 C 
ATOM      3  O   UNL     1      -1.178  -0.335  -2.400  0.00  0.00    -0.253 OA
ATOM      4  N   UNL     1       0.637  -1.043  -3.467  0.00  0.00    -0.279 N 
ATOM      5  C   UNL     1       2.061  -1.414  -3.556  0.00  0.00    +0.110 C 
ATOM      6  C   UNL     1       2.143  -2.388  -4.758  0.00  0.00    +0.021 C 
ATOM      7  C   UNL     1       1.113  -1.763  -5.736  0.00  0.00    +0.029 C 
ATOM      8  C   UNL     1       0.018  -1.231  -4.787  0.00  0.00    +0.108 C 
ATOM      9  H   UNL     1       1.632  -0.695  -1.170  0.00  0.00    +0.151 HD
ENDROOT
BRANCH   8  10
ATOM     10  C   UNL     1      -0.506   0.085  -5.301  0.00  0.00    -0.020 A 
ATOM     11  C   UNL     1      -1.706   0.144  -5.984  0.00  0.00    +0.013 A 
ATOM     12  C   UNL     1      -2.149   1.344  -6.432  0.00  0.00    +0.045 A 
ATOM     13  S   UNL     1      -0.852   2.443  -5.887  0.00  0.00    -0.105 S 
ATOM     14  C   UNL     1       0.190   1.230  -5.094  0.00  0.00    +0.050 A 
ENDBRANCH   8  10
BRANCH   1  16
ATOM     15  C   UNL     1      -0.019   1.526   0.010  0.00  0.00    +0.030 C 
ATOM     16  C   UNL     1       0.002  -0.004   0.002  0.00  0.00    +0.093 C 
BRANCH  16  17
ATOM     17  C   UNL     1       0.742  -0.511   1.242  0.00  0.00    +0.165 C 
BRANCH  17  18
ATOM     18  N   UNL     1       0.659  -1.972   1.296  0.00  0.00    -0.270 N 
ATOM     19  C   UNL     1       1.702  -2.824   1.385  0.00  0.00    +0.108 A 
ATOM     20  C   UNL     1       1.206  -4.083   1.410  0.00  0.00    +0.041 A 
ATOM     21  C   UNL     1      -0.188  -3.998   1.333  0.00  0.00    +0.134 A 
ATOM     22  N   UNL     1      -0.517  -2.733   1.271  0.00  0.00    -0.180 NA
ENDBRANCH  17  18
ENDBRANCH  16  17
ENDBRANCH   1  16
TORSDOF 4
