REMARK  Name = ZINC35870433
REMARK  7 active torsions:
REMARK  status: ('A' for Active; 'I' for Inactive)
REMARK    1  A    between atoms: C_1  and  C_2
REMARK    2  A    between atoms: C_5  and  N_8
REMARK    3  A    between atoms: C_15  and  N_35
REMARK    4  A    between atoms: C_19  and  C_24
REMARK    5  A    between atoms: N_26  and  C_27
REMARK    6  A    between atoms: C_27  and  C_28
REMARK    7  A    between atoms: C_28  and  C_29
REMARK                            x       y       z     vdW  Elec       q    Type
REMARK                         _______ _______ _______ _____ _____    ______ ____
ROOT
ATOM      1  N   UNL     1       0.058  -4.167  -0.021  0.00  0.00    -0.327 N 
ATOM      2  C   UNL     1      -0.043  -4.879  -1.288  0.00  0.00    +0.124 C 
ATOM      3  C   UNL     1      -1.146  -5.919  -1.235  0.00  0.00    +0.124 C 
ATOM      4  N   UNL     1      -1.246  -6.593   0.048  0.00  0.00    -0.323 N 
ATOM      5  C   UNL     1      -2.014  -7.775   0.118  0.00  0.00    +0.033 A 
ATOM      6  C   UNL     1      -2.251  -8.495  -1.046  0.00  0.00    +0.025 A 
ATOM      7  C   UNL     1      -3.010  -9.648  -0.998  0.00  0.00    +0.034 A 
ATOM      8  C   UNL     1      -3.529 -10.078   0.209  0.00  0.00    +0.127 A 
ATOM      9  C   UNL     1      -3.289  -9.364   1.366  0.00  0.00    +0.038 A 
ATOM     10  C   UNL     1      -2.523  -8.208   1.330  0.00  0.00    -0.023 A 
ATOM     11  C   UNL     1      -2.266  -7.476   2.621  0.00  0.00    +0.051 C 
ATOM     12  C   UNL     1      -1.766  -6.054   2.354  0.00  0.00    +0.101 C 
ATOM     13  C   UNL     1      -0.670  -6.124   1.292  0.00  0.00    +0.103 C 
ATOM     14  C   UNL     1       0.184  -4.889   1.235  0.00  0.00    +0.128 C 
ENDROOT
BRANCH   1  19
ATOM     15  C   UNL     1      -0.015   1.503   0.010  0.00  0.00    +0.044 C 
ATOM     16  C   UNL     1       0.004  -0.004   0.002  0.00  0.00    -0.050 A 
ATOM     17  C   UNL     1       0.005  -0.701   1.197  0.00  0.00    +0.005 A 
ATOM     18  C   UNL     1       0.022  -2.082   1.193  0.00  0.00    +0.023 A 
ATOM     19  C   UNL     1       0.040  -2.771  -0.013  0.00  0.00    +0.030 A 
ATOM     20  C   UNL     1       0.039  -2.068  -1.211  0.00  0.00    +0.023 A 
ATOM     21  C   UNL     1       0.015  -0.687  -1.200  0.00  0.00    +0.005 A 
ENDBRANCH   1  19
BRANCH  12  22
ATOM     22  C   UNL     1      -2.904  -5.200   1.856  0.00  0.00    +0.218 C 
ATOM     23  O   UNL     1      -2.836  -4.677   0.764  0.00  0.00    -0.275 OA
ATOM     24  N   UNL     1      -3.997  -5.019   2.624  0.00  0.00    -0.315 N 
ATOM     25  H   UNL     1      -4.051  -5.438   3.497  0.00  0.00    +0.149 HD
BRANCH  24  26
ATOM     26  C   UNL     1      -5.103  -4.190   2.139  0.00  0.00    +0.109 C 
BRANCH  26  27
ATOM     27  C   UNL     1      -6.210  -4.149   3.195  0.00  0.00    +0.054 C 
BRANCH  27  28
ATOM     28  C   UNL     1      -7.348  -3.295   2.697  0.00  0.00    -0.046 A 
ATOM     29  C   UNL     1      -7.359  -1.938   2.958  0.00  0.00    +0.004 A 
ATOM     30  C   UNL     1      -8.403  -1.155   2.501  0.00  0.00    +0.000 A 
ATOM     31  C   UNL     1      -9.435  -1.730   1.782  0.00  0.00    +0.000 A 
ATOM     32  C   UNL     1      -9.423  -3.087   1.520  0.00  0.00    +0.000 A 
ATOM     33  C   UNL     1      -8.377  -3.869   1.974  0.00  0.00    +0.004 A 
ENDBRANCH  27  28
ENDBRANCH  26  27
ENDBRANCH  24  26
ENDBRANCH  12  22
BRANCH   8  34
ATOM     34  N   UNL     1      -4.347 -11.311   0.262  0.00  0.00    +0.056 N 
ATOM     35  O   UNL     1      -4.560 -11.938  -0.750  0.00  0.00    -0.126 OA
ATOM     36  O   UNL     1      -4.803 -11.690   1.315  0.00  0.00    -0.126 OA
ENDBRANCH   8  34
TORSDOF 6
