REMARK  Name = ZINC09370767
REMARK  6 active torsions:
REMARK  status: ('A' for Active; 'I' for Inactive)
REMARK    1  A    between atoms: C_4  and  C_7
REMARK    2  A    between atoms: C_9  and  C_23
REMARK    3  A    between atoms: C_10  and  O_22
REMARK    4  A    between atoms: N_13  and  C_14
REMARK    5  A    between atoms: C_18  and  C_20
REMARK    6  A    between atoms: C_23  and  C_25
REMARK                            x       y       z     vdW  Elec       q    Type
REMARK                         _______ _______ _______ _____ _____    ______ ____
ROOT
ATOM      1  C   UNL     1      -2.656  -0.003   0.072  0.00  0.00    +0.149 C 
ATOM      2  C   UNL     1      -1.295  -0.657   0.058  0.00  0.00    +0.071 C 
ATOM      3  C   UNL     1      -1.502  -1.993   0.137  0.00  0.00    +0.189 C 
ATOM      4  C   UNL     1      -2.955  -2.255   0.197  0.00  0.00    +0.287 C 
ATOM      5  O   UNL     1      -3.462  -3.357   0.273  0.00  0.00    -0.266 OA
ATOM      6  N   UNL     1      -3.634  -1.094   0.155  0.00  0.00    -0.253 N 
ENDROOT
BRANCH   1  10
ATOM      7  C   UNL     1      -3.019   2.567   3.465  0.00  0.00    +0.000 A 
ATOM      8  C   UNL     1      -2.845   3.107   2.204  0.00  0.00    +0.000 A 
ATOM      9  C   UNL     1      -2.728   2.276   1.106  0.00  0.00    +0.006 A 
ATOM     10  C   UNL     1      -2.784   0.904   1.269  0.00  0.00    -0.022 A 
ATOM     11  C   UNL     1      -2.962   0.364   2.529  0.00  0.00    +0.006 A 
ATOM     12  C   UNL     1      -3.075   1.196   3.627  0.00  0.00    +0.000 A 
ENDBRANCH   1  10
BRANCH   6  13
ATOM     13  C   UNL     1      -5.024  -0.953   0.191  0.00  0.00    +0.038 A 
ATOM     14  C   UNL     1      -5.595   0.314   0.140  0.00  0.00    +0.023 A 
ATOM     15  C   UNL     1      -6.969   0.460   0.175  0.00  0.00    +0.003 A 
ATOM     16  C   UNL     1      -7.784  -0.651   0.261  0.00  0.00    +0.015 A 
ATOM     17  C   UNL     1      -7.221  -1.928   0.313  0.00  0.00    +0.065 A 
ATOM     18  C   UNL     1      -5.833  -2.075   0.272  0.00  0.00    +0.038 A 
BRANCH  17  19
ATOM     19  C   UNL     1      -8.090  -3.119   0.406  0.00  0.00    +0.387 C 
ATOM     20  O   UNL     1      -7.598  -4.228   0.451  0.00  0.00    -0.241 OA
ATOM     21  O   UNL     1      -9.429  -2.974   0.440  0.00  0.00    -0.241 OA
ENDBRANCH  17  19
ENDBRANCH   6  13
BRANCH   3  22
ATOM     22  O   UNL     1      -0.534  -2.937   0.158  0.00  0.00    -0.502 OA
ATOM     23  H   UNL     1      -0.953  -3.843   0.220  0.00  0.00    +0.292 HD
ENDBRANCH   3  22
BRANCH   2  24
ATOM     24  C   UNL     1       0.001   0.023  -0.019  0.00  0.00    +0.195 C 
ATOM     25  O   UNL     1       0.769  -0.022   0.924  0.00  0.00    -0.287 OA
BRANCH  24  26
ATOM     26  C   UNL     1       0.376   0.764  -1.242  0.00  0.00    +0.022 A 
ATOM     27  C   UNL     1      -0.468   0.751  -2.355  0.00  0.00    +0.013 A 
ATOM     28  C   UNL     1      -0.116   1.449  -3.491  0.00  0.00    +0.016 A 
ATOM     29  C   UNL     1       1.077   2.151  -3.534  0.00  0.00    +0.018 A 
ATOM     30  C   UNL     1       1.921   2.163  -2.435  0.00  0.00    +0.016 A 
ATOM     31  C   UNL     1       1.577   1.475  -1.291  0.00  0.00    +0.013 A 
ATOM     32 BR   UNL     1       1.556   3.099  -5.098  0.00  0.00    -0.050 Br
ENDBRANCH  24  26
ENDBRANCH   2  24
TORSDOF 6
