REMARK  Name = ZINC02633618
REMARK  4 active torsions:
REMARK  status: ('A' for Active; 'I' for Inactive)
REMARK    1  A    between atoms: C_4  and  C_7
REMARK    2  A    between atoms: C_16  and  C_18
REMARK    3  A    between atoms: C_18  and  S_19
REMARK    4  A    between atoms: S_19  and  C_20
REMARK                            x       y       z     vdW  Elec       q    Type
REMARK                         _______ _______ _______ _____ _____    ______ ____
ROOT
ATOM      1  C   UNL     1      -5.167  -1.049  -8.972  0.00  0.00    +0.004 A 
ATOM      2  C   UNL     1      -3.858  -0.887  -9.280  0.00  0.00    +0.056 A 
ATOM      3  S   UNL     1      -3.113  -0.473  -7.715  0.00  0.00    -0.076 S 
ATOM      4  C   UNL     1      -4.562  -0.525  -6.693  0.00  0.00    +0.116 A 
ATOM      5  C   UNL     1      -5.589  -0.863  -7.589  0.00  0.00    +0.080 A 
ATOM      6  C   UNL     1      -6.897  -0.976  -7.018  0.00  0.00    +0.260 A 
ATOM      7  O   UNL     1      -7.854  -1.264  -7.716  0.00  0.00    -0.267 OA
ATOM      8  N   UNL     1      -7.055  -0.757  -5.699  0.00  0.00    -0.310 N 
ATOM      9  H   UNL     1      -7.939  -0.832  -5.307  0.00  0.00    +0.170 HD
ATOM     10  C   UNL     1      -6.001  -0.434  -4.907  0.00  0.00    +0.121 A 
ATOM     11  N   UNL     1      -4.796  -0.320  -5.399  0.00  0.00    -0.226 NA
ENDROOT
BRANCH   1  15
ATOM     12  C   UNL     1      -7.990  -2.079 -11.979  0.00  0.00    +0.000 A 
ATOM     13  C   UNL     1      -7.119  -1.024 -12.184  0.00  0.00    +0.001 A 
ATOM     14  C   UNL     1      -6.200  -0.685 -11.211  0.00  0.00    +0.008 A 
ATOM     15  C   UNL     1      -6.151  -1.408 -10.020  0.00  0.00    -0.017 A 
ATOM     16  C   UNL     1      -7.028  -2.474  -9.822  0.00  0.00    +0.008 A 
ATOM     17  C   UNL     1      -7.946  -2.800 -10.799  0.00  0.00    +0.001 A 
ENDBRANCH   1  15
BRANCH  10  18
ATOM     18  C   UNL     1      -6.225  -0.198  -3.436  0.00  0.00    +0.150 C 
BRANCH  18  19
ATOM     19  S   UNL     1      -4.650   0.211  -2.643  0.00  0.00    -0.097 S 
BRANCH  19  20
ATOM     20  C   UNL     1      -5.191   0.430  -0.981  0.00  0.00    +0.109 A 
ATOM     21  C   UNL     1      -4.292   0.775   0.069  0.00  0.00    +0.043 A 
ATOM     22  C   UNL     1      -2.859   0.993  -0.039  0.00  0.00    -0.025 A 
ATOM     23  C   UNL     1      -2.206   1.313   1.102  0.00  0.00    -0.004 A 
ATOM     24  S   UNL     1      -3.455   1.341   2.364  0.00  0.00    -0.073 S 
ATOM     25  C   UNL     1      -4.848   0.924   1.365  0.00  0.00    +0.113 A 
ATOM     26  N   UNL     1      -6.129   0.759   1.627  0.00  0.00    -0.228 NA
ATOM     27  C   UNL     1      -6.912   0.438   0.604  0.00  0.00    +0.223 A 
ATOM     28  N   UNL     1      -6.467   0.283  -0.627  0.00  0.00    -0.229 NA
ATOM     29  C   UNL     1      -0.738   1.584   1.266  0.00  0.00    +0.043 C 
ATOM     30  C   UNL     1      -0.013   1.086   0.008  0.00  0.00    +0.005 C 
ATOM     31  C   UNL     1      -0.760   1.597  -1.227  0.00  0.00    +0.005 C 
ATOM     32  C   UNL     1      -2.101   0.873  -1.358  0.00  0.00    +0.037 C 
ENDBRANCH  19  20
ENDBRANCH  18  19
ENDBRANCH  10  18
TORSDOF 4
