REMARK  Name = ZINC08587568
REMARK  11 active torsions:
REMARK  status: ('A' for Active; 'I' for Inactive)
REMARK    1  A    between atoms: C_1  and  C_2
REMARK    2  A    between atoms: C_2  and  C_3
REMARK    3  A    between atoms: C_3  and  C_5
REMARK    4  A    between atoms: C_3  and  N_17
REMARK    5  A    between atoms: N_7  and  C_8
REMARK    6  A    between atoms: C_9  and  C_16
REMARK    7  A    between atoms: C_11  and  C_15
REMARK    8  A    between atoms: C_13  and  C_14
REMARK    9  A    between atoms: C_25  and  C_28
REMARK   10  A    between atoms: C_33  and  N_34
REMARK   11  A    between atoms: C_35  and  C_37
REMARK                            x       y       z     vdW  Elec       q    Type
REMARK                         _______ _______ _______ _____ _____    ______ ____
ROOT
ATOM      1  N   UNL     1       1.245  -0.250   0.303  0.00  0.00    -0.293 N 
ATOM      2  C   UNL     1       2.344   0.492  -0.085  0.00  0.00    +0.071 A 
ATOM      3  C   UNL     1       2.637   0.654  -1.436  0.00  0.00    +0.028 A 
ATOM      4  C   UNL     1       3.735   1.396  -1.816  0.00  0.00    +0.002 A 
ATOM      5  C   UNL     1       4.553   1.985  -0.860  0.00  0.00    +0.002 A 
ATOM      6  C   UNL     1       4.285   1.839   0.469  0.00  0.00    +0.030 A 
ATOM      7  C   UNL     1       3.173   1.089   0.883  0.00  0.00    +0.088 A 
ATOM      8  N   UNL     1       2.909   0.946   2.195  0.00  0.00    -0.240 NA
ATOM      9  C   UNL     1       1.875   0.249   2.604  0.00  0.00    +0.138 A 
ATOM     10  C   UNL     1       0.978  -0.387   1.621  0.00  0.00    +0.279 A 
ATOM     11  O   UNL     1       0.014  -1.031   1.991  0.00  0.00    -0.265 OA
ENDROOT
BRANCH   9  12
ATOM     12  C   UNL     1       1.605   0.107   4.050  0.00  0.00    +0.027 A 
ATOM     13  C   UNL     1       2.501  -0.586   4.866  0.00  0.00    +0.012 A 
ATOM     14  C   UNL     1       2.244  -0.715   6.215  0.00  0.00    +0.001 A 
ATOM     15  C   UNL     1       1.100  -0.161   6.765  0.00  0.00    +0.002 A 
ATOM     16  C   UNL     1       0.205   0.526   5.969  0.00  0.00    +0.024 A 
ATOM     17  C   UNL     1       0.451   0.671   4.611  0.00  0.00    +0.043 A 
BRANCH  17  18
ATOM     18  N   UNL     1      -0.449   1.371   3.806  0.00  0.00    -0.285 N 
ATOM     19  C   UNL     1      -1.749   1.443   4.154  0.00  0.00    +0.214 C 
ATOM     20  O   UNL     1      -2.122   0.971   5.207  0.00  0.00    -0.276 OA
ATOM     21  C   UNL     1      -2.739   2.111   3.236  0.00  0.00    +0.109 C 
ATOM     22  H   UNL     1      -0.139   1.806   2.997  0.00  0.00    +0.155 HD
ENDBRANCH  17  18
ENDBRANCH   9  12
BRANCH   1  23
ATOM     23  C   UNL     1       0.378  -0.874  -0.699  0.00  0.00    +0.176 C 
BRANCH  23  24
ATOM     24  C   UNL     1       0.433  -2.373  -0.548  0.00  0.00    +0.240 C 
ATOM     25  O   UNL     1       1.128  -2.870   0.313  0.00  0.00    -0.273 OA
ATOM     26  N   UNL     1      -0.290  -3.160  -1.369  0.00  0.00    -0.283 N 
ATOM     27  H   UNL     1      -0.816  -2.764  -2.081  0.00  0.00    +0.155 HD
BRANCH  26  28
ATOM     28  C   UNL     1      -0.282  -4.548  -1.193  0.00  0.00    +0.039 A 
ATOM     29  C   UNL     1      -1.475  -5.230  -0.989  0.00  0.00    -0.029 A 
ATOM     30  C   UNL     1      -1.464  -6.600  -0.816  0.00  0.00    +0.008 A 
ATOM     31  C   UNL     1      -0.267  -7.293  -0.845  0.00  0.00    -0.050 A 
ATOM     32  C   UNL     1       0.922  -6.617  -1.047  0.00  0.00    +0.008 A 
ATOM     33  C   UNL     1       0.917  -5.247  -1.227  0.00  0.00    -0.029 A 
ATOM     34  C   UNL     1       2.213  -4.512  -1.454  0.00  0.00    +0.045 C 
ATOM     35  C   UNL     1      -0.259  -8.788  -0.656  0.00  0.00    +0.044 C 
ATOM     36  C   UNL     1      -2.779  -4.476  -0.957  0.00  0.00    +0.045 C 
ENDBRANCH  26  28
ENDBRANCH  23  24
BRANCH  23  38
ATOM     37  C   UNL     1      -1.140   1.109  -0.775  0.00  0.00    +0.006 C 
ATOM     38  C   UNL     1      -1.061  -0.394  -0.499  0.00  0.00    +0.031 C 
ENDBRANCH  23  38
ENDBRANCH   1  23
TORSDOF 6
