REMARK  Name = ZINC23873259
REMARK  7 active torsions:
REMARK  status: ('A' for Active; 'I' for Inactive)
REMARK    1  A    between atoms: C_1  and  C_2
REMARK    2  A    between atoms: C_2  and  C_3
REMARK    3  A    between atoms: C_2  and  C_4
REMARK    4  A    between atoms: C_4  and  C_6
REMARK    5  A    between atoms: C_4  and  N_17
REMARK    6  A    between atoms: C_18  and  C_20
REMARK    7  A    between atoms: C_20  and  N_21
REMARK                            x       y       z     vdW  Elec       q    Type
REMARK                         _______ _______ _______ _____ _____    ______ ____
ROOT
ATOM      1  N   UNL     1      -3.505   3.185  -0.839  0.00  0.00    -0.307 N 
ATOM      2  C   UNL     1      -4.529   3.869  -1.386  0.00  0.00    +0.231 C 
ATOM      3  O   UNL     1      -4.666   5.050  -1.147  0.00  0.00    -0.274 OA
ATOM      4  H   UNL     1      -3.381   2.113  -1.056  0.00  0.00    +0.149 HD
ENDROOT
BRANCH   1   5
ATOM      5  C   UNL     1      -2.556   3.868   0.044  0.00  0.00    +0.106 C 
BRANCH   5   6
ATOM      6  C   UNL     1      -1.239   3.136   0.029  0.00  0.00    -0.023 A 
ATOM      7  C   UNL     1      -1.218   1.754   0.017  0.00  0.00    +0.009 A 
ATOM      8  C   UNL     1      -0.013   1.076   0.008  0.00  0.00    +0.050 A 
ATOM      9  C   UNL     1       1.175   1.787   0.000  0.00  0.00    +0.162 A 
ATOM     10  C   UNL     1       1.155   3.175   0.008  0.00  0.00    +0.162 A 
ATOM     11  C   UNL     1      -0.054   3.850   0.022  0.00  0.00    +0.055 A 
ATOM     12  O   UNL     1       2.331   3.867   0.001  0.00  0.00    -0.488 OA
ATOM     13  C   UNL     1       3.122   3.766   1.187  0.00  0.00    +0.232 C 
ATOM     14  C   UNL     1       3.986   2.516   1.155  0.00  0.00    +0.082 C 
ATOM     15  C   UNL     1       3.159   1.240   1.172  0.00  0.00    +0.232 C 
ATOM     16  O   UNL     1       2.371   1.131  -0.015  0.00  0.00    -0.488 OA
ENDBRANCH   5   6
BRANCH   5  18
ATOM     17  C   UNL     1      -4.449   4.631   1.486  0.00  0.00    +0.009 C 
ATOM     18  C   UNL     1      -3.111   3.889   1.470  0.00  0.00    +0.008 C 
ATOM     19  C   UNL     1      -3.319   2.454   1.958  0.00  0.00    +0.009 C 
ENDBRANCH   5  18
ENDBRANCH   1   5
BRANCH   2  20
ATOM     20  C   UNL     1      -5.505   3.166  -2.294  0.00  0.00    +0.213 C 
BRANCH  20  21
ATOM     21  N   UNL     1      -6.517   4.119  -2.755  0.00  0.00    -0.215 N 
ATOM     22  C   UNL     1      -7.681   4.357  -2.117  0.00  0.00    +0.251 C 
ATOM     23  O   UNL     1      -8.074   3.842  -1.092  0.00  0.00    -0.272 OA
ATOM     24  C   UNL     1      -8.392   5.403  -2.946  0.00  0.00    +0.138 C 
ATOM     25  C   UNL     1      -9.715   4.851  -3.461  0.00  0.00    +0.040 C 
ATOM     26  C   UNL     1     -10.490   5.991  -4.134  0.00  0.00    +0.008 C 
ATOM     27  C   UNL     1     -10.931   6.978  -3.054  0.00  0.00    +0.035 C 
ATOM     28  C   UNL     1      -9.761   7.388  -2.199  0.00  0.00    -0.042 A 
ATOM     29  C   UNL     1      -8.594   6.658  -2.145  0.00  0.00    -0.012 A 
ATOM     30  C   UNL     1      -7.555   7.083  -1.326  0.00  0.00    +0.006 A 
ATOM     31  C   UNL     1      -7.682   8.231  -0.572  0.00  0.00    +0.000 A 
ATOM     32  C   UNL     1      -8.852   8.965  -0.629  0.00  0.00    +0.000 A 
ATOM     33  C   UNL     1      -9.886   8.544  -1.440  0.00  0.00    +0.004 A 
ATOM     34  N   UNL     1      -7.472   5.654  -4.064  0.00  0.00    -0.281 N 
ATOM     35  C   UNL     1      -6.404   4.858  -3.865  0.00  0.00    +0.310 C 
ATOM     36  O   UNL     1      -5.444   4.817  -4.610  0.00  0.00    -0.252 OA
ATOM     37  H   UNL     1      -7.739   6.382  -4.843  0.00  0.00    +0.152 HD
ENDBRANCH  20  21
ENDBRANCH   2  20
TORSDOF 5
