REMARK  Name = ZINC39273440
REMARK  5 active torsions:
REMARK  status: ('A' for Active; 'I' for Inactive)
REMARK    1  A    between atoms: C_1  and  C_2
REMARK    2  A    between atoms: C_2  and  C_3
REMARK    3  A    between atoms: C_6  and  C_30
REMARK    4  A    between atoms: C_9  and  C_11
REMARK    5  A    between atoms: C_13  and  C_24
REMARK                            x       y       z     vdW  Elec       q    Type
REMARK                         _______ _______ _______ _____ _____    ______ ____
ROOT
ATOM      1  C   UNL     1       0.254  -5.322  -0.312  0.00  0.00    +0.152 C 
ATOM      2  C   UNL     1      -0.296  -4.897   1.036  0.00  0.00    -0.014 C 
ATOM      3  C   UNL     1      -1.617  -5.253   1.323  0.00  0.00    +0.002 A 
ATOM      4  C   UNL     1      -2.207  -4.898   2.554  0.00  0.00    +0.025 A 
ATOM      5  C   UNL     1      -3.495  -5.258   2.808  0.00  0.00    +0.019 A 
ATOM      6  C   UNL     1      -4.246  -5.971   1.875  0.00  0.00    +0.017 A 
ATOM      7  C   UNL     1      -3.730  -6.342   0.671  0.00  0.00    +0.025 A 
ATOM      8  C   UNL     1      -2.405  -6.005   0.340  0.00  0.00    +0.041 A 
ATOM      9  N   UNL     1      -1.901  -6.370  -0.843  0.00  0.00    -0.284 N 
ATOM     10  C   UNL     1      -0.671  -6.091  -1.228  0.00  0.00    +0.230 C 
ATOM     11  O   UNL     1      -0.280  -6.455  -2.321  0.00  0.00    -0.274 OA
ATOM     12 BR   UNL     1      -4.282  -4.780   4.460  0.00  0.00    -0.050 Br
ATOM     13  H   UNL     1      -2.471  -6.866  -1.452  0.00  0.00    +0.155 HD
ENDROOT
BRANCH   1  19
ATOM     14  C   UNL     1       0.882  -0.577  -1.319  0.00  0.00    +0.235 C 
ATOM     15  O   UNL     1       1.365   0.189  -2.126  0.00  0.00    -0.274 OA
ATOM     16  N   UNL     1       0.988  -1.907  -1.506  0.00  0.00    -0.185 N 
ATOM     17  C   UNL     1       1.665  -2.564  -2.637  0.00  0.00    +0.136 C 
ATOM     18  C   UNL     1       1.478  -4.065  -2.338  0.00  0.00    +0.083 C 
ATOM     19  C   UNL     1       0.699  -4.080  -1.042  0.00  0.00    +0.055 C 
ATOM     20  N   UNL     1       0.481  -2.890  -0.658  0.00  0.00    -0.185 NA
BRANCH  17  21
ATOM     21  C   UNL     1       3.127  -2.202  -2.665  0.00  0.00    -0.025 A 
ATOM     22  C   UNL     1       3.836  -2.098  -1.482  0.00  0.00    +0.005 A 
ATOM     23  C   UNL     1       5.178  -1.766  -1.508  0.00  0.00    +0.000 A 
ATOM     24  C   UNL     1       5.811  -1.538  -2.716  0.00  0.00    +0.000 A 
ATOM     25  C   UNL     1       5.102  -1.643  -3.898  0.00  0.00    +0.000 A 
ATOM     26  C   UNL     1       3.762  -1.979  -3.873  0.00  0.00    +0.005 A 
ENDBRANCH  17  21
BRANCH  14  28
ATOM     27  C   UNL     1       0.187   1.488  -0.136  0.00  0.00    +0.013 C 
ATOM     28  C   UNL     1       0.164  -0.041  -0.107  0.00  0.00    +0.094 C 
ENDBRANCH  14  28
ENDBRANCH   1  19
BRANCH   2  29
ATOM     29  C   UNL     1       0.494  -4.172   1.963  0.00  0.00    -0.020 A 
ATOM     30  C   UNL     1       0.112  -2.880   2.359  0.00  0.00    +0.008 A 
ATOM     31  C   UNL     1       0.887  -2.184   3.261  0.00  0.00    +0.001 A 
ATOM     32  C   UNL     1       2.039  -2.755   3.777  0.00  0.00    +0.000 A 
ATOM     33  C   UNL     1       2.424  -4.029   3.393  0.00  0.00    +0.001 A 
ATOM     34  C   UNL     1       1.661  -4.744   2.497  0.00  0.00    +0.008 A 
ENDBRANCH   2  29
TORSDOF 4
