REMARK  Name = ZINC01108129
REMARK  12 active torsions:
REMARK  status: ('A' for Active; 'I' for Inactive)
REMARK    1  A    between atoms: C_1  and  C_2
REMARK    2  A    between atoms: C_2  and  C_3
REMARK    3  A    between atoms: C_2  and  C_4
REMARK    4  A    between atoms: C_4  and  C_5
REMARK    5  A    between atoms: C_5  and  O_7
REMARK    6  A    between atoms: O_7  and  C_8
REMARK    7  A    between atoms: C_10  and  N_74
REMARK    8  A    between atoms: C_16  and  C_19
REMARK    9  A    between atoms: C_17  and  O_18
REMARK   10  A    between atoms: C_20  and  C_21
REMARK   11  A    between atoms: C_30  and  C_31
REMARK   12  A    between atoms: C_30  and  C_32
REMARK                            x       y       z     vdW  Elec       q    Type
REMARK                         _______ _______ _______ _____ _____    ______ ____
ROOT
ATOM      1  C   UNL     1       0.081  -0.133  -0.257  0.00  0.00    +0.210 C 
ATOM      2  C   UNL     1      -0.039   1.386  -0.114  0.00  0.00    +0.015 C 
ATOM      3  C   UNL     1       1.337   2.000  -0.052  0.00  0.00    +0.026 A 
ATOM      4  C   UNL     1       2.456   1.238   0.240  0.00  0.00    +0.127 A 
ATOM      5  C   UNL     1       3.715   1.839   0.294  0.00  0.00    +0.047 A 
ATOM      6  C   UNL     1       3.859   3.184   0.056  0.00  0.00    +0.015 A 
ATOM      7  C   UNL     1       2.735   3.963  -0.244  0.00  0.00    +0.017 A 
ATOM      8  C   UNL     1       1.469   3.359  -0.296  0.00  0.00    +0.129 A 
ATOM      9  O   UNL     1       2.369  -0.095   0.478  0.00  0.00    -0.482 OA
ATOM     10  C   UNL     1       1.084  -0.637   0.789  0.00  0.00    +0.140 C 
ATOM     11  C   UNL     1       0.653  -0.173   2.182  0.00  0.00    +0.059 C 
ATOM     12  C   UNL     1       1.145  -2.165   0.750  0.00  0.00    +0.059 C 
ENDROOT
BRANCH   2  18
ATOM     13  C   UNL     1      -2.146   1.184   1.065  0.00  0.00    -0.049 C 
ATOM     14  C   UNL     1      -2.852   1.485   2.389  0.00  0.00    +0.141 C 
ATOM     15  O   UNL     1      -2.816   2.894   2.634  0.00  0.00    -0.383 OA
ATOM     16  C   UNL     1      -1.493   3.434   2.694  0.00  0.00    +0.141 C 
ATOM     17  C   UNL     1      -0.772   3.152   1.372  0.00  0.00    -0.049 C 
ATOM     18  N   UNL     1      -0.760   1.693   1.141  0.00  0.00    +0.390 N 
ATOM     19  H   UNL     1      -0.279   1.234   1.923  0.00  0.00    -0.081 HD
ENDBRANCH   2  18
BRANCH   8  20
ATOM     20  O   UNL     1       0.373   4.106  -0.585  0.00  0.00    -0.506 OA
ATOM     21  H   UNL     1       0.012   4.584   0.174  0.00  0.00    +0.292 HD
ENDBRANCH   8  20
BRANCH   7  22
ATOM     22  C   UNL     1       2.880   5.401  -0.501  0.00  0.00    +0.016 C 
ATOM     23  C   UNL     1       4.101   5.977  -0.449  0.00  0.00    +0.068 C 
BRANCH  23  24
ATOM     24  C   UNL     1       4.241   7.366  -0.698  0.00  0.00    +0.240 C 
ATOM     25  O   UNL     1       3.252   8.058  -0.861  0.00  0.00    -0.271 OA
ATOM     26  N   UNL     1       5.468   7.921  -0.753  0.00  0.00    -0.294 N 
ATOM     27  C   UNL     1       6.671   7.131  -0.445  0.00  0.00    +0.136 C 
ATOM     28  C   UNL     1       7.676   7.324  -1.591  0.00  0.00    +0.179 C 
ATOM     29  O   UNL     1       7.875   8.723  -1.811  0.00  0.00    -0.377 OA
ATOM     30  C   UNL     1       6.699   9.423  -2.224  0.00  0.00    +0.179 C 
ATOM     31  C   UNL     1       5.644   9.336  -1.116  0.00  0.00    +0.136 C 
ENDBRANCH  23  24
ENDBRANCH   7  22
BRANCH   1  32
ATOM     32  O   UNL     1       0.554  -0.464  -1.589  0.00  0.00    -0.459 OA
BRANCH  32  33
ATOM     33  C   UNL     1       0.153  -1.636  -2.105  0.00  0.00    +0.308 C 
ATOM     34  O   UNL     1      -0.569  -2.362  -1.465  0.00  0.00    -0.251 OA
BRANCH  33  35
ATOM     35  C   UNL     1       0.604  -2.046  -3.483  0.00  0.00    +0.123 C 
BRANCH  35  37
ATOM     36  C   UNL     1      -1.513  -3.299  -3.918  0.00  0.00    +0.008 C 
ATOM     37  C   UNL     1       0.010  -3.413  -3.828  0.00  0.00    -0.007 C 
ATOM     38  C   UNL     1       0.566  -3.887  -5.173  0.00  0.00    +0.008 C 
ENDBRANCH  35  37
ENDBRANCH  33  35
ENDBRANCH  32  33
ENDBRANCH   1  32
TORSDOF 8
