REMARK  Name = ZINC29571860
REMARK  10 active torsions:
REMARK  status: ('A' for Active; 'I' for Inactive)
REMARK    1  A    between atoms: C_1  and  C_2
REMARK    2  A    between atoms: C_5  and  N_27
REMARK    3  A    between atoms: C_6  and  N_9
REMARK    4  A    between atoms: C_7  and  C_8
REMARK    5  A    between atoms: C_10  and  C_12
REMARK    6  A    between atoms: C_12  and  C_14
REMARK    7  A    between atoms: C_12  and  N_15
REMARK    8  A    between atoms: N_15  and  C_16
REMARK    9  A    between atoms: C_16  and  C_18
REMARK   10  A    between atoms: C_16  and  C_19
REMARK                            x       y       z     vdW  Elec       q    Type
REMARK                         _______ _______ _______ _____ _____    ______ ____
ROOT
ATOM      1  N   UNL     1       1.413   1.927   2.496  0.00  0.00    -0.285 N 
ATOM      2  C   UNL     1       2.062   2.421   3.570  0.00  0.00    +0.203 C 
ATOM      3  O   UNL     1       1.434   2.822   4.526  0.00  0.00    -0.277 OA
ATOM      4  H   UNL     1       1.983   1.486   1.665  0.00  0.00    +0.155 HD
ENDROOT
BRANCH   1  10
ATOM      5  C   UNL     1      -2.946   0.423   4.199  0.00  0.00    +0.044 C 
ATOM      6  C   UNL     1      -2.122   1.258   3.253  0.00  0.00    -0.046 A 
ATOM      7  C   UNL     1      -2.747   2.072   2.326  0.00  0.00    +0.006 A 
ATOM      8  C   UNL     1      -1.994   2.836   1.454  0.00  0.00    +0.035 A 
ATOM      9  C   UNL     1      -0.614   2.790   1.507  0.00  0.00    +0.148 A 
ATOM     10  C   UNL     1       0.016   1.976   2.439  0.00  0.00    +0.067 A 
ATOM     11  C   UNL     1      -0.743   1.211   3.315  0.00  0.00    -0.024 A 
ATOM     12  C   UNL     1      -0.063   0.327   4.328  0.00  0.00    +0.046 C 
BRANCH   9  13
ATOM     13  N   UNL     1       0.191   3.607   0.572  0.00  0.00    +0.058 N 
ATOM     14  O   UNL     1      -0.362   4.309  -0.255  0.00  0.00    -0.126 OA
ATOM     15  O   UNL     1       1.408   3.578   0.630  0.00  0.00    -0.126 OA
ENDBRANCH   9  13
ENDBRANCH   1  10
BRANCH   2  16
ATOM     16  C   UNL     1       3.568   2.475   3.581  0.00  0.00    +0.014 C 
ATOM     17  C   UNL     1       4.056   3.346   2.421  0.00  0.00    -0.004 C 
BRANCH  16  18
ATOM     18  N   UNL     1       4.028   3.050   4.852  0.00  0.00    +0.391 N 
ATOM     19  H   UNL     1       4.026   4.147   4.780  0.00  0.00    -0.084 HD
ATOM     20  H   UNL     1       3.354   2.734   5.662  0.00  0.00    -0.084 HD
BRANCH  18  21
ATOM     21  C   UNL     1       5.390   2.601   5.170  0.00  0.00    -0.040 C 
ATOM     22  C   UNL     1       5.328   1.247   5.881  0.00  0.00    -0.009 C 
BRANCH  21  23
ATOM     23  C   UNL     1       6.054   3.610   6.071  0.00  0.00    -0.026 A 
ATOM     24  C   UNL     1       5.284   4.440   6.865  0.00  0.00    +0.007 A 
ATOM     25  C   UNL     1       5.892   5.362   7.695  0.00  0.00    +0.039 A 
ATOM     26  C   UNL     1       7.273   5.465   7.724  0.00  0.00    +0.126 A 
ATOM     27  C   UNL     1       8.044   4.638   6.926  0.00  0.00    +0.076 A 
ATOM     28  C   UNL     1       7.435   3.711   6.099  0.00  0.00    +0.128 A 
ATOM     29  F   UNL     1       8.187   2.903   5.319  0.00  0.00    -0.205 F 
ATOM     30  F   UNL     1       7.866   6.370   8.532  0.00  0.00    -0.205 F 
ENDBRANCH  21  23
ENDBRANCH  18  21
ENDBRANCH  16  18
ENDBRANCH   2  16
TORSDOF 6
