REMARK  Name = ZINC06301945
REMARK  9 active torsions:
REMARK  status: ('A' for Active; 'I' for Inactive)
REMARK    1  A    between atoms: C_1  and  C_2
REMARK    2  A    between atoms: C_4  and  C_40
REMARK    3  A    between atoms: C_7  and  C_14
REMARK    4  A    between atoms: C_14  and  C_16
REMARK    5  A    between atoms: C_14  and  N_73
REMARK    6  A    between atoms: N_20  and  C_21
REMARK    7  A    between atoms: C_21  and  C_22
REMARK    8  A    between atoms: C_30  and  C_33
REMARK    9  A    between atoms: C_33  and  C_34
REMARK                            x       y       z     vdW  Elec       q    Type
REMARK                         _______ _______ _______ _____ _____    ______ ____
ROOT
ATOM      1  C   UNL     1      -2.490   0.996   0.020  0.00  0.00    +0.039 C 
ENDROOT
BRANCH   1   8
ATOM      2  C   UNL     1       3.518   6.050  -1.385  0.00  0.00    +0.044 C 
ATOM      3  C   UNL     1       2.300   5.165  -1.327  0.00  0.00    -0.048 A 
ATOM      4  C   UNL     1       1.385   5.185  -2.371  0.00  0.00    +0.007 A 
ATOM      5  C   UNL     1       0.275   4.390  -2.338  0.00  0.00    -0.041 A 
ATOM      6  C   UNL     1       0.057   3.548  -1.242  0.00  0.00    +0.002 A 
ATOM      7  C   UNL     1      -1.123   2.684  -1.174  0.00  0.00    +0.018 A 
ATOM      8  C   UNL     1      -1.284   1.893  -0.085  0.00  0.00    +0.011 A 
ATOM      9  C   UNL     1      -0.324   1.903   0.950  0.00  0.00    +0.251 A 
ATOM     10  O   UNL     1      -0.486   1.181   1.918  0.00  0.00    -0.268 OA
ATOM     11  N   UNL     1       0.762   2.694   0.896  0.00  0.00    -0.322 N 
ATOM     12  H   UNL     1       1.401   2.679   1.626  0.00  0.00    +0.169 HD
ATOM     13  C   UNL     1       0.982   3.525  -0.182  0.00  0.00    +0.050 A 
ATOM     14  C   UNL     1       2.106   4.343  -0.238  0.00  0.00    +0.029 A 
ATOM     15  C   UNL     1      -0.711   4.420  -3.477  0.00  0.00    +0.044 C 
ENDBRANCH   1   8
BRANCH   1  21
ATOM     16  C   UNL     1      -3.563   2.778   1.258  0.00  0.00    -0.077 C 
ATOM     17  C   UNL     1      -4.231   3.127   2.590  0.00  0.00    -0.015 C 
ATOM     18  C   UNL     1      -5.515   2.307   2.742  0.00  0.00    -0.010 C 
ATOM     19  C   UNL     1      -5.173   0.817   2.655  0.00  0.00    -0.015 C 
ATOM     20  C   UNL     1      -4.479   0.535   1.321  0.00  0.00    -0.077 C 
ATOM     21  N   UNL     1      -3.238   1.335   1.248  0.00  0.00    +0.389 N 
ATOM     22  H   UNL     1      -2.654   1.120   2.064  0.00  0.00    -0.080 HD
BRANCH  18  23
ATOM     23  C   UNL     1      -6.155   2.607   4.099  0.00  0.00    +0.038 C 
BRANCH  23  24
ATOM     24  C   UNL     1      -6.603   4.045   4.137  0.00  0.00    -0.047 A 
ATOM     25  C   UNL     1      -5.741   5.025   4.593  0.00  0.00    +0.003 A 
ATOM     26  C   UNL     1      -6.149   6.346   4.623  0.00  0.00    +0.000 A 
ATOM     27  C   UNL     1      -7.423   6.684   4.207  0.00  0.00    +0.000 A 
ATOM     28  C   UNL     1      -8.287   5.704   3.755  0.00  0.00    +0.000 A 
ATOM     29  C   UNL     1      -7.876   4.384   3.721  0.00  0.00    +0.003 A 
ENDBRANCH  23  24
ENDBRANCH  18  23
ENDBRANCH   1  21
BRANCH   1  30
ATOM     30  C   UNL     1      -3.360   1.179  -1.198  0.00  0.00    +0.143 A 
ATOM     31  N   UNL     1      -4.144   2.197  -1.453  0.00  0.00    -0.115 NA
ATOM     32  N   UNL     1      -4.717   1.984  -2.587  0.00  0.00    -0.023 NA
ATOM     33  N   UNL     1      -4.318   0.856  -3.062  0.00  0.00    -0.044 NA
ATOM     34  N   UNL     1      -3.476   0.331  -2.237  0.00  0.00    -0.226 N 
BRANCH  34  35
ATOM     35  C   UNL     1      -2.781  -0.948  -2.399  0.00  0.00    +0.182 C 
BRANCH  35  36
ATOM     36  C   UNL     1      -3.610  -2.051  -1.792  0.00  0.00    -0.026 A 
ATOM     37  C   UNL     1      -3.438  -2.395  -0.465  0.00  0.00    +0.005 A 
ATOM     38  C   UNL     1      -4.202  -3.403   0.093  0.00  0.00    +0.000 A 
ATOM     39  C   UNL     1      -5.131  -4.074  -0.680  0.00  0.00    +0.000 A 
ATOM     40  C   UNL     1      -5.300  -3.733  -2.009  0.00  0.00    +0.000 A 
ATOM     41  C   UNL     1      -4.539  -2.722  -2.565  0.00  0.00    +0.005 A 
ENDBRANCH  35  36
ENDBRANCH  34  35
ENDBRANCH   1  30
TORSDOF 7
