REMARK  Name = ZINC09892203
REMARK  6 active torsions:
REMARK  status: ('A' for Active; 'I' for Inactive)
REMARK    1  A    between atoms: C_3  and  S_30
REMARK    2  A    between atoms: C_6  and  C_7
REMARK    3  A    between atoms: C_7  and  C_8
REMARK    4  A    between atoms: C_8  and  N_9
REMARK    5  A    between atoms: C_15  and  C_20
REMARK    6  A    between atoms: S_30  and  N_33
REMARK                            x       y       z     vdW  Elec       q    Type
REMARK                         _______ _______ _______ _____ _____    ______ ____
ROOT
ATOM      1  N   UNL     1       1.241  -4.154  -1.472  0.00  0.00    -0.234 N 
ATOM      2  C   UNL     1       0.143  -4.930  -1.466  0.00  0.00    +0.254 C 
ATOM      3  O   UNL     1      -1.005  -4.534  -1.452  0.00  0.00    -0.270 OA
ATOM      4  C   UNL     1       0.566  -6.346  -1.476  0.00  0.00    +0.049 A 
ATOM      5  C   UNL     1      -0.106  -7.558  -1.475  0.00  0.00    +0.014 A 
ATOM      6  C   UNL     1       0.612  -8.743  -1.486  0.00  0.00    +0.005 A 
ATOM      7  C   UNL     1       1.994  -8.724  -1.500  0.00  0.00    -0.040 A 
ATOM      8  C   UNL     1       2.681  -7.519  -1.501  0.00  0.00    +0.018 A 
ATOM      9  C   UNL     1       1.976  -6.327  -1.490  0.00  0.00    +0.050 A 
ATOM     10  C   UNL     1       2.361  -4.900  -1.492  0.00  0.00    +0.254 C 
ATOM     11  O   UNL     1       3.497  -4.472  -1.508  0.00  0.00    -0.270 OA
ENDROOT
BRANCH   7  12
ATOM     12  C   UNL     1       2.760 -10.022  -1.512  0.00  0.00    -0.003 C 
ATOM     13  C   UNL     1       3.653 -10.099  -0.272  0.00  0.00    +0.015 C 
ATOM     14  C   UNL     1       4.430 -11.417  -0.285  0.00  0.00    -0.010 C 
ATOM     15  C   UNL     1       3.447 -12.589  -0.280  0.00  0.00    +0.007 C 
ATOM     16  C   UNL     1       2.555 -12.512  -1.521  0.00  0.00    -0.010 C 
ATOM     17  C   UNL     1       1.777 -11.194  -1.508  0.00  0.00    +0.015 C 
ATOM     18  C   UNL     1       3.423 -12.579  -2.779  0.00  0.00    +0.007 C 
ATOM     19  C   UNL     1       4.406 -11.407  -2.783  0.00  0.00    -0.010 C 
ATOM     20  C   UNL     1       5.299 -11.484  -1.543  0.00  0.00    +0.007 C 
ATOM     21  C   UNL     1       3.629 -10.089  -2.770  0.00  0.00    +0.015 C 
ENDBRANCH   7  12
BRANCH   1  22
ATOM     22  C   UNL     1       1.221  -2.689  -1.465  0.00  0.00    +0.121 C 
BRANCH  22  23
ATOM     23  C   UNL     1       1.229  -2.186  -0.021  0.00  0.00    +0.054 C 
BRANCH  23  29
ATOM     24  C   UNL     1       0.002  -0.004   0.002  0.00  0.00    +0.005 A 
ATOM     25  C   UNL     1      -0.017   1.378   0.010  0.00  0.00    +0.029 A 
ATOM     26  C   UNL     1       1.171   2.086   0.002  0.00  0.00    +0.105 A 
ATOM     27  C   UNL     1       2.377   1.411  -0.015  0.00  0.00    +0.029 A 
ATOM     28  C   UNL     1       2.396   0.029  -0.021  0.00  0.00    +0.005 A 
ATOM     29  C   UNL     1       1.208  -0.679  -0.013  0.00  0.00    -0.046 A 
BRANCH  26  30
ATOM     30  S   UNL     1       1.147   3.847   0.011  0.00  0.00    +0.056 S 
ATOM     31  O   UNL     1       2.382   4.273  -0.549  0.00  0.00    -0.153 OA
ATOM     32  O   UNL     1      -0.109   4.239  -0.526  0.00  0.00    -0.153 OA
BRANCH  30  33
ATOM     33  N   UNL     1       1.155   4.329   1.596  0.00  0.00    -0.204 NA
ATOM     34  H   UNL     1       1.566   5.172   1.844  0.00  0.00    +0.144 HD
ATOM     35  H   UNL     1       0.749   3.768   2.275  0.00  0.00    +0.144 HD
ENDBRANCH  30  33
ENDBRANCH  26  30
ENDBRANCH  23  29
ENDBRANCH  22  23
ENDBRANCH   1  22
TORSDOF 6
