REMARK  Name = ZINC10712050
REMARK  8 active torsions:
REMARK  status: ('A' for Active; 'I' for Inactive)
REMARK    1  A    between atoms: C_1  and  S_2
REMARK    2  A    between atoms: S_2  and  C_3
REMARK    3  A    between atoms: C_4  and  C_30
REMARK    4  A    between atoms: C_5  and  C_12
REMARK    5  A    between atoms: C_7  and  C_9
REMARK    6  A    between atoms: C_12  and  O_14
REMARK    7  A    between atoms: O_14  and  C_15
REMARK    8  A    between atoms: C_15  and  C_16
REMARK                            x       y       z     vdW  Elec       q    Type
REMARK                         _______ _______ _______ _____ _____    ______ ____
ROOT
ATOM      1  C   UNL     1       0.379   1.480   0.021  0.00  0.00    +0.308 C 
ENDROOT
BRANCH   1   2
ATOM      2  C   UNL     1       0.188  -0.015   0.007  0.00  0.00    +0.170 A 
ATOM      3  N   UNL     1       0.174  -0.653  -1.149  0.00  0.00    -0.214 NA
ATOM      4  C   UNL     1       0.017  -1.965  -1.228  0.00  0.00    +0.128 A 
ATOM      5  C   UNL     1      -0.154  -2.714  -0.032  0.00  0.00    +0.051 A 
ATOM      6  C   UNL     1      -0.348  -4.157   0.126  0.00  0.00    -0.025 A 
ATOM      7  C   UNL     1      -0.486  -4.621   1.385  0.00  0.00    -0.004 A 
ATOM      8  S   UNL     1      -0.370  -3.188   2.422  0.00  0.00    -0.073 S 
ATOM      9  C   UNL     1      -0.134  -1.964   1.161  0.00  0.00    +0.114 A 
ATOM     10  N   UNL     1       0.034  -0.656   1.149  0.00  0.00    -0.221 NA
ATOM     11  C   UNL     1      -0.694  -6.043   1.809  0.00  0.00    +0.043 C 
ATOM     12  C   UNL     1      -1.098  -6.864   0.576  0.00  0.00    +0.005 C 
ATOM     13  C   UNL     1      -0.138  -6.533  -0.570  0.00  0.00    +0.005 C 
ATOM     14  C   UNL     1      -0.393  -5.109  -1.066  0.00  0.00    +0.037 C 
ATOM     15  N   UNL     1       0.014  -2.598  -2.458  0.00  0.00    -0.343 N 
ATOM     16  H   UNL     1      -0.329  -3.501  -2.538  0.00  0.00    +0.144 HD
ATOM     17  H   UNL     1       0.355  -2.138  -3.241  0.00  0.00    +0.144 HD
ENDBRANCH   1   2
BRANCH   1  18
ATOM     18  O   UNL     1       1.795   1.787   0.111  0.00  0.00    -0.453 OA
BRANCH  18  19
ATOM     19  C   UNL     1       2.138   3.089   0.135  0.00  0.00    +0.341 C 
ATOM     20  O   UNL     1       1.278   3.945   0.081  0.00  0.00    -0.245 OA
BRANCH  19  23
ATOM     21  C   UNL     1       5.313   5.148   0.338  0.00  0.00    +0.115 A 
ATOM     22  C   UNL     1       3.945   4.834   0.251  0.00  0.00    +0.097 A 
ATOM     23  C   UNL     1       3.563   3.477   0.225  0.00  0.00    +0.081 A 
ATOM     24  C   UNL     1       4.568   2.510   0.294  0.00  0.00    +0.040 A 
ATOM     25  C   UNL     1       5.890   2.909   0.372  0.00  0.00    +0.046 A 
ATOM     26  N   UNL     1       6.220   4.185   0.395  0.00  0.00    -0.244 NA
BRANCH  25  27
ATOM     27  C   UNL     1       6.974   1.865   0.440  0.00  0.00    +0.038 C 
ATOM     28  C   UNL     1       6.557   0.436   0.793  0.00  0.00    +0.010 C 
ATOM     29  C   UNL     1       7.313   1.287   1.816  0.00  0.00    +0.010 C 
ENDBRANCH  25  27
BRANCH  21  31
ATOM     30  C   UNL     1       7.617   6.617   0.487  0.00  0.00    +0.091 C 
ATOM     31  S   UNL     1       5.824   6.834   0.373  0.00  0.00    -0.108 S 
ENDBRANCH  21  31
BRANCH  22  32
ATOM     32  C   UNL     1       2.960   5.872   0.190  0.00  0.00    +0.103 C 
ATOM     33  N   UNL     1       2.179   6.695   0.141  0.00  0.00    -0.191 NA
ENDBRANCH  22  32
ENDBRANCH  19  23
ENDBRANCH  18  19
ENDBRANCH   1  18
TORSDOF 7
