REMARK  Name = ZINC35866080
REMARK  5 active torsions:
REMARK  status: ('A' for Active; 'I' for Inactive)
REMARK    1  A    between atoms: C_1  and  C_2
REMARK    2  A    between atoms: C_2  and  C_3
REMARK    3  A    between atoms: C_3  and  C_4
REMARK    4  A    between atoms: C_14  and  C_18
REMARK    5  A    between atoms: C_25  and  C_27
REMARK                            x       y       z     vdW  Elec       q    Type
REMARK                         _______ _______ _______ _____ _____    ______ ____
ROOT
ATOM      1  C   UNL     1       0.733  -2.005  -1.255  0.00  0.00    +0.132 A 
ATOM      2  N   UNL     1       1.742  -2.640  -0.687  0.00  0.00    -0.217 NA
ATOM      3  C   UNL     1       1.825  -3.961  -0.672  0.00  0.00    +0.133 A 
ATOM      4  C   UNL     1       0.794  -4.726  -1.285  0.00  0.00    +0.051 A 
ATOM      5  C   UNL     1       0.672  -6.181  -1.392  0.00  0.00    -0.025 A 
ATOM      6  C   UNL     1      -0.415  -6.658  -2.030  0.00  0.00    -0.004 A 
ATOM      7  S   UNL     1      -1.331  -5.222  -2.521  0.00  0.00    -0.073 S 
ATOM      8  C   UNL     1      -0.249  -3.978  -1.868  0.00  0.00    +0.114 A 
ATOM      9  N   UNL     1      -0.255  -2.660  -1.834  0.00  0.00    -0.225 NA
ATOM     10  C   UNL     1      -0.768  -8.094  -2.272  0.00  0.00    +0.046 C 
ATOM     11  C   UNL     1       0.479  -8.951  -2.010  0.00  0.00    -0.009 C 
ATOM     12  C   UNL     1       1.098  -8.522  -0.676  0.00  0.00    +0.008 C 
ATOM     13  C   UNL     1       1.718  -7.131  -0.815  0.00  0.00    +0.037 C 
ATOM     14  C   UNL     1       0.084 -10.427  -1.946  0.00  0.00    +0.008 C 
ATOM     15  N   UNL     1       2.899  -4.589  -0.067  0.00  0.00    -0.312 N 
ATOM     16  C   UNL     1       4.064  -5.006  -0.859  0.00  0.00    +0.125 C 
ATOM     17  C   UNL     1       5.323  -4.381  -0.245  0.00  0.00    +0.126 C 
ATOM     18  N   UNL     1       5.319  -4.643   1.201  0.00  0.00    -0.298 N 
ATOM     19  C   UNL     1       4.154  -4.226   1.993  0.00  0.00    +0.126 C 
ATOM     20  C   UNL     1       2.897  -4.846   1.380  0.00  0.00    +0.125 C 
ATOM     21  C   UNL     1       6.366  -5.255   1.790  0.00  0.00    +0.219 C 
ATOM     22  O   UNL     1       7.322  -5.595   1.126  0.00  0.00    -0.275 OA
ENDROOT
BRANCH  21  23
ATOM     23  C   UNL     1       6.348  -5.517   3.274  0.00  0.00    +0.075 C 
ATOM     24  C   UNL     1       6.296  -4.183   4.046  0.00  0.00    +0.013 C 
ATOM     25  C   UNL     1       7.188  -4.427   5.288  0.00  0.00    +0.001 C 
ATOM     26  C   UNL     1       8.341  -5.291   4.717  0.00  0.00    +0.001 C 
ATOM     27  C   UNL     1       7.647  -6.222   3.701  0.00  0.00    +0.013 C 
ENDBRANCH  21  23
BRANCH   1  28
ATOM     28  C   UNL     1       0.706  -0.498  -1.235  0.00  0.00    +0.076 C 
BRANCH  28  30
ATOM     29  C   UNL     1      -0.046   1.512   0.044  0.00  0.00    +0.004 C 
ATOM     30  C   UNL     1      -0.018  -0.017   0.024  0.00  0.00    +0.004 C 
ENDBRANCH  28  30
ENDBRANCH   1  28
TORSDOF 3
