REMARK  Name = ZINC24709911
REMARK  5 active torsions:
REMARK  status: ('A' for Active; 'I' for Inactive)
REMARK    1  A    between atoms: C_1  and  C_2
REMARK    2  A    between atoms: C_2  and  C_3
REMARK    3  A    between atoms: C_3  and  C_25
REMARK    4  A    between atoms: N_6  and  C_10
REMARK    5  A    between atoms: C_10  and  C_11
REMARK                            x       y       z     vdW  Elec       q    Type
REMARK                         _______ _______ _______ _____ _____    ______ ____
ROOT
ATOM      1  C   UNL     1      -0.079   6.003   0.034  0.00  0.00    +0.138 C 
ATOM      2  C   UNL     1      -0.030   6.545  -1.381  0.00  0.00    +0.251 C 
ATOM      3  O   UNL     1      -0.842   6.364  -2.263  0.00  0.00    -0.272 OA
ATOM      4  N   UNL     1       1.104   7.269  -1.454  0.00  0.00    -0.218 N 
ATOM      5  C   UNL     1       1.771   7.260  -0.295  0.00  0.00    +0.310 C 
ATOM      6  O   UNL     1       2.823   7.843  -0.116  0.00  0.00    -0.252 OA
ATOM      7  N   UNL     1       1.146   6.535   0.655  0.00  0.00    -0.281 N 
ATOM      8  H   UNL     1       1.377   6.301   1.705  0.00  0.00    +0.152 HD
ENDROOT
BRANCH   1   9
ATOM      9  C   UNL     1      -0.059   4.497   0.026  0.00  0.00    -0.015 A 
ATOM     10  C   UNL     1       1.148   3.822   0.012  0.00  0.00    +0.007 A 
ATOM     11  C   UNL     1       1.167   2.440   0.004  0.00  0.00    +0.020 A 
ATOM     12  C   UNL     1      -0.021   1.732   0.012  0.00  0.00    +0.041 A 
ATOM     13  C   UNL     1      -1.229   2.407   0.021  0.00  0.00    +0.020 A 
ATOM     14  C   UNL     1      -1.247   3.789   0.034  0.00  0.00    +0.007 A 
ATOM     15 CL   UNL     1       0.002  -0.004   0.002  0.00  0.00    -0.084 Cl
ENDBRANCH   1   9
BRANCH   1  17
ATOM     16  C   UNL     1      -1.317   8.050   0.758  0.00  0.00    +0.007 C 
ATOM     17  C   UNL     1      -1.321   6.519   0.765  0.00  0.00    +0.037 C 
ENDBRANCH   1  17
BRANCH   4  18
ATOM     18  C   UNL     1       1.552   7.977  -2.656  0.00  0.00    +0.173 C 
BRANCH  18  19
ATOM     19  C   UNL     1       0.994   9.377  -2.651  0.00  0.00    +0.067 A 
ATOM     20  C   UNL     1       1.834  10.467  -2.558  0.00  0.00    +0.095 A 
ATOM     21  C   UNL     1       1.299  11.755  -2.556  0.00  0.00    +0.259 A 
ATOM     22  O   UNL     1       2.037  12.724  -2.473  0.00  0.00    -0.267 OA
ATOM     23  N   UNL     1      -0.054  11.931  -2.646  0.00  0.00    -0.259 N 
ATOM     24  C   UNL     1      -0.710  13.154  -2.656  0.00  0.00    +0.039 A 
ATOM     25  C   UNL     1      -2.045  13.159  -2.750  0.00  0.00    +0.013 A 
ATOM     26  S   UNL     1      -2.470  11.438  -2.832  0.00  0.00    -0.054 S 
ATOM     27  C   UNL     1      -0.811  10.797  -2.735  0.00  0.00    +0.181 A 
ATOM     28  N   UNL     1      -0.317   9.584  -2.743  0.00  0.00    -0.226 NA
ATOM     29  C   UNL     1      -2.962  14.339  -2.779  0.00  0.00    +0.044 C 
ATOM     30  C   UNL     1      -2.174  15.576  -2.321  0.00  0.00    +0.006 C 
ATOM     31  C   UNL     1      -0.834  15.604  -3.063  0.00  0.00    +0.006 C 
ATOM     32  C   UNL     1       0.061  14.470  -2.564  0.00  0.00    +0.055 C 
ENDBRANCH  18  19
ENDBRANCH   4  18
TORSDOF 4
