REMARK  Name = ZINC08450401
REMARK  7 active torsions:
REMARK  status: ('A' for Active; 'I' for Inactive)
REMARK    1  A    between atoms: C_1  and  C_2
REMARK    2  A    between atoms: C_9  and  C_12
REMARK    3  A    between atoms: C_12  and  C_30
REMARK    4  A    between atoms: C_13  and  C_14
REMARK    5  A    between atoms: C_19  and  O_20
REMARK    6  A    between atoms: O_20  and  C_21
REMARK    7  A    between atoms: C_21  and  C_22
REMARK                            x       y       z     vdW  Elec       q    Type
REMARK                         _______ _______ _______ _____ _____    ______ ____
ROOT
ATOM      1  C   UNL     1       3.210  -2.707   0.183  0.00  0.00    +0.018 A 
ATOM      2  C   UNL     1       4.242  -3.642   0.336  0.00  0.00    +0.011 A 
ATOM      3  C   UNL     1       5.535  -3.210   0.532  0.00  0.00    +0.001 A 
ATOM      4  C   UNL     1       5.822  -1.855   0.575  0.00  0.00    +0.004 A 
ATOM      5  C   UNL     1       4.815  -0.921   0.421  0.00  0.00    +0.046 A 
ATOM      6  C   UNL     1       3.508  -1.334   0.222  0.00  0.00    +0.128 A 
ENDROOT
BRANCH   1   8
ATOM      7  C   UNL     1       1.584  -4.315  -0.701  0.00  0.00    +0.095 C 
ATOM      8  C   UNL     1       1.830  -3.157  -0.020  0.00  0.00    +0.034 C 
BRANCH   7  17
ATOM      9  C   UNL     1      -5.646  -5.719  -0.223  0.00  0.00    +0.044 C 
ATOM     10  C   UNL     1      -4.190  -5.859  -0.585  0.00  0.00    -0.048 A 
ATOM     11  C   UNL     1      -3.772  -6.943  -1.344  0.00  0.00    +0.005 A 
ATOM     12  C   UNL     1      -2.444  -7.087  -1.685  0.00  0.00    +0.028 A 
ATOM     13  C   UNL     1      -1.519  -6.141  -1.264  0.00  0.00    +0.066 A 
ATOM     14  C   UNL     1      -1.942  -5.043  -0.495  0.00  0.00    +0.090 A 
ATOM     15  C   UNL     1      -3.295  -4.918  -0.162  0.00  0.00    +0.033 A 
ATOM     16  N   UNL     1      -0.845  -4.296  -0.225  0.00  0.00    -0.227 NA
ATOM     17  C   UNL     1       0.211  -4.847  -0.777  0.00  0.00    +0.150 A 
ATOM     18  N   UNL     1      -0.155  -5.995  -1.430  0.00  0.00    -0.337 N 
ATOM     19  H   UNL     1       0.452  -6.611  -1.932  0.00  0.00    +0.167 HD
ENDBRANCH   7  17
BRANCH   7  20
ATOM     20  C   UNL     1       2.658  -5.012  -1.341  0.00  0.00    +0.103 C 
ATOM     21  N   UNL     1       3.511  -5.565  -1.849  0.00  0.00    -0.191 NA
ENDBRANCH   7  20
ENDBRANCH   1   8
BRANCH   6  22
ATOM     22  O   UNL     1       2.519  -0.417   0.071  0.00  0.00    -0.487 OA
BRANCH  22  23
ATOM     23  C   UNL     1       2.896   0.960   0.128  0.00  0.00    +0.266 C 
BRANCH  23  24
ATOM     24  C   UNL     1       1.675   1.824  -0.059  0.00  0.00    +0.008 A 
ATOM     25  C   UNL     1       0.437   1.239  -0.247  0.00  0.00    +0.010 A 
ATOM     26  C   UNL     1      -0.682   2.030  -0.424  0.00  0.00    +0.020 A 
ATOM     27  C   UNL     1      -0.565   3.409  -0.402  0.00  0.00    +0.042 A 
ATOM     28  C   UNL     1       0.673   3.995  -0.213  0.00  0.00    +0.040 A 
ATOM     29  C   UNL     1       1.794   3.202  -0.042  0.00  0.00    +0.049 A 
ATOM     30 CL   UNL     1       3.349   3.937   0.194  0.00  0.00    -0.083 Cl
ATOM     31 CL   UNL     1      -1.972   4.403  -0.616  0.00  0.00    -0.083 Cl
ENDBRANCH  23  24
ENDBRANCH  22  23
ENDBRANCH   6  22
TORSDOF 6
