REMARK  Name = ZINC08632549
REMARK  8 active torsions:
REMARK  status: ('A' for Active; 'I' for Inactive)
REMARK    1  A    between atoms: C_1  and  C_2
REMARK    2  A    between atoms: N_13  and  C_28
REMARK    3  A    between atoms: C_14  and  S_16
REMARK    4  A    between atoms: S_16  and  C_17
REMARK    5  A    between atoms: C_17  and  C_19
REMARK    6  A    between atoms: C_17  and  C_22
REMARK    7  A    between atoms: C_19  and  C_20
REMARK    8  A    between atoms: C_19  and  C_21
REMARK                            x       y       z     vdW  Elec       q    Type
REMARK                         _______ _______ _______ _____ _____    ______ ____
ROOT
ATOM      1  C   UNL     1       5.546  -5.867  -0.468  0.00  0.00    +0.008 C 
ATOM      2  C   UNL     1       4.488  -4.836  -0.071  0.00  0.00    -0.009 C 
ATOM      3  C   UNL     1       4.654  -3.575  -0.923  0.00  0.00    +0.008 C 
ATOM      4  C   UNL     1       3.771  -2.455  -0.372  0.00  0.00    +0.037 C 
ATOM      5  C   UNL     1       2.342  -2.975  -0.236  0.00  0.00    -0.023 A 
ATOM      6  C   UNL     1       2.091  -4.300  -0.217  0.00  0.00    -0.004 A 
ATOM      7  S   UNL     1       0.331  -4.432  -0.048  0.00  0.00    -0.073 S 
ATOM      8  C   UNL     1      -0.063  -2.702  -0.002  0.00  0.00    +0.117 A 
ATOM      9  C   UNL     1       1.190  -2.078  -0.121  0.00  0.00    +0.076 A 
ATOM     10  C   UNL     1       1.178  -0.648  -0.115  0.00  0.00    +0.268 A 
ATOM     11  O   UNL     1       2.219  -0.020  -0.213  0.00  0.00    -0.267 OA
ATOM     12  N   UNL     1       0.002  -0.004   0.002  0.00  0.00    -0.255 N 
ATOM     13  C   UNL     1      -1.174  -0.691   0.119  0.00  0.00    +0.178 A 
ATOM     14  N   UNL     1      -1.190  -2.009   0.110  0.00  0.00    -0.215 NA
ATOM     15  C   UNL     1       3.087  -5.415  -0.317  0.00  0.00    +0.046 C 
ENDROOT
BRANCH  12  16
ATOM     16  C   UNL     1      -0.017   1.397   0.010  0.00  0.00    +0.052 A 
ATOM     17  C   UNL     1      -0.143   2.098  -1.182  0.00  0.00    +0.026 A 
ATOM     18  C   UNL     1      -0.167   3.478  -1.171  0.00  0.00    +0.002 A 
ATOM     19  C   UNL     1      -0.054   4.163   0.025  0.00  0.00    +0.000 A 
ATOM     20  C   UNL     1       0.077   3.469   1.213  0.00  0.00    +0.002 A 
ATOM     21  C   UNL     1       0.096   2.088   1.209  0.00  0.00    +0.026 A 
ENDBRANCH  12  16
BRANCH  13  22
ATOM     22  S   UNL     1      -2.688   0.196   0.277  0.00  0.00    -0.074 S 
BRANCH  22  23
ATOM     23  C   UNL     1      -3.852  -1.186   0.390  0.00  0.00    +0.143 C 
BRANCH  23  24
ATOM     24  C   UNL     1      -5.261  -0.654   0.411  0.00  0.00    +0.234 C 
ATOM     25  O   UNL     1      -5.470   0.500   0.717  0.00  0.00    -0.274 OA
ATOM     26  N   UNL     1      -6.291  -1.462   0.089  0.00  0.00    -0.239 N 
ATOM     27  C   UNL     1      -7.552  -0.987   0.108  0.00  0.00    +0.303 C 
ATOM     28  O   UNL     1      -7.761   0.170   0.415  0.00  0.00    -0.253 OA
ATOM     29  N   UNL     1      -8.582  -1.795  -0.214  0.00  0.00    -0.313 N 
ATOM     30  H   UNL     1      -6.125  -2.386  -0.156  0.00  0.00    +0.159 HD
ATOM     31  H   UNL     1      -8.415  -2.719  -0.459  0.00  0.00    +0.146 HD
ATOM     32  H   UNL     1      -9.489  -1.453  -0.200  0.00  0.00    +0.146 HD
ENDBRANCH  23  24
BRANCH  23  33
ATOM     33  C   UNL     1      -3.584  -1.974   1.673  0.00  0.00    +0.005 C 
ATOM     34  C   UNL     1      -3.885  -1.091   2.886  0.00  0.00    +0.009 C 
ATOM     35  C   UNL     1      -4.483  -3.212   1.708  0.00  0.00    +0.009 C 
ENDBRANCH  23  33
ENDBRANCH  22  23
ENDBRANCH  13  22
TORSDOF 5
