REMARK  Name = ZINC17159135
REMARK  11 active torsions:
REMARK  status: ('A' for Active; 'I' for Inactive)
REMARK    1  A    between atoms: C_1  and  C_2
REMARK    2  A    between atoms: C_4  and  C_33
REMARK    3  A    between atoms: C_5  and  C_32
REMARK    4  A    between atoms: C_6  and  S_9
REMARK    5  A    between atoms: C_7  and  C_8
REMARK    6  A    between atoms: S_9  and  N_12
REMARK    7  A    between atoms: N_12  and  C_13
REMARK    8  A    between atoms: C_13  and  C_15
REMARK    9  A    between atoms: C_13  and  C_16
REMARK   10  A    between atoms: N_18  and  N_19
REMARK   11  A    between atoms: C_20  and  C_22
REMARK                            x       y       z     vdW  Elec       q    Type
REMARK                         _______ _______ _______ _____ _____    ______ ____
ROOT
ATOM      1  C   UNL     1      -1.417   0.646   4.081  0.00  0.00    +0.247 C 
ATOM      2  O   UNL     1      -0.305   0.683   4.564  0.00  0.00    -0.273 OA
ATOM      3  N   UNL     1      -2.480   1.046   4.806  0.00  0.00    -0.233 N 
ATOM      4  H   UNL     1      -3.489   1.013   4.368  0.00  0.00    +0.173 HD
ENDROOT
BRANCH   3   5
ATOM      5  N   UNL     1      -2.300   1.506   6.117  0.00  0.00    -0.234 N 
ATOM      6  C   UNL     1      -3.364   1.907   6.842  0.00  0.00    +0.235 C 
ATOM      7  O   UNL     1      -4.476   1.870   6.359  0.00  0.00    -0.274 OA
ATOM      8  H   UNL     1      -1.292   1.540   6.555  0.00  0.00    +0.173 HD
BRANCH   6   9
ATOM      9  C   UNL     1      -3.171   2.401   8.253  0.00  0.00    +0.049 C 
ATOM     10  C   UNL     1      -2.542   1.293   9.100  0.00  0.00    +0.019 C 
ATOM     11  C   UNL     1      -2.346   1.794  10.532  0.00  0.00    -0.009 C 
ATOM     12  C   UNL     1      -3.701   2.184  11.126  0.00  0.00    +0.007 C 
ATOM     13  C   UNL     1      -4.330   3.292  10.279  0.00  0.00    -0.009 C 
ATOM     14  C   UNL     1      -4.526   2.790   8.847  0.00  0.00    +0.019 C 
ATOM     15  C   UNL     1      -3.407   4.513  10.270  0.00  0.00    +0.007 C 
ATOM     16  C   UNL     1      -2.052   4.123   9.676  0.00  0.00    -0.009 C 
ATOM     17  C   UNL     1      -1.423   3.015  10.523  0.00  0.00    +0.007 C 
ATOM     18  C   UNL     1      -2.248   3.622   8.244  0.00  0.00    +0.019 C 
ENDBRANCH   6   9
ENDBRANCH   3   5
BRANCH   1  19
ATOM     19  C   UNL     1      -1.610   0.151   2.670  0.00  0.00    +0.160 C 
ATOM     20  C   UNL     1      -2.532  -1.069   2.679  0.00  0.00    +0.035 C 
BRANCH  19  21
ATOM     21  N   UNL     1      -0.312  -0.221   2.102  0.00  0.00    -0.178 NA
ATOM     22  H   UNL     1       0.515  -0.514   2.765  0.00  0.00    +0.149 HD
BRANCH  21  23
ATOM     23  S   UNL     1      -0.010   0.032   0.493  0.00  0.00    +0.060 S 
ATOM     24  O   UNL     1      -1.120  -0.499  -0.217  0.00  0.00    -0.153 OA
ATOM     25  O   UNL     1       1.323  -0.402   0.258  0.00  0.00    -0.153 OA
BRANCH  23  31
ATOM     26  C   UNL     1       2.340   4.700   0.513  0.00  0.00    +0.044 C 
ATOM     27  C   UNL     1       1.099   3.887   0.256  0.00  0.00    -0.045 A 
ATOM     28  C   UNL     1      -0.054   4.506  -0.188  0.00  0.00    +0.007 A 
ATOM     29  C   UNL     1      -1.194   3.760  -0.425  0.00  0.00    -0.045 A 
ATOM     30  C   UNL     1      -1.180   2.393  -0.217  0.00  0.00    -0.021 A 
ATOM     31  C   UNL     1      -0.027   1.774   0.228  0.00  0.00    +0.112 A 
ATOM     32  C   UNL     1       1.111   2.521   0.469  0.00  0.00    -0.021 A 
ATOM     33  C   UNL     1       2.365   1.846   0.960  0.00  0.00    +0.046 C 
ATOM     34  C   UNL     1      -2.422   1.579  -0.474  0.00  0.00    +0.046 C 
ATOM     35  C   UNL     1      -2.450   4.436  -0.909  0.00  0.00    +0.044 C 
ENDBRANCH  23  31
ENDBRANCH  21  23
ENDBRANCH  19  21
ENDBRANCH   1  19
TORSDOF 6
