REMARK  Name = ZINC13510088
REMARK  4 active torsions:
REMARK  status: ('A' for Active; 'I' for Inactive)
REMARK    1  A    between atoms: C_4  and  N_7
REMARK    2  A    between atoms: C_11  and  C_20
REMARK    3  A    between atoms: C_12  and  N_14
REMARK    4  A    between atoms: N_24  and  C_26
REMARK                            x       y       z     vdW  Elec       q    Type
REMARK                         _______ _______ _______ _____ _____    ______ ____
ROOT
ATOM      1  N   UNL     1       1.034   3.407   0.148  0.00  0.00    -0.327 N 
ATOM      2  C   UNL     1       1.104   2.026   0.070  0.00  0.00    +0.102 A 
ATOM      3  C   UNL     1       2.355   1.406  -0.013  0.00  0.00    +0.009 A 
ATOM      4  C   UNL     1       2.421   0.046  -0.087  0.00  0.00    -0.018 A 
ATOM      5  C   UNL     1       1.225  -0.691  -0.080  0.00  0.00    +0.093 A 
ATOM      6  C   UNL     1       0.002  -0.004   0.002  0.00  0.00    +0.118 A 
ATOM      7  N   UNL     1      -0.014   1.318   0.074  0.00  0.00    -0.331 N 
ATOM      8  C   UNL     1       3.732  -0.687  -0.171  0.00  0.00    +0.052 C 
ATOM      9  C   UNL     1       4.846   0.281  -0.572  0.00  0.00    +0.090 C 
ATOM     10  N   UNL     1       4.776   1.462   0.303  0.00  0.00    -0.295 NA
ATOM     11  C   UNL     1       3.591   2.265  -0.021  0.00  0.00    +0.123 C 
ATOM     12  H   UNL     1       1.957   4.005   0.145  0.00  0.00    +0.148 HD
ATOM     13  H   UNL     1      -0.987   1.827   0.140  0.00  0.00    +0.168 HD
ENDROOT
BRANCH   1  17
ATOM     14  C   UNL     1      -2.031   6.322  -0.403  0.00  0.00    +0.000 C 
ATOM     15  C   UNL     1      -1.465   6.125   1.004  0.00  0.00    +0.002 C 
ATOM     16  C   UNL     1      -0.104   5.432   0.913  0.00  0.00    +0.022 C 
ATOM     17  C   UNL     1      -0.269   4.071   0.235  0.00  0.00    +0.072 C 
ATOM     18  C   UNL     1      -0.836   4.268  -1.173  0.00  0.00    +0.022 C 
ATOM     19  C   UNL     1      -2.196   4.961  -1.082  0.00  0.00    +0.002 C 
ENDBRANCH   1  17
BRANCH   6  20
ATOM     20  N   UNL     1      -1.187  -0.711   0.008  0.00  0.00    -0.311 N 
ATOM     21  C   UNL     1      -2.015  -0.360  -1.156  0.00  0.00    +0.134 C 
ATOM     22  C   UNL     1      -3.291  -1.206  -1.142  0.00  0.00    +0.178 C 
ATOM     23  O   UNL     1      -3.980  -1.000   0.094  0.00  0.00    -0.377 OA
ATOM     24  C   UNL     1      -3.203  -1.333   1.248  0.00  0.00    +0.178 C 
ATOM     25  C   UNL     1      -1.927  -0.488   1.259  0.00  0.00    +0.134 C 
ENDBRANCH   6  20
BRANCH  10  26
ATOM     26  C   UNL     1       6.000   2.267   0.201  0.00  0.00    +0.057 C 
ATOM     27  C   UNL     1       5.850   3.534   1.046  0.00  0.00    +0.019 C 
ATOM     28  C   UNL     1       7.126   4.372   0.941  0.00  0.00    +0.002 C 
ATOM     29  C   UNL     1       7.362   4.759  -0.520  0.00  0.00    +0.000 C 
ATOM     30  C   UNL     1       7.512   3.492  -1.366  0.00  0.00    +0.002 C 
ATOM     31  C   UNL     1       6.237   2.654  -1.260  0.00  0.00    +0.019 C 
ENDBRANCH  10  26
BRANCH   5  32
ATOM     32  C   UNL     1       1.252  -2.120  -0.156  0.00  0.00    +0.103 C 
ATOM     33  N   UNL     1       1.274  -3.255  -0.216  0.00  0.00    -0.191 NA
ENDBRANCH   5  32
TORSDOF 4
