REMARK  Name = ZINC19845274
REMARK  1 active torsions:
REMARK  status: ('A' for Active; 'I' for Inactive)
REMARK    1  A    between atoms: C_3  and  C_14
REMARK                            x       y       z     vdW  Elec       q    Type
REMARK                         _______ _______ _______ _____ _____    ______ ____
ROOT
ATOM      1  C   UNL     1      -1.228   1.742   0.062  0.00  0.00    +0.018 A 
ATOM      2  C   UNL     1      -0.949   2.523  -1.045  0.00  0.00    +0.020 A 
ATOM      3  C   UNL     1       0.273   3.205  -1.087  0.00  0.00    +0.101 A 
ATOM      4  C   UNL     1       1.159   3.073  -0.003  0.00  0.00    +0.114 A 
ATOM      5  N   UNL     1       0.838   2.315   1.035  0.00  0.00    -0.349 N 
ATOM      6  C   UNL     1      -0.307   1.665   1.092  0.00  0.00    +0.084 A 
ATOM      7  N   UNL     1       2.371   3.737  -0.021  0.00  0.00    -0.306 N 
ATOM      8  C   UNL     1       3.492   2.792   0.108  0.00  0.00    +0.125 C 
ATOM      9  C   UNL     1       4.793   3.525  -0.226  0.00  0.00    +0.123 C 
ATOM     10  N   UNL     1       4.876   4.769   0.535  0.00  0.00    -0.313 N 
ATOM     11  C   UNL     1       3.811   5.345   1.103  0.00  0.00    +0.230 C 
ATOM     12  O   UNL     1       3.964   6.395   1.691  0.00  0.00    -0.274 OA
ATOM     13  C   UNL     1       2.434   4.746   1.044  0.00  0.00    +0.202 C 
ATOM     14  H   UNL     1       5.845   5.274   0.659  0.00  0.00    +0.149 HD
ATOM     15  H   UNL     1       1.536   2.216   1.879  0.00  0.00    +0.167 HD
ENDROOT
BRANCH   3  16
ATOM     16  C   UNL     1       0.624   4.045  -2.244  0.00  0.00    +0.390 C 
ATOM     17  O   UNL     1       1.725   4.555  -2.314  0.00  0.00    -0.240 OA
ATOM     18  O   UNL     1      -0.277   4.250  -3.226  0.00  0.00    -0.240 OA
ENDBRANCH   3  16
TORSDOF 1
