REMARK  Name = ZINC59056658
REMARK  5 active torsions:
REMARK  status: ('A' for Active; 'I' for Inactive)
REMARK    1  A    between atoms: C_1  and  C_2
REMARK    2  A    between atoms: C_7  and  N_8
REMARK    3  A    between atoms: C_9  and  C_11
REMARK    4  A    between atoms: C_12  and  C_13
REMARK    5  A    between atoms: C_16  and  C_18
REMARK                            x       y       z     vdW  Elec       q    Type
REMARK                         _______ _______ _______ _____ _____    ______ ____
ROOT
ATOM      1  N   UNL     1       0.024   0.029   2.389  0.00  0.00    -0.280 N 
ATOM      2  C   UNL     1      -0.356  -0.581   3.528  0.00  0.00    +0.241 C 
ATOM      3  O   UNL     1      -0.614  -1.772   3.525  0.00  0.00    -0.270 OA
ATOM      4  H   UNL     1       0.299   0.959   2.405  0.00  0.00    +0.155 HD
ENDROOT
BRANCH   1  11
ATOM      5  C   UNL     1      -2.223   0.267   0.739  0.00  0.00    +0.046 C 
ATOM      6  C   UNL     1      -1.048  -0.593   0.349  0.00  0.00    -0.027 A 
ATOM      7  C   UNL     1      -1.079  -1.280  -0.862  0.00  0.00    +0.007 A 
ATOM      8  C   UNL     1      -0.049  -2.065  -1.258  0.00  0.00    +0.031 A 
ATOM      9  C   UNL     1       1.102  -2.207  -0.436  0.00  0.00    +0.102 A 
ATOM     10  C   UNL     1       1.140  -1.490   0.833  0.00  0.00    +0.121 A 
ATOM     11  C   UNL     1       0.022  -0.676   1.185  0.00  0.00    +0.065 A 
ATOM     12  N   UNL     1       2.264  -1.696   1.519  0.00  0.00    -0.189 NA
ATOM     13  S   UNL     1       3.146  -2.695   0.617  0.00  0.00    +0.117 S 
ATOM     14  N   UNL     1       2.200  -2.930  -0.663  0.00  0.00    -0.191 NA
ENDBRANCH   1  11
BRANCH   2  15
ATOM     15  C   UNL     1      -0.456   0.160   4.728  0.00  0.00    +0.071 C 
ATOM     16  C   UNL     1      -0.839  -0.455   5.877  0.00  0.00    +0.051 C 
BRANCH  16  17
ATOM     17  C   UNL     1      -0.939   0.286   7.076  0.00  0.00    +0.129 A 
ATOM     18  C   UNL     1      -1.310  -0.216   8.310  0.00  0.00    +0.050 A 
ATOM     19  C   UNL     1      -1.274   0.854   9.208  0.00  0.00    +0.050 A 
ATOM     20  C   UNL     1      -0.885   1.965   8.495  0.00  0.00    +0.136 A 
ATOM     21  O   UNL     1      -0.682   1.603   7.216  0.00  0.00    -0.455 OA
BRANCH  20  22
ATOM     22  C   UNL     1      -0.713   3.325   9.043  0.00  0.00    +0.017 A 
ATOM     23  C   UNL     1      -0.946   3.569  10.399  0.00  0.00    +0.012 A 
ATOM     24  C   UNL     1      -0.783   4.841  10.905  0.00  0.00    +0.016 A 
ATOM     25  C   UNL     1      -0.391   5.876  10.073  0.00  0.00    +0.018 A 
ATOM     26  C   UNL     1      -0.159   5.641   8.728  0.00  0.00    +0.016 A 
ATOM     27  C   UNL     1      -0.311   4.372   8.210  0.00  0.00    +0.012 A 
ATOM     28 BR   UNL     1      -0.171   7.617  10.775  0.00  0.00    -0.050 Br
ENDBRANCH  20  22
ENDBRANCH  16  17
ENDBRANCH   2  15
TORSDOF 4
