REMARK  Name = ZINC27100574
REMARK  9 active torsions:
REMARK  status: ('A' for Active; 'I' for Inactive)
REMARK    1  A    between atoms: C_1  and  C_2
REMARK    2  A    between atoms: C_2  and  C_4
REMARK    3  A    between atoms: C_2  and  N_12
REMARK    4  A    between atoms: C_7  and  O_10
REMARK    5  A    between atoms: O_10  and  C_11
REMARK    6  A    between atoms: N_15  and  C_18
REMARK    7  A    between atoms: C_18  and  C_19
REMARK    8  A    between atoms: C_20  and  O_36
REMARK    9  A    between atoms: C_27  and  C_30
REMARK                            x       y       z     vdW  Elec       q    Type
REMARK                         _______ _______ _______ _____ _____    ______ ____
ROOT
ATOM      1  C   UNL     1       1.203  -0.693  -0.013  0.00  0.00    +0.020 A 
ATOM      2  C   UNL     1       0.002  -0.004   0.002  0.00  0.00    +0.122 A 
ATOM      3  C   UNL     1      -0.017   1.389   0.010  0.00  0.00    +0.046 A 
ATOM      4  C   UNL     1       1.153   2.094   0.002  0.00  0.00    +0.019 A 
ATOM      5  C   UNL     1       2.371   1.414  -0.013  0.00  0.00    +0.065 A 
ATOM      6  C   UNL     1       2.401   0.009  -0.021  0.00  0.00    +0.143 A 
ATOM      7  O   UNL     1       3.579  -0.646  -0.035  0.00  0.00    -0.462 OA
ATOM      8  C   UNL     1       4.762  -0.027  -0.043  0.00  0.00    +0.208 A 
ATOM      9  C   UNL     1       4.879   1.326  -0.036  0.00  0.00    +0.064 A 
ATOM     10  C   UNL     1       3.653   2.142  -0.021  0.00  0.00    +0.200 A 
ATOM     11  O   UNL     1       3.696   3.361  -0.014  0.00  0.00    -0.286 OA
ENDROOT
BRANCH   9  12
ATOM     12  C   UNL     1       6.215   1.970  -0.045  0.00  0.00    -0.011 A 
ATOM     13  C   UNL     1       6.503   2.973  -0.969  0.00  0.00    +0.009 A 
ATOM     14  C   UNL     1       7.746   3.571  -0.969  0.00  0.00    +0.001 A 
ATOM     15  C   UNL     1       8.710   3.170  -0.062  0.00  0.00    +0.000 A 
ATOM     16  C   UNL     1       8.432   2.172   0.854  0.00  0.00    +0.001 A 
ATOM     17  C   UNL     1       7.190   1.570   0.867  0.00  0.00    +0.009 A 
ENDBRANCH   9  12
BRANCH   2  18
ATOM     18  O   UNL     1      -1.168  -0.693   0.009  0.00  0.00    -0.506 OA
ATOM     19  H   UNL     1      -2.125  -0.150   0.021  0.00  0.00    +0.292 HD
ENDBRANCH   2  18
BRANCH   1  20
ATOM     20  C   UNL     1       1.210  -2.200  -0.022  0.00  0.00    -0.035 C 
BRANCH  20  24
ATOM     21  N   UNL     1       0.240  -4.233  -3.596  0.00  0.00    -0.299 NA
ATOM     22  C   UNL     1       1.504  -4.577  -2.929  0.00  0.00    +0.066 C 
ATOM     23  C   UNL     1       1.444  -4.130  -1.466  0.00  0.00    -0.063 C 
ATOM     24  N   UNL     1       1.199  -2.682  -1.410  0.00  0.00    +0.384 N 
ATOM     25  C   UNL     1      -0.064  -2.337  -2.077  0.00  0.00    -0.063 C 
ATOM     26  C   UNL     1      -0.004  -2.785  -3.539  0.00  0.00    +0.066 C 
ATOM     27  H   UNL     1       2.016  -2.178  -1.947  0.00  0.00    -0.081 HD
BRANCH  21  29
ATOM     28  C   UNL     1       0.392  -6.236  -4.997  0.00  0.00    +0.029 C 
ATOM     29  C   UNL     1       0.230  -4.714  -4.984  0.00  0.00    +0.084 C 
BRANCH  29  30
ATOM     30  C   UNL     1      -1.078  -4.343  -5.634  0.00  0.00    -0.030 A 
ATOM     31  C   UNL     1      -2.258  -4.447  -4.920  0.00  0.00    +0.009 A 
ATOM     32  C   UNL     1      -3.457  -4.102  -5.512  0.00  0.00    +0.046 A 
ATOM     33  C   UNL     1      -3.479  -3.663  -6.828  0.00  0.00    +0.120 A 
ATOM     34  C   UNL     1      -2.295  -3.565  -7.544  0.00  0.00    +0.046 A 
ATOM     35  C   UNL     1      -1.097  -3.906  -6.945  0.00  0.00    +0.009 A 
BRANCH  33  36
ATOM     36  O   UNL     1      -4.659  -3.329  -7.415  0.00  0.00    -0.495 OA
ATOM     37  C   UNL     1      -5.838  -3.454  -6.618  0.00  0.00    +0.277 C 
ENDBRANCH  33  36
ENDBRANCH  29  30
ENDBRANCH  21  29
ENDBRANCH  20  24
ENDBRANCH   1  20
TORSDOF 7
