REMARK  Name = ZINC04150009
REMARK  8 active torsions:
REMARK  status: ('A' for Active; 'I' for Inactive)
REMARK    1  A    between atoms: C_1  and  C_2
REMARK    2  A    between atoms: N_9  and  S_10
REMARK    3  A    between atoms: S_10  and  C_13
REMARK    4  A    between atoms: C_21  and  C_42
REMARK    5  A    between atoms: C_24  and  O_41
REMARK    6  A    between atoms: C_26  and  C_30
REMARK    7  A    between atoms: C_30  and  C_32
REMARK    8  A    between atoms: C_30  and  C_33
REMARK                            x       y       z     vdW  Elec       q    Type
REMARK                         _______ _______ _______ _____ _____    ______ ____
ROOT
ATOM      1  C   UNL     1      -1.610   6.344  -6.962  0.00  0.00    +0.014 C 
ATOM      2  C   UNL     1      -2.899   6.497  -6.152  0.00  0.00    +0.042 C 
ATOM      3  C   UNL     1      -2.597   6.289  -4.675  0.00  0.00    +0.057 A 
ATOM      4  C   UNL     1      -3.450   5.575  -3.899  0.00  0.00    +0.015 A 
ATOM      5  S   UNL     1      -2.668   5.627  -2.309  0.00  0.00    -0.056 S 
ATOM      6  C   UNL     1      -1.290   6.576  -2.781  0.00  0.00    +0.178 A 
ATOM      7  N   UNL     1      -1.521   6.779  -4.062  0.00  0.00    -0.228 NA
ATOM      8  N   UNL     1      -0.226   7.011  -2.007  0.00  0.00    -0.194 N 
ATOM      9  C   UNL     1      -4.721   4.919  -4.310  0.00  0.00    +0.051 C 
ATOM     10  C   UNL     1      -5.141   5.458  -5.692  0.00  0.00    -0.022 C 
ATOM     11  C   UNL     1      -3.923   5.453  -6.618  0.00  0.00    +0.033 C 
ATOM     12  C   UNL     1      -4.342   5.826  -8.043  0.00  0.00    +0.123 C 
ATOM     13  C   UNL     1      -5.402   4.854  -8.557  0.00  0.00    +0.029 C 
ATOM     14  C   UNL     1      -6.630   4.936  -7.646  0.00  0.00    +0.007 C 
ATOM     15  C   UNL     1      -6.223   4.518  -6.234  0.00  0.00    +0.008 C 
ATOM     16  C   UNL     1      -5.702   6.875  -5.553  0.00  0.00    +0.012 C 
ATOM     17  H   UNL     1       0.482   7.539  -2.408  0.00  0.00    +0.176 HD
ENDROOT
BRANCH   8  18
ATOM     18  S   UNL     1      -0.161   6.627  -0.397  0.00  0.00    +0.074 S 
ATOM     19  O   UNL     1      -1.434   6.947   0.148  0.00  0.00    -0.150 OA
ATOM     20  O   UNL     1       1.045   7.186   0.105  0.00  0.00    -0.150 OA
BRANCH  18  21
ATOM     21  C   UNL     1       0.009   4.877  -0.285  0.00  0.00    +0.109 A 
ATOM     22  C   UNL     1       1.268   4.306  -0.261  0.00  0.00    +0.030 A 
ATOM     23  C   UNL     1       1.402   2.933  -0.172  0.00  0.00    +0.022 A 
ATOM     24  C   UNL     1       0.276   2.131  -0.108  0.00  0.00    +0.041 A 
ATOM     25  C   UNL     1      -0.983   2.703  -0.138  0.00  0.00    +0.022 A 
ATOM     26  C   UNL     1      -1.116   4.076  -0.220  0.00  0.00    +0.030 A 
ATOM     27 CL   UNL     1       0.444   0.406   0.004  0.00  0.00    -0.084 Cl
ENDBRANCH  18  21
ENDBRANCH   8  18
BRANCH  13  28
ATOM     28  C   UNL     1      -5.797   5.234  -9.986  0.00  0.00    +0.078 C 
ATOM     29  C   UNL     1      -6.458   6.614  -9.982  0.00  0.00    +0.017 C 
BRANCH  28  30
ATOM     30  C   UNL     1      -6.766   4.214 -10.527  0.00  0.00    +0.219 C 
ATOM     31  O   UNL     1      -7.959   4.434 -10.494  0.00  0.00    -0.275 OA
ATOM     32  N   UNL     1      -6.308   3.059 -11.048  0.00  0.00    -0.300 N 
ATOM     33  C   UNL     1      -4.866   2.851 -11.188  0.00  0.00    +0.118 C 
ATOM     34  C   UNL     1      -4.427   1.709 -10.256  0.00  0.00    +0.088 C 
ATOM     35  S   UNL     1      -5.382   0.220 -10.673  0.00  0.00    -0.158 S 
ATOM     36  C   UNL     1      -7.105   0.793 -10.579  0.00  0.00    +0.088 C 
ATOM     37  C   UNL     1      -7.259   2.030 -11.472  0.00  0.00    +0.118 C 
ENDBRANCH  28  30
ENDBRANCH  13  28
BRANCH  12  38
ATOM     38  O   UNL     1      -3.200   5.777  -8.901  0.00  0.00    -0.391 OA
ATOM     39  H   UNL     1      -3.368   6.095  -9.798  0.00  0.00    +0.210 HD
ENDBRANCH  12  38
TORSDOF 5
