REMARK  Name = ZINC14134967
REMARK  7 active torsions:
REMARK  status: ('A' for Active; 'I' for Inactive)
REMARK    1  A    between atoms: C_1  and  C_2
REMARK    2  A    between atoms: C_6  and  N_9
REMARK    3  A    between atoms: C_7  and  C_8
REMARK    4  A    between atoms: C_10  and  C_12
REMARK    5  A    between atoms: C_12  and  C_13
REMARK    6  A    between atoms: N_18  and  N_19
REMARK    7  A    between atoms: C_20  and  C_21
REMARK                            x       y       z     vdW  Elec       q    Type
REMARK                         _______ _______ _______ _____ _____    ______ ____
ROOT
ATOM      1  C   UNL     1      -0.211  -6.399   3.398  0.00  0.00    +0.149 C 
ATOM      2  C   UNL     1      -0.282  -7.204   4.686  0.00  0.00    +0.233 C 
ATOM      3  N   UNL     1      -1.382  -7.916   4.860  0.00  0.00    -0.263 N 
ATOM      4  C   UNL     1      -2.405  -7.934   3.937  0.00  0.00    +0.183 C 
ATOM      5  N   UNL     1      -3.542  -8.598   3.995  0.00  0.00    -0.127 NA
ATOM      6  S   UNL     1      -1.828  -6.846   2.641  0.00  0.00    -0.075 S 
ATOM      7  O   UNL     1       0.615  -7.193   5.503  0.00  0.00    -0.274 OA
ATOM      8  H   UNL     1      -1.472  -8.446   5.667  0.00  0.00    +0.157 HD
ENDROOT
BRANCH   5   9
ATOM      9  N   UNL     1      -4.396  -8.499   3.034  0.00  0.00    -0.155 NA
ATOM     10  C   UNL     1      -5.522  -9.158   3.092  0.00  0.00    +0.143 C 
BRANCH  10  11
ATOM     11  C   UNL     1      -6.497  -9.045   1.996  0.00  0.00    -0.005 A 
ATOM     12  C   UNL     1      -6.219  -8.239   0.887  0.00  0.00    +0.009 A 
ATOM     13  C   UNL     1      -7.138  -8.138  -0.136  0.00  0.00    +0.001 A 
ATOM     14  C   UNL     1      -8.333  -8.833  -0.068  0.00  0.00    +0.000 A 
ATOM     15  C   UNL     1      -8.616  -9.633   1.026  0.00  0.00    +0.001 A 
ATOM     16  C   UNL     1      -7.705  -9.748   2.054  0.00  0.00    +0.009 A 
ENDBRANCH  10  11
ENDBRANCH   5   9
BRANCH   1  17
ATOM     17  C   UNL     1      -0.129  -4.898   3.686  0.00  0.00    +0.120 C 
BRANCH  17  19
ATOM     18  N   UNL     1       0.052  -2.797   2.393  0.00  0.00    -0.285 N 
ATOM     19  C   UNL     1      -0.031  -4.143   2.385  0.00  0.00    +0.219 C 
ATOM     20  O   UNL     1      -0.028  -4.745   1.333  0.00  0.00    -0.275 OA
ATOM     21  H   UNL     1       0.130  -2.321   3.234  0.00  0.00    +0.155 HD
BRANCH  18  27
ATOM     22  C   UNL     1       1.206   1.236  -0.172  0.00  0.00    +0.044 C 
ATOM     23  C   UNL     1       0.577  -0.131  -0.084  0.00  0.00    -0.046 A 
ATOM     24  C   UNL     1      -0.027  -0.686  -1.198  0.00  0.00    +0.004 A 
ATOM     25  C   UNL     1      -0.605  -1.940  -1.122  0.00  0.00    +0.002 A 
ATOM     26  C   UNL     1      -0.580  -2.642   0.067  0.00  0.00    +0.023 A 
ATOM     27  C   UNL     1       0.026  -2.088   1.187  0.00  0.00    +0.037 A 
ATOM     28  C   UNL     1       0.610  -0.831   1.106  0.00  0.00    -0.026 A 
ATOM     29  C   UNL     1       1.274  -0.228   2.317  0.00  0.00    +0.046 C 
ENDBRANCH  18  27
ENDBRANCH  17  19
ENDBRANCH   1  17
TORSDOF 5
