REMARK  Name = ZINC09380229
REMARK  12 active torsions:
REMARK  status: ('A' for Active; 'I' for Inactive)
REMARK    1  A    between atoms: C_1  and  C_2
REMARK    2  A    between atoms: C_4  and  O_29
REMARK    3  A    between atoms: C_7  and  C_8
REMARK    4  A    between atoms: C_8  and  C_10
REMARK    5  A    between atoms: C_11  and  O_28
REMARK    6  A    between atoms: N_14  and  C_24
REMARK    7  A    between atoms: C_15  and  C_17
REMARK    8  A    between atoms: C_24  and  C_25
REMARK    9  A    between atoms: C_25  and  N_55
REMARK   10  A    between atoms: C_26  and  N_55
REMARK   11  A    between atoms: C_27  and  N_55
REMARK   12  A    between atoms: O_29  and  C_30
REMARK                            x       y       z     vdW  Elec       q    Type
REMARK                         _______ _______ _______ _____ _____    ______ ____
ROOT
ATOM      1  C   UNL     1       0.352   3.518  -0.247  0.00  0.00    +0.071 C 
ATOM      2  C   UNL     1      -0.935   3.209   0.034  0.00  0.00    +0.188 C 
ATOM      3  C   UNL     1      -1.083   1.739   0.077  0.00  0.00    +0.282 C 
ATOM      4  O   UNL     1      -2.122   1.149   0.300  0.00  0.00    -0.267 OA
ATOM      5  N   UNL     1       0.102   1.151  -0.167  0.00  0.00    -0.285 N 
ATOM      6  C   UNL     1       1.093   2.209  -0.391  0.00  0.00    +0.144 C 
ENDROOT
BRANCH   6   7
ATOM      7  C   UNL     1       1.671   2.091  -1.778  0.00  0.00    -0.021 A 
ATOM      8  C   UNL     1       3.038   2.180  -1.967  0.00  0.00    +0.006 A 
ATOM      9  C   UNL     1       3.569   2.071  -3.239  0.00  0.00    +0.001 A 
ATOM     10  C   UNL     1       2.733   1.874  -4.322  0.00  0.00    +0.015 A 
ATOM     11  C   UNL     1       1.366   1.786  -4.134  0.00  0.00    +0.018 A 
ATOM     12  C   UNL     1       0.836   1.889  -2.860  0.00  0.00    +0.021 A 
ATOM     13 BR   UNL     1       0.222   1.517  -5.615  0.00  0.00    -0.050 Br
ENDBRANCH   6   7
BRANCH   1  14
ATOM     14  C   UNL     1       0.919   4.863  -0.384  0.00  0.00    +0.195 C 
ATOM     15  O   UNL     1       0.191   5.838  -0.336  0.00  0.00    -0.287 OA
BRANCH  14  22
ATOM     16  C   UNL     1       2.721   4.420   1.835  0.00  0.00    +0.044 C 
ATOM     17  C   UNL     1       3.253   4.825   0.484  0.00  0.00    -0.036 A 
ATOM     18  C   UNL     1       4.608   4.981   0.295  0.00  0.00    +0.049 A 
ATOM     19  C   UNL     1       5.099   5.359  -0.949  0.00  0.00    +0.120 A 
ATOM     20  C   UNL     1       4.225   5.577  -2.009  0.00  0.00    +0.046 A 
ATOM     21  C   UNL     1       2.870   5.417  -1.830  0.00  0.00    +0.015 A 
ATOM     22  C   UNL     1       2.372   5.036  -0.580  0.00  0.00    +0.025 A 
BRANCH  19  23
ATOM     23  O   UNL     1       6.434   5.518  -1.130  0.00  0.00    -0.495 OA
ATOM     24  C   UNL     1       6.871   5.908  -2.433  0.00  0.00    +0.277 C 
ENDBRANCH  19  23
ENDBRANCH  14  22
ENDBRANCH   1  14
BRANCH   2  25
ATOM     25  O   UNL     1      -1.929   4.103   0.237  0.00  0.00    -0.502 OA
ATOM     26  H   UNL     1      -2.782   3.616   0.426  0.00  0.00    +0.292 HD
ENDBRANCH   2  25
BRANCH   5  27
ATOM     27  C   UNL     1       0.356  -0.292  -0.206  0.00  0.00    +0.090 C 
BRANCH  27  28
ATOM     28  C   UNL     1       0.749  -0.779   1.190  0.00  0.00    -0.060 C 
BRANCH  28  31
ATOM     29  C   UNL     1       1.609  -2.687   2.407  0.00  0.00    -0.097 C 
ATOM     30  C   UNL     1      -0.227  -2.969   0.855  0.00  0.00    -0.097 C 
ATOM     31  N   UNL     1       1.023  -2.230   1.130  0.00  0.00    +0.377 N 
ATOM     32  H   UNL     1       1.692  -2.412   0.372  0.00  0.00    -0.083 HD
ENDBRANCH  28  31
ENDBRANCH  27  28
ENDBRANCH   5  27
TORSDOF 8
