REMARK  Name = ZINC18137320
REMARK  5 active torsions:
REMARK  status: ('A' for Active; 'I' for Inactive)
REMARK    1  A    between atoms: C_1  and  C_2
REMARK    2  A    between atoms: C_2  and  C_12
REMARK    3  A    between atoms: N_3  and  C_4
REMARK    4  A    between atoms: C_13  and  C_27
REMARK    5  A    between atoms: C_16  and  O_17
REMARK                            x       y       z     vdW  Elec       q    Type
REMARK                         _______ _______ _______ _____ _____    ______ ____
ROOT
ATOM      1  C   UNL     1      -0.000  -0.730  -1.272  0.00  0.00    +0.089 A 
ATOM      2  C   UNL     1       1.137  -1.137  -2.011  0.00  0.00    +0.178 A 
ATOM      3  N   UNL     1       0.730  -1.754  -3.084  0.00  0.00    -0.157 NA
ATOM      4  N   UNL     1      -0.669  -1.780  -3.098  0.00  0.00    -0.175 N 
ATOM      5  C   UNL     1      -1.119  -1.155  -1.979  0.00  0.00    +0.227 A 
ATOM      6  C   UNL     1      -1.462  -2.353  -4.085  0.00  0.00    +0.198 A 
ATOM      7  N   UNL     1      -2.771  -2.406  -4.161  0.00  0.00    -0.221 NA
ATOM      8  C   UNL     1      -3.415  -3.000  -5.188  0.00  0.00    +0.081 A 
ATOM      9  C   UNL     1      -4.810  -3.126  -5.389  0.00  0.00    +0.029 A 
ATOM     10  C   UNL     1      -5.303  -3.765  -6.496  0.00  0.00    +0.002 A 
ATOM     11  C   UNL     1      -4.460  -4.308  -7.455  0.00  0.00    +0.001 A 
ATOM     12  C   UNL     1      -3.091  -4.203  -7.292  0.00  0.00    +0.017 A 
ATOM     13  C   UNL     1      -2.588  -3.565  -6.185  0.00  0.00    +0.041 A 
ATOM     14  S   UNL     1      -0.959  -3.197  -5.578  0.00  0.00    -0.048 S 
ENDROOT
BRANCH   2  15
ATOM     15  C   UNL     1       2.573  -0.896  -1.623  0.00  0.00    +0.437 C 
ATOM     16  F   UNL     1       3.033  -1.967  -0.850  0.00  0.00    -0.164 F 
ATOM     17  F   UNL     1       3.356  -0.785  -2.778  0.00  0.00    -0.164 F 
ATOM     18  F   UNL     1       2.664   0.287  -0.882  0.00  0.00    -0.164 F 
ENDBRANCH   2  15
BRANCH   1  20
ATOM     19  C   UNL     1      -0.018   1.503   0.010  0.00  0.00    +0.066 C 
ATOM     20  C   UNL     1       0.002  -0.004   0.002  0.00  0.00    +0.053 C 
ATOM     21  N   UNL     1       0.022  -0.663   1.129  0.00  0.00    -0.252 NA
BRANCH  21  22
ATOM     22  C   UNL     1       0.024   0.015   2.319  0.00  0.00    +0.066 A 
ATOM     23  C   UNL     1       0.861   1.119   2.495  0.00  0.00    +0.030 A 
ATOM     24  C   UNL     1       0.859   1.799   3.695  0.00  0.00    +0.042 A 
ATOM     25  C   UNL     1       0.028   1.389   4.725  0.00  0.00    +0.142 A 
ATOM     26  C   UNL     1      -0.805   0.294   4.557  0.00  0.00    +0.078 A 
ATOM     27  C   UNL     1      -0.815  -0.391   3.358  0.00  0.00    +0.050 A 
ATOM     28 CL   UNL     1      -1.842  -0.213   5.854  0.00  0.00    -0.081 Cl
ATOM     29  F   UNL     1       0.031   2.059   5.899  0.00  0.00    -0.204 F 
ENDBRANCH  21  22
ENDBRANCH   1  20
BRANCH   5  30
ATOM     30  O   UNL     1      -2.413  -0.977  -1.622  0.00  0.00    -0.492 OA
ATOM     31  H   UNL     1      -2.804  -0.158  -1.956  0.00  0.00    +0.294 HD
ENDBRANCH   5  30
TORSDOF 4
