REMARK  Name = ZINC11500392
REMARK  9 active torsions:
REMARK  status: ('A' for Active; 'I' for Inactive)
REMARK    1  A    between atoms: C_1  and  C_2
REMARK    2  A    between atoms: C_2  and  C_4
REMARK    3  A    between atoms: C_2  and  O_13
REMARK    4  A    between atoms: N_9  and  C_10
REMARK    5  A    between atoms: C_10  and  C_11
REMARK    6  A    between atoms: C_10  and  C_12
REMARK    7  A    between atoms: O_13  and  C_14
REMARK    8  A    between atoms: C_14  and  C_16
REMARK    9  A    between atoms: C_30  and  C_31
REMARK                            x       y       z     vdW  Elec       q    Type
REMARK                         _______ _______ _______ _____ _____    ______ ____
ROOT
ATOM      1  C   UNL     1       2.436  -1.172  -2.407  0.00  0.00    +0.073 A 
ATOM      2  C   UNL     1       3.279  -0.230  -3.145  0.00  0.00    +0.015 A 
ATOM      3  C   UNL     1       3.210   1.148  -2.917  0.00  0.00    +0.011 A 
ATOM      4  C   UNL     1       4.015   1.990  -3.626  0.00  0.00    +0.001 A 
ATOM      5  C   UNL     1       4.905   1.494  -4.576  0.00  0.00    +0.002 A 
ATOM      6  C   UNL     1       4.997   0.159  -4.823  0.00  0.00    +0.028 A 
ATOM      7  C   UNL     1       4.183  -0.741  -4.111  0.00  0.00    +0.072 A 
ATOM      8  N   UNL     1       4.249  -2.053  -4.332  0.00  0.00    -0.247 NA
ATOM      9  C   UNL     1       3.497  -2.925  -3.679  0.00  0.00    +0.072 A 
ATOM     10  C   UNL     1       2.577  -2.523  -2.692  0.00  0.00    -0.007 A 
ATOM     11  C   UNL     1       1.739  -3.515  -1.935  0.00  0.00    +0.038 C 
ATOM     12  C   UNL     1       1.602  -4.826  -2.705  0.00  0.00    +0.009 C 
ATOM     13  C   UNL     1       2.999  -5.358  -3.052  0.00  0.00    +0.038 C 
ATOM     14  C   UNL     1       3.637  -4.361  -3.998  0.00  0.00    -0.018 C 
ATOM     15  C   UNL     1       4.324  -4.769  -5.086  0.00  0.00    +0.052 C 
ENDROOT
BRANCH  15  16
ATOM     16  C   UNL     1       4.605  -6.192  -5.283  0.00  0.00    +0.128 A 
ATOM     17  C   UNL     1       5.169  -6.753  -6.394  0.00  0.00    +0.049 A 
ATOM     18  C   UNL     1       5.251  -8.135  -6.150  0.00  0.00    +0.042 A 
ATOM     19  C   UNL     1       4.741  -8.353  -4.920  0.00  0.00    +0.195 A 
ATOM     20  O   UNL     1       4.357  -7.178  -4.397  0.00  0.00    -0.464 OA
ENDBRANCH  15  16
BRANCH   1  21
ATOM     21  C   UNL     1       1.473  -0.701  -1.390  0.00  0.00    +0.341 C 
ATOM     22  O   UNL     1       1.820  -0.586  -0.232  0.00  0.00    -0.245 OA
BRANCH  21  23
ATOM     23  O   UNL     1       0.209  -0.399  -1.747  0.00  0.00    -0.449 OA
BRANCH  23  25
ATOM     24  C   UNL     1      -0.583   1.573  -0.597  0.00  0.00    +0.062 C 
ATOM     25  C   UNL     1      -0.668   0.050  -0.712  0.00  0.00    +0.259 C 
BRANCH  25  26
ATOM     26  C   UNL     1      -2.082  -0.351  -1.043  0.00  0.00    +0.261 C 
ATOM     27  O   UNL     1      -2.329  -0.880  -2.106  0.00  0.00    -0.271 OA
ATOM     28  N   UNL     1      -3.072  -0.122  -0.158  0.00  0.00    -0.237 N 
ATOM     29  C   UNL     1      -4.338  -0.480  -0.454  0.00  0.00    +0.306 C 
ATOM     30  O   UNL     1      -4.585  -1.011  -1.519  0.00  0.00    -0.252 OA
ATOM     31  N   UNL     1      -5.328  -0.251   0.431  0.00  0.00    -0.297 N 
ATOM     32  H   UNL     1      -2.875   0.302   0.692  0.00  0.00    +0.159 HD
ATOM     33  H   UNL     1      -5.130   0.173   1.281  0.00  0.00    +0.151 HD
BRANCH  31  34
ATOM     34  C   UNL     1      -6.703  -0.641   0.109  0.00  0.00    +0.068 C 
ATOM     35  C   UNL     1      -7.486  -0.866   1.404  0.00  0.00    +0.027 C 
ATOM     36  C   UNL     1      -7.371   0.470  -0.704  0.00  0.00    +0.027 C 
ENDBRANCH  31  34
ENDBRANCH  25  26
ENDBRANCH  23  25
ENDBRANCH  21  23
ENDBRANCH   1  21
TORSDOF 6
