REMARK  Name = ZINC09385566
REMARK  10 active torsions:
REMARK  status: ('A' for Active; 'I' for Inactive)
REMARK    1  A    between atoms: C_1  and  C_2
REMARK    2  A    between atoms: C_2  and  N_54
REMARK    3  A    between atoms: C_3  and  C_4
REMARK    4  A    between atoms: C_3  and  N_54
REMARK    5  A    between atoms: C_5  and  C_6
REMARK    6  A    between atoms: C_5  and  N_54
REMARK    7  A    between atoms: C_6  and  N_7
REMARK    8  A    between atoms: C_18  and  C_20
REMARK    9  A    between atoms: C_23  and  S_26
REMARK   10  A    between atoms: S_26  and  C_29
REMARK                            x       y       z     vdW  Elec       q    Type
REMARK                         _______ _______ _______ _____ _____    ______ ____
ROOT
ATOM      1  N   UNL     1      -0.064  -0.647  -0.719  0.00  0.00    -0.248 N 
ATOM      2  C   UNL     1      -0.617  -1.756  -0.102  0.00  0.00    +0.168 A 
ATOM      3  N   UNL     1      -1.538  -1.805   0.832  0.00  0.00    -0.224 NA
ATOM      4  C   UNL     1      -1.988  -2.970   1.348  0.00  0.00    +0.080 A 
ATOM      5  C   UNL     1      -2.969  -3.161   2.349  0.00  0.00    +0.030 A 
ATOM      6  C   UNL     1      -3.312  -4.421   2.762  0.00  0.00    +0.017 A 
ATOM      7  C   UNL     1      -2.715  -5.551   2.218  0.00  0.00    +0.019 A 
ATOM      8  C   UNL     1      -1.751  -5.401   1.236  0.00  0.00    +0.032 A 
ATOM      9  C   UNL     1      -1.402  -4.141   0.817  0.00  0.00    +0.042 A 
ATOM     10  S   UNL     1      -0.263  -3.486  -0.379  0.00  0.00    -0.052 S 
ATOM     11 BR   UNL     1      -3.213  -7.275   2.812  0.00  0.00    -0.050 Br
ATOM     12  C   UNL     1      -0.472   0.590  -0.372  0.00  0.00    +0.252 C 
ATOM     13  O   UNL     1      -1.350   0.731   0.457  0.00  0.00    -0.270 OA
ENDROOT
BRANCH  12  14
ATOM     14  C   UNL     1       0.145   1.776  -1.003  0.00  0.00    +0.037 A 
ATOM     15  C   UNL     1       1.494   1.757  -1.361  0.00  0.00    +0.015 A 
ATOM     16  C   UNL     1       2.062   2.864  -1.955  0.00  0.00    +0.027 A 
ATOM     17  C   UNL     1       1.301   3.997  -2.186  0.00  0.00    +0.088 A 
ATOM     18  C   UNL     1      -0.035   4.024  -1.828  0.00  0.00    +0.027 A 
ATOM     19  C   UNL     1      -0.617   2.921  -1.239  0.00  0.00    +0.015 A 
BRANCH  17  20
ATOM     20  S   UNL     1       2.037   5.410  -2.938  0.00  0.00    -0.006 S 
ATOM     21  O   UNL     1       3.117   4.893  -3.703  0.00  0.00    -0.170 OA
ATOM     22  O   UNL     1       0.959   6.085  -3.572  0.00  0.00    -0.170 OA
ATOM     23  C   UNL     1       2.667   6.400  -1.555  0.00  0.00    +0.200 C 
ENDBRANCH  17  20
ENDBRANCH  12  14
BRANCH   1  24
ATOM     24  C   UNL     1       0.964  -0.818  -1.748  0.00  0.00    +0.097 C 
BRANCH  24  25
ATOM     25  C   UNL     1       2.204  -1.466  -1.129  0.00  0.00    -0.059 C 
BRANCH  25  26
ATOM     26  N   UNL     1       3.162  -1.782  -2.209  0.00  0.00    +0.380 N 
ATOM     27  H   UNL     1       2.644  -2.142  -3.019  0.00  0.00    -0.082 HD
BRANCH  26  29
ATOM     28  C   UNL     1       4.746  -0.041  -1.450  0.00  0.00    -0.017 C 
ATOM     29  C   UNL     1       3.892  -0.560  -2.609  0.00  0.00    -0.082 C 
ENDBRANCH  26  29
BRANCH  26  30
ATOM     30  C   UNL     1       4.116  -2.813  -1.751  0.00  0.00    -0.082 C 
ATOM     31  C   UNL     1       5.016  -3.210  -2.924  0.00  0.00    -0.017 C 
ENDBRANCH  26  30
ENDBRANCH  25  26
ENDBRANCH  24  25
ENDBRANCH   1  24
TORSDOF 7
