REMARK  Name = ZINC24171904
REMARK  11 active torsions:
REMARK  status: ('A' for Active; 'I' for Inactive)
REMARK    1  A    between atoms: C_1  and  C_2
REMARK    2  A    between atoms: C_2  and  C_3
REMARK    3  A    between atoms: C_5  and  C_18
REMARK    4  A    between atoms: C_6  and  O_17
REMARK    5  A    between atoms: C_7  and  C_10
REMARK    6  A    between atoms: C_8  and  O_9
REMARK    7  A    between atoms: C_10  and  N_11
REMARK    8  A    between atoms: C_19  and  C_30
REMARK    9  A    between atoms: N_21  and  C_23
REMARK   10  A    between atoms: C_23  and  N_24
REMARK   11  A    between atoms: N_38  and  C_39
REMARK                            x       y       z     vdW  Elec       q    Type
REMARK                         _______ _______ _______ _____ _____    ______ ____
ROOT
ATOM      1  C   UNL     1       1.292   3.835  -0.659  0.00  0.00    +0.107 A 
ATOM      2  C   UNL     1       2.344   4.473   0.135  0.00  0.00    +0.063 A 
ATOM      3  C   UNL     1       1.766   5.542   0.762  0.00  0.00    +0.122 A 
ATOM      4  N   UNL     1       0.469   5.580   0.411  0.00  0.00    -0.256 N 
ATOM      5  N   UNL     1       0.190   4.525  -0.463  0.00  0.00    -0.169 NA
ENDROOT
BRANCH   2   6
ATOM      6  C   UNL     1       3.755   4.048   0.236  0.00  0.00    +0.145 A 
ATOM      7  N   UNL     1       4.190   3.044   0.959  0.00  0.00    -0.227 NA
ATOM      8  C   UNL     1       5.534   2.931   0.819  0.00  0.00    +0.090 A 
ATOM      9  C   UNL     1       6.484   2.054   1.351  0.00  0.00    +0.030 A 
ATOM     10  C   UNL     1       7.803   2.198   1.022  0.00  0.00    +0.002 A 
ATOM     11  C   UNL     1       8.212   3.208   0.164  0.00  0.00    +0.002 A 
ATOM     12  C   UNL     1       7.292   4.084  -0.373  0.00  0.00    +0.028 A 
ATOM     13  C   UNL     1       5.949   3.954  -0.051  0.00  0.00    +0.069 A 
ATOM     14  N   UNL     1       4.806   4.646  -0.406  0.00  0.00    -0.327 N 
ATOM     15  C   UNL     1       4.733   5.804  -1.300  0.00  0.00    +0.151 C 
ENDBRANCH   2   6
BRANCH   1  18
ATOM     16  C   UNL     1       2.641   1.425  -3.207  0.00  0.00    -0.005 A 
ATOM     17  C   UNL     1       2.506   2.542  -2.410  0.00  0.00    +0.021 A 
ATOM     18  C   UNL     1       1.440   2.635  -1.517  0.00  0.00    +0.045 A 
ATOM     19  C   UNL     1       0.510   1.594  -1.433  0.00  0.00    +0.131 A 
ATOM     20  C   UNL     1       0.653   0.476  -2.237  0.00  0.00    +0.020 A 
ATOM     21  C   UNL     1       1.718   0.391  -3.123  0.00  0.00    +0.125 A 
BRANCH  16  23
ATOM     22  C   UNL     1       3.348   1.807  -5.553  0.00  0.00    +0.009 C 
ATOM     23  C   UNL     1       3.795   1.325  -4.172  0.00  0.00    +0.035 C 
ENDBRANCH  16  23
BRANCH  21  24
ATOM     24  O   UNL     1       1.857  -0.707  -3.911  0.00  0.00    -0.506 OA
ATOM     25  H   UNL     1       1.126  -1.527  -3.846  0.00  0.00    +0.292 HD
ENDBRANCH  21  24
BRANCH  19  26
ATOM     26  O   UNL     1      -0.535   1.681  -0.569  0.00  0.00    -0.506 OA
ATOM     27  H   UNL     1      -1.265   0.862  -0.505  0.00  0.00    +0.292 HD
ENDBRANCH  19  26
BRANCH  20  28
ATOM     28  C   UNL     1      -0.347  -0.648  -2.151  0.00  0.00    -0.036 C 
BRANCH  28  29
ATOM     29  N   UNL     1      -1.439  -0.406  -3.103  0.00  0.00    +0.383 N 
ATOM     30  C   UNL     1      -2.211   0.785  -2.728  0.00  0.00    -0.078 C 
ATOM     31  C   UNL     1      -3.243   1.090  -3.815  0.00  0.00    -0.019 C 
ATOM     32  C   UNL     1      -4.175  -0.114  -3.979  0.00  0.00    -0.004 C 
ATOM     33  C   UNL     1      -3.341  -1.352  -4.323  0.00  0.00    -0.019 C 
ATOM     34  C   UNL     1      -2.306  -1.585  -3.220  0.00  0.00    -0.078 C 
ATOM     35  H   UNL     1      -0.993  -0.218  -4.091  0.00  0.00    -0.081 HD
ENDBRANCH  28  29
ENDBRANCH  20  28
ENDBRANCH   1  18
BRANCH   4  36
ATOM     36  C   UNL     1      -0.503   6.573   0.875  0.00  0.00    +0.230 C 
BRANCH  36  37
ATOM     37  N   UNL     1      -0.601   7.659  -0.109  0.00  0.00    -0.284 NA
ATOM     38  C   UNL     1       0.659   8.409  -0.193  0.00  0.00    +0.086 C 
ATOM     39  C   UNL     1       0.571   9.434  -1.325  0.00  0.00    +0.015 C 
ATOM     40  C   UNL     1      -0.595  10.389  -1.053  0.00  0.00    +0.002 C 
ATOM     41  C   UNL     1      -1.888   9.578  -0.923  0.00  0.00    +0.015 C 
ATOM     42  C   UNL     1      -1.728   8.549   0.198  0.00  0.00    +0.086 C 
ENDBRANCH  36  37
ENDBRANCH   4  36
TORSDOF 9
