REMARK  Name = ZINC56722075
REMARK  7 active torsions:
REMARK  status: ('A' for Active; 'I' for Inactive)
REMARK    1  A    between atoms: C_1  and  C_2
REMARK    2  A    between atoms: C_2  and  C_4
REMARK    3  A    between atoms: C_2  and  N_14
REMARK    4  A    between atoms: C_7  and  S_10
REMARK    5  A    between atoms: S_10  and  N_13
REMARK    6  A    between atoms: N_14  and  C_15
REMARK    7  A    between atoms: N_18  and  C_19
REMARK                            x       y       z     vdW  Elec       q    Type
REMARK                         _______ _______ _______ _____ _____    ______ ____
ROOT
ATOM      1  N   UNL     1       0.860  -0.380   1.114  0.00  0.00    -0.282 N 
ATOM      2  C   UNL     1       0.384  -0.210   2.489  0.00  0.00    +0.134 C 
ATOM      3  C   UNL     1       2.105  -0.842   0.884  0.00  0.00    +0.307 C 
ATOM      4  O   UNL     1       2.500  -0.983  -0.257  0.00  0.00    -0.252 OA
ATOM      5  N   UNL     1       2.912  -1.147   1.920  0.00  0.00    -0.266 N 
ATOM      6  H   UNL     1       2.625  -0.967   2.828  0.00  0.00    +0.156 HD
ENDROOT
BRANCH   5   7
ATOM      7  C   UNL     1       4.167  -1.725   1.683  0.00  0.00    +0.080 A 
ATOM      8  C   UNL     1       4.889  -1.378   0.549  0.00  0.00    +0.027 A 
ATOM      9  C   UNL     1       6.126  -1.948   0.316  0.00  0.00    +0.006 A 
ATOM     10  C   UNL     1       6.648  -2.865   1.208  0.00  0.00    +0.049 A 
ATOM     11  C   UNL     1       5.933  -3.218   2.345  0.00  0.00    +0.164 A 
ATOM     12  C   UNL     1       4.694  -2.643   2.588  0.00  0.00    +0.183 A 
ATOM     13  O   UNL     1       3.982  -2.965   3.703  0.00  0.00    -0.483 OA
ATOM     14  C   UNL     1       4.370  -4.159   4.391  0.00  0.00    +0.270 C 
ATOM     15  C   UNL     1       5.898  -4.159   4.529  0.00  0.00    +0.270 C 
ATOM     16  O   UNL     1       6.462  -4.126   3.210  0.00  0.00    -0.485 OA
ENDBRANCH   5   7
BRANCH   1  18
ATOM     17  C   UNL     1      -0.520   1.389   0.141  0.00  0.00    +0.033 C 
ATOM     18  C   UNL     1      -0.018  -0.048  -0.011  0.00  0.00    +0.104 C 
BRANCH  18  19
ATOM     19  C   UNL     1      -1.192  -0.992  -0.027  0.00  0.00    -0.027 A 
ATOM     20  C   UNL     1      -2.022  -1.083   1.075  0.00  0.00    +0.007 A 
ATOM     21  C   UNL     1      -3.099  -1.948   1.060  0.00  0.00    +0.029 A 
ATOM     22  C   UNL     1      -3.347  -2.724  -0.057  0.00  0.00    +0.105 A 
ATOM     23  C   UNL     1      -2.518  -2.633  -1.160  0.00  0.00    +0.029 A 
ATOM     24  C   UNL     1      -1.443  -1.764  -1.146  0.00  0.00    +0.007 A 
BRANCH  22  25
ATOM     25  S   UNL     1      -4.720  -3.828  -0.076  0.00  0.00    +0.056 S 
ATOM     26  O   UNL     1      -4.416  -4.838  -1.029  0.00  0.00    -0.153 OA
ATOM     27  O   UNL     1      -5.020  -4.127   1.280  0.00  0.00    -0.153 OA
BRANCH  25  28
ATOM     28  N   UNL     1      -6.016  -2.989  -0.674  0.00  0.00    -0.204 NA
ATOM     29  H   UNL     1      -5.914  -2.060  -0.934  0.00  0.00    +0.144 HD
ATOM     30  H   UNL     1      -6.877  -3.426  -0.765  0.00  0.00    +0.144 HD
ENDBRANCH  25  28
ENDBRANCH  22  25
ENDBRANCH  18  19
ENDBRANCH   1  18
TORSDOF 5
