REMARK  Name = ZINC39972545
REMARK  15 active torsions:
REMARK  status: ('A' for Active; 'I' for Inactive)
REMARK    1  A    between atoms: C_1  and  C_2
REMARK    2  A    between atoms: C_6  and  O_8
REMARK    3  A    between atoms: O_8  and  C_9
REMARK    4  A    between atoms: C_9  and  C_11
REMARK    5  A    between atoms: C_9  and  C_12
REMARK    6  A    between atoms: C_15  and  S_18
REMARK    7  A    between atoms: N_16  and  C_17
REMARK    8  A    between atoms: S_18  and  C_19
REMARK    9  A    between atoms: C_19  and  C_20
REMARK   10  A    between atoms: N_22  and  C_23
REMARK   11  A    between atoms: C_24  and  C_33
REMARK   12  A    between atoms: C_25  and  C_32
REMARK   13  A    between atoms: C_26  and  C_28
REMARK   14  A    between atoms: C_28  and  O_30
REMARK   15  A    between atoms: O_30  and  C_31
REMARK                            x       y       z     vdW  Elec       q    Type
REMARK                         _______ _______ _______ _____ _____    ______ ____
ROOT
ATOM      1  S   UNL     1      -2.600  -3.324   7.908  0.00  0.00    -0.077 S 
ENDROOT
BRANCH   1   5
ATOM      2  C   UNL     1      -0.437  -2.783   4.707  0.00  0.00    +0.174 A 
ATOM      3  N   UNL     1      -0.236  -4.043   4.973  0.00  0.00    -0.130 NA
ATOM      4  N   UNL     1      -0.895  -4.383   6.023  0.00  0.00    -0.122 NA
ATOM      5  C   UNL     1      -1.557  -3.349   6.488  0.00  0.00    +0.192 A 
ATOM      6  N   UNL     1      -1.281  -2.294   5.666  0.00  0.00    -0.306 N 
ATOM      7  C   UNL     1      -1.787  -0.924   5.783  0.00  0.00    +0.153 C 
BRANCH   2   8
ATOM      8  C   UNL     1       0.158  -2.007   3.561  0.00  0.00    +0.238 C 
ATOM      9  C   UNL     1       1.631  -1.716   3.851  0.00  0.00    +0.060 C 
BRANCH   8  10
ATOM     10  O   UNL     1       0.051  -2.775   2.360  0.00  0.00    -0.480 OA
BRANCH  10  16
ATOM     11  C   UNL     1       0.426   1.474  -0.012  0.00  0.00    +0.044 C 
ATOM     12  C   UNL     1       0.214  -0.018  -0.009  0.00  0.00    -0.047 A 
ATOM     13  C   UNL     1       0.005  -0.688  -1.200  0.00  0.00    +0.005 A 
ATOM     14  C   UNL     1      -0.190  -2.057  -1.200  0.00  0.00    +0.024 A 
ATOM     15  C   UNL     1      -0.175  -2.759  -0.009  0.00  0.00    +0.083 A 
ATOM     16  C   UNL     1       0.036  -2.087   1.187  0.00  0.00    +0.140 A 
ATOM     17  C   UNL     1       0.236  -0.715   1.184  0.00  0.00    +0.050 A 
ATOM     18 CL   UNL     1      -0.420  -4.477  -0.010  0.00  0.00    -0.080 Cl
ENDBRANCH  10  16
ENDBRANCH   8  10
ENDBRANCH   2   8
ENDBRANCH   1   5
BRANCH   1  19
ATOM     19  C   UNL     1      -2.525  -5.024   8.536  0.00  0.00    +0.173 C 
BRANCH  19  20
ATOM     20  C   UNL     1      -3.386  -5.143   9.768  0.00  0.00    +0.228 C 
ATOM     21  O   UNL     1      -3.990  -4.176  10.181  0.00  0.00    -0.275 OA
ATOM     22  N   UNL     1      -3.484  -6.324  10.410  0.00  0.00    -0.278 N 
ATOM     23  H   UNL     1      -3.001  -7.098  10.080  0.00  0.00    +0.155 HD
BRANCH  22  24
ATOM     24  C   UNL     1      -4.273  -6.433  11.540  0.00  0.00    +0.090 A 
ATOM     25  C   UNL     1      -4.489  -7.561  12.331  0.00  0.00    +0.084 A 
ATOM     26  C   UNL     1      -5.329  -7.432  13.426  0.00  0.00    -0.010 A 
ATOM     27  C   UNL     1      -5.875  -6.179  13.626  0.00  0.00    +0.102 A 
ATOM     28  S   UNL     1      -5.188  -5.235  12.281  0.00  0.00    -0.065 S 
ATOM     29  C   UNL     1      -5.628  -8.589  14.344  0.00  0.00    +0.046 C 
BRANCH  27  30
ATOM     30  C   UNL     1      -6.786  -5.737  14.681  0.00  0.00    +0.346 C 
ATOM     31  O   UNL     1      -7.156  -6.523  15.533  0.00  0.00    -0.244 OA
BRANCH  30  32
ATOM     32  O   UNL     1      -7.215  -4.458  14.709  0.00  0.00    -0.464 OA
ATOM     33  C   UNL     1      -8.104  -4.096  15.768  0.00  0.00    +0.280 C 
ENDBRANCH  30  32
ENDBRANCH  27  30
BRANCH  25  34
ATOM     34  C   UNL     1      -3.864  -8.812  12.021  0.00  0.00    +0.102 C 
ATOM     35  N   UNL     1      -3.368  -9.804  11.776  0.00  0.00    -0.191 NA
ENDBRANCH  25  34
ENDBRANCH  22  24
ENDBRANCH  19  20
ENDBRANCH   1  19
TORSDOF 10
