REMARK  Name = ZINC21540559
REMARK  3 active torsions:
REMARK  status: ('A' for Active; 'I' for Inactive)
REMARK    1  A    between atoms: C_6  and  C_7
REMARK    2  A    between atoms: C_9  and  C_21
REMARK    3  A    between atoms: C_14  and  C_16
REMARK                            x       y       z     vdW  Elec       q    Type
REMARK                         _______ _______ _______ _____ _____    ______ ____
ROOT
ATOM      1  C   UNL     1      -1.259  -0.760   0.011  0.00  0.00    +0.055 C 
ATOM      2  C   UNL     1      -1.200  -2.261   0.008  0.00  0.00    +0.088 C 
ATOM      3  C   UNL     1      -2.364  -2.863   0.804  0.00  0.00    +0.148 C 
ATOM      4  N   UNL     1      -3.575  -2.113   0.474  0.00  0.00    -0.221 N 
ATOM      5  C   UNL     1      -3.551  -0.793   0.116  0.00  0.00    +0.250 A 
ATOM      6  N   UNL     1      -4.789  -0.420  -0.097  0.00  0.00    -0.186 NA
ATOM      7  C   UNL     1      -5.609  -1.453   0.103  0.00  0.00    +0.256 A 
ATOM      8  N   UNL     1      -4.908  -2.507   0.450  0.00  0.00    -0.143 NA
ATOM      9  N   UNL     1      -2.386  -0.099   0.025  0.00  0.00    -0.215 NA
ENDROOT
BRANCH   3  10
ATOM     10  C   UNL     1      -2.081  -2.754   2.280  0.00  0.00    -0.004 A 
ATOM     11  C   UNL     1      -1.900  -1.511   2.858  0.00  0.00    +0.008 A 
ATOM     12  C   UNL     1      -1.642  -1.410   4.212  0.00  0.00    +0.020 A 
ATOM     13  C   UNL     1      -1.564  -2.552   4.990  0.00  0.00    +0.042 A 
ATOM     14  C   UNL     1      -1.745  -3.795   4.412  0.00  0.00    +0.040 A 
ATOM     15  C   UNL     1      -2.009  -3.896   3.057  0.00  0.00    +0.048 A 
ATOM     16 CL   UNL     1      -2.243  -5.456   2.332  0.00  0.00    -0.083 Cl
ATOM     17 CL   UNL     1      -1.238  -2.424   6.690  0.00  0.00    -0.083 Cl
ENDBRANCH   3  10
BRANCH   1  23
ATOM     18  C   UNL     1      -0.017   1.395   0.010  0.00  0.00    +0.012 A 
ATOM     19  C   UNL     1       1.169   2.097   0.002  0.00  0.00    +0.039 A 
ATOM     20  C   UNL     1       2.379   1.420  -0.013  0.00  0.00    +0.123 A 
ATOM     21  C   UNL     1       2.405   0.033  -0.022  0.00  0.00    +0.039 A 
ATOM     22  C   UNL     1       1.227  -0.681  -0.014  0.00  0.00    +0.012 A 
ATOM     23  C   UNL     1       0.002  -0.004   0.002  0.00  0.00    -0.003 A 
ATOM     24  F   UNL     1       3.538   2.114  -0.021  0.00  0.00    -0.205 F 
ENDBRANCH   1  23
BRANCH   7  25
ATOM     25  C   UNL     1      -7.108  -1.415  -0.046  0.00  0.00    +0.454 C 
ATOM     26  F   UNL     1      -7.478  -0.260  -0.744  0.00  0.00    -0.163 F 
ATOM     27  F   UNL     1      -7.535  -2.544  -0.753  0.00  0.00    -0.163 F 
ATOM     28  F   UNL     1      -7.703  -1.405   1.220  0.00  0.00    -0.163 F 
ENDBRANCH   7  25
TORSDOF 3
