REMARK  Name = ZINC08837654
REMARK  2 active torsions:
REMARK  status: ('A' for Active; 'I' for Inactive)
REMARK    1  A    between atoms: C_3  and  C_8
REMARK    2  A    between atoms: C_14  and  C_16
REMARK                            x       y       z     vdW  Elec       q    Type
REMARK                         _______ _______ _______ _____ _____    ______ ____
ROOT
ATOM      1  C   UNL     1       1.728  -1.912   0.276  0.00  0.00    +0.310 C 
ATOM      2  N   UNL     1       1.224  -0.561  -0.001  0.00  0.00    -0.205 N 
ATOM      3  C   UNL     1       2.159   0.558  -0.258  0.00  0.00    +0.136 C 
ATOM      4  C   UNL     1       1.267   1.794  -0.081  0.00  0.00    +0.090 C 
ATOM      5  C   UNL     1      -0.135   1.220  -0.035  0.00  0.00    +0.103 C 
ATOM      6  N   UNL     1      -0.070  -0.074  -0.013  0.00  0.00    -0.181 NA
ATOM      7  C   UNL     1       3.223   0.474   0.806  0.00  0.00    +0.018 A 
ATOM      8  C   UNL     1       4.045   1.563   1.026  0.00  0.00    +0.024 A 
ATOM      9  C   UNL     1       5.055   1.496   1.967  0.00  0.00    +0.018 A 
ATOM     10  C   UNL     1       5.241   0.332   2.691  0.00  0.00    +0.019 A 
ATOM     11  C   UNL     1       4.417  -0.752   2.482  0.00  0.00    +0.047 A 
ATOM     12  C   UNL     1       3.389  -0.691   1.540  0.00  0.00    +0.129 A 
ATOM     13  O   UNL     1       2.603  -1.789   1.403  0.00  0.00    -0.465 OA
ATOM     14 BR   UNL     1       6.178   2.989   2.263  0.00  0.00    -0.050 Br
ENDROOT
BRANCH   1  17
ATOM     15  C   UNL     1       4.320  -3.684  -1.820  0.00  0.00    +0.002 A 
ATOM     16  C   UNL     1       3.623  -3.203  -0.728  0.00  0.00    +0.009 A 
ATOM     17  C   UNL     1       2.488  -2.436  -0.915  0.00  0.00    +0.014 A 
ATOM     18  C   UNL     1       2.048  -2.153  -2.194  0.00  0.00    +0.029 A 
ATOM     19  C   UNL     1       2.748  -2.631  -3.288  0.00  0.00    +0.041 A 
ATOM     20  C   UNL     1       3.884  -3.399  -3.100  0.00  0.00    +0.020 A 
ATOM     21 CL   UNL     1       2.199  -2.271  -4.895  0.00  0.00    -0.084 Cl
ENDBRANCH   1  17
BRANCH   5  22
ATOM     22  C   UNL     1      -1.373   2.006  -0.024  0.00  0.00    +0.150 A 
ATOM     23  C   UNL     1      -2.641   1.504   0.006  0.00  0.00    +0.051 A 
ATOM     24  C   UNL     1      -3.514   2.610   0.008  0.00  0.00    +0.042 A 
ATOM     25  C   UNL     1      -2.749   3.719  -0.028  0.00  0.00    +0.196 A 
ATOM     26  O   UNL     1      -1.456   3.351  -0.048  0.00  0.00    -0.462 OA
ENDBRANCH   5  22
TORSDOF 2
