REMARK  Name = ZINC09279574
REMARK  6 active torsions:
REMARK  status: ('A' for Active; 'I' for Inactive)
REMARK    1  A    between atoms: C_1  and  O_2
REMARK    2  A    between atoms: O_2  and  C_3
REMARK    3  A    between atoms: C_3  and  C_4
REMARK    4  A    between atoms: C_4  and  N_5
REMARK    5  A    between atoms: N_14  and  C_15
REMARK    6  A    between atoms: C_15  and  C_17
REMARK                            x       y       z     vdW  Elec       q    Type
REMARK                         _______ _______ _______ _____ _____    ______ ____
ROOT
ATOM      1  N   UNL     1      -1.121   2.219   0.034  0.00  0.00    -0.319 N 
ATOM      2  C   UNL     1      -0.019   1.384   0.064  0.00  0.00    +0.058 A 
ATOM      3  C   UNL     1      -0.011  -0.022   0.086  0.00  0.00    +0.028 A 
ATOM      4  C   UNL     1       1.172  -0.720   0.109  0.00  0.00    +0.017 A 
ATOM      5  C   UNL     1       2.394  -0.065   0.111  0.00  0.00    +0.019 A 
ATOM      6  C   UNL     1       2.416   1.319   0.090  0.00  0.00    +0.032 A 
ATOM      7  C   UNL     1       1.232   2.017   0.067  0.00  0.00    +0.040 A 
ATOM      8  S   UNL     1       0.819   3.745   0.036  0.00  0.00    -0.052 S 
ATOM      9  C   UNL     1      -0.958   3.573   0.020  0.00  0.00    +0.167 A 
ATOM     10  N   UNL     1      -1.885   4.522  -0.005  0.00  0.00    -0.152 NA
ATOM     11 BR   UNL     1       4.008  -1.049   0.142  0.00  0.00    -0.050 Br
ENDROOT
BRANCH  10  12
ATOM     12  C   UNL     1      -1.522   5.813  -0.021  0.00  0.00    +0.276 C 
ATOM     13  O   UNL     1      -0.340   6.114  -0.013  0.00  0.00    -0.267 OA
BRANCH  12  14
ATOM     14  C   UNL     1      -2.549   6.864  -0.049  0.00  0.00    +0.077 A 
ATOM     15  C   UNL     1      -2.389   8.239  -0.063  0.00  0.00    +0.022 A 
ATOM     16  C   UNL     1      -3.531   9.002  -0.094  0.00  0.00    +0.028 A 
ATOM     17  C   UNL     1      -4.742   8.383  -0.096  0.00  0.00    +0.079 A 
ATOM     18  S   UNL     1      -4.325   6.700  -0.065  0.00  0.00    -0.072 S 
ATOM     19 CL   UNL     1      -6.321   9.103  -0.124  0.00  0.00    -0.076 Cl
ENDBRANCH  12  14
ENDBRANCH  10  12
BRANCH   1  20
ATOM     20  C   UNL     1      -2.470   1.647   0.022  0.00  0.00    +0.152 C 
BRANCH  20  21
ATOM     21  C   UNL     1      -3.404   2.525   0.859  0.00  0.00    +0.181 C 
BRANCH  21  23
ATOM     22  C   UNL     1      -5.636   2.640   1.723  0.00  0.00    +0.194 C 
ATOM     23  O   UNL     1      -4.684   1.898   0.958  0.00  0.00    -0.381 OA
ENDBRANCH  21  23
ENDBRANCH  20  21
ENDBRANCH   1  20
TORSDOF 5
