REMARK  Name = ZINC21222926
REMARK  11 active torsions:
REMARK  status: ('A' for Active; 'I' for Inactive)
REMARK    1  A    between atoms: C_1  and  C_2
REMARK    2  A    between atoms: C_2  and  O_3
REMARK    3  A    between atoms: O_3  and  C_4
REMARK    4  A    between atoms: C_5  and  C_12
REMARK    5  A    between atoms: C_9  and  O_10
REMARK    6  A    between atoms: O_10  and  C_11
REMARK    7  A    between atoms: C_17  and  C_22
REMARK    8  A    between atoms: C_25  and  O_28
REMARK    9  A    between atoms: O_28  and  C_29
REMARK   10  A    between atoms: C_29  and  C_30
REMARK   11  A    between atoms: C_29  and  C_31
REMARK                            x       y       z     vdW  Elec       q    Type
REMARK                         _______ _______ _______ _____ _____    ______ ____
ROOT
ATOM      1  C   UNL     1      -0.137   4.442   0.915  0.00  0.00    +0.140 C 
ATOM      2  C   UNL     1       0.339   4.773   2.310  0.00  0.00    +0.037 C 
ATOM      3  C   UNL     1      -0.437   5.151   3.339  0.00  0.00    +0.017 C 
ATOM      4  C   UNL     1       0.174   5.414   4.706  0.00  0.00    +0.059 C 
ATOM      5  C   UNL     1       1.580   5.989   4.544  0.00  0.00    +0.032 C 
ATOM      6  C   UNL     1       2.420   4.959   3.779  0.00  0.00    +0.088 C 
ATOM      7  C   UNL     1       1.739   4.659   2.477  0.00  0.00    +0.163 C 
ATOM      8  O   UNL     1       2.415   4.303   1.532  0.00  0.00    -0.292 OA
ATOM      9  N   UNL     1      -1.783   5.314   3.279  0.00  0.00    -0.316 N 
ATOM     10  C   UNL     1      -2.666   4.408   2.703  0.00  0.00    +0.052 A 
ATOM     11  C   UNL     1      -3.620   3.732   3.443  0.00  0.00    +0.025 A 
ATOM     12  C   UNL     1      -4.498   2.877   2.799  0.00  0.00    +0.002 A 
ATOM     13  C   UNL     1      -4.424   2.703   1.429  0.00  0.00    +0.002 A 
ATOM     14  C   UNL     1      -3.459   3.365   0.690  0.00  0.00    +0.025 A 
ATOM     15  C   UNL     1      -2.565   4.205   1.335  0.00  0.00    +0.049 A 
ATOM     16  N   UNL     1      -1.512   4.810   0.650  0.00  0.00    -0.331 N 
ATOM     17  H   UNL     1      -2.247   6.215   3.707  0.00  0.00    +0.152 HD
ATOM     18  H   UNL     1      -1.741   5.578  -0.103  0.00  0.00    +0.147 HD
ENDROOT
BRANCH   1  20
ATOM     19  C   UNL     1       0.035   2.444  -0.588  0.00  0.00    +0.167 A 
ATOM     20  C   UNL     1       0.011   2.958   0.699  0.00  0.00    +0.023 A 
ATOM     21  C   UNL     1       0.123   2.109   1.784  0.00  0.00    +0.009 A 
ATOM     22  C   UNL     1       0.260   0.747   1.590  0.00  0.00    +0.004 A 
ATOM     23  C   UNL     1       0.284   0.228   0.309  0.00  0.00    +0.049 A 
ATOM     24  C   UNL     1       0.172   1.074  -0.784  0.00  0.00    +0.162 A 
BRANCH  24  25
ATOM     25  O   UNL     1       0.196   0.565  -2.044  0.00  0.00    -0.491 OA
ATOM     26  C   UNL     1       0.338  -0.852  -2.170  0.00  0.00    +0.277 C 
ENDBRANCH  24  25
BRANCH  19  27
ATOM     27  O   UNL     1      -0.074   3.278  -1.656  0.00  0.00    -0.488 OA
BRANCH  27  29
ATOM     28  C   UNL     1      -1.282   4.303  -3.481  0.00  0.00    +0.048 C 
ATOM     29  C   UNL     1      -1.377   3.444  -2.219  0.00  0.00    +0.226 C 
ENDBRANCH  27  29
ENDBRANCH  19  27
ENDBRANCH   1  20
BRANCH   5  30
ATOM     30  C   UNL     1       2.189   6.237   5.900  0.00  0.00    -0.043 A 
ATOM     31  C   UNL     1       2.356   5.188   6.785  0.00  0.00    +0.007 A 
ATOM     32  C   UNL     1       2.919   5.413   8.026  0.00  0.00    +0.046 A 
ATOM     33  C   UNL     1       3.307   6.694   8.389  0.00  0.00    +0.121 A 
ATOM     34  C   UNL     1       3.134   7.747   7.502  0.00  0.00    +0.046 A 
ATOM     35  C   UNL     1       2.575   7.516   6.259  0.00  0.00    +0.007 A 
BRANCH  33  36
ATOM     36  O   UNL     1       3.856   6.919   9.612  0.00  0.00    -0.489 OA
BRANCH  36  37
ATOM     37  C   UNL     1       4.338   8.239   9.874  0.00  0.00    +0.167 C 
ATOM     38  C   UNL     1       3.184   9.113  10.369  0.00  0.00    +0.051 C 
ATOM     39  C   UNL     1       5.428   8.180  10.946  0.00  0.00    +0.051 C 
ENDBRANCH  36  37
ENDBRANCH  33  36
ENDBRANCH   5  30
TORSDOF 7
