REMARK  Name = ZINC43407997
REMARK  5 active torsions:
REMARK  status: ('A' for Active; 'I' for Inactive)
REMARK    1  A    between atoms: C_1  and  C_2
REMARK    2  A    between atoms: C_8  and  O_10
REMARK    3  A    between atoms: O_10  and  C_11
REMARK    4  A    between atoms: C_12  and  C_20
REMARK    5  A    between atoms: N_21  and  O_22
REMARK                            x       y       z     vdW  Elec       q    Type
REMARK                         _______ _______ _______ _____ _____    ______ ____
ROOT
ATOM      1  C   UNL     1       0.837   0.159   3.517  0.00  0.00    +0.226 A 
ATOM      2  C   UNL     1       0.239   0.606   4.704  0.00  0.00    +0.079 A 
ATOM      3  C   UNL     1       1.048   0.814   5.824  0.00  0.00    +0.022 A 
ATOM      4  C   UNL     1       2.408   0.570   5.713  0.00  0.00    -0.025 A 
ATOM      5  C   UNL     1       2.928   0.130   4.509  0.00  0.00    +0.048 A 
ATOM      6  N   UNL     1       2.136  -0.064   3.465  0.00  0.00    -0.217 NA
ATOM      7  C   UNL     1       4.425  -0.063   4.643  0.00  0.00    +0.056 C 
ATOM      8  C   UNL     1       4.822   0.719   5.913  0.00  0.00    +0.011 C 
ATOM      9  C   UNL     1       3.516   0.703   6.735  0.00  0.00    +0.037 C 
ENDROOT
BRANCH   2  10
ATOM     10  C   UNL     1      -1.217   0.852   4.770  0.00  0.00    +0.168 C 
ATOM     11  N   UNL     1      -1.958   0.654   3.719  0.00  0.00    -0.071 NA
ATOM     12  N   UNL     1      -1.792   1.293   5.949  0.00  0.00    -0.340 N 
ATOM     13  H   UNL     1      -1.240   1.441   6.733  0.00  0.00    +0.144 HD
ATOM     14  H   UNL     1      -2.748   1.455   5.992  0.00  0.00    +0.144 HD
BRANCH  11  15
ATOM     15  O   UNL     1      -3.353   0.890   3.781  0.00  0.00    -0.408 OA
ATOM     16  H   UNL     1      -3.819   0.715   2.952  0.00  0.00    +0.328 HD
ENDBRANCH  11  15
ENDBRANCH   2  10
BRANCH   1  17
ATOM     17  O   UNL     1       0.073  -0.050   2.417  0.00  0.00    -0.472 OA
BRANCH  17  24
ATOM     18  C   UNL     1      -0.019   1.526   0.010  0.00  0.00    +0.011 C 
ATOM     19  C   UNL     1       0.002  -0.004   0.002  0.00  0.00    +0.027 C 
ATOM     20  C   UNL     1       0.718  -0.497  -1.257  0.00  0.00    +0.007 C 
ATOM     21  C   UNL     1       0.739  -2.027  -1.265  0.00  0.00    +0.000 C 
ATOM     22  C   UNL     1       1.479  -2.534  -0.026  0.00  0.00    +0.004 C 
ATOM     23  C   UNL     1       0.763  -2.041   1.233  0.00  0.00    +0.045 C 
ATOM     24  C   UNL     1       0.742  -0.511   1.242  0.00  0.00    +0.178 C 
ENDBRANCH  17  24
ENDBRANCH   1  17
TORSDOF 4
