REMARK  Name = ZINC12300523
REMARK  4 active torsions:
REMARK  status: ('A' for Active; 'I' for Inactive)
REMARK    1  A    between atoms: C_5  and  N_7
REMARK    2  A    between atoms: N_10  and  C_11
REMARK    3  A    between atoms: N_15  and  C_16
REMARK    4  A    between atoms: C_22  and  C_24
REMARK                            x       y       z     vdW  Elec       q    Type
REMARK                         _______ _______ _______ _____ _____    ______ ____
ROOT
ATOM      1  C   UNL     1      -3.896   1.952  -3.446  0.00  0.00    +0.125 A 
ATOM      2  C   UNL     1      -4.315   2.915  -4.312  0.00  0.00    +0.065 A 
ATOM      3  C   UNL     1      -3.760   4.130  -3.901  0.00  0.00    +0.136 A 
ATOM      4  N   UNL     1      -3.040   3.913  -2.830  0.00  0.00    -0.178 NA
ATOM      5  N   UNL     1      -3.111   2.548  -2.520  0.00  0.00    -0.247 N 
ENDROOT
BRANCH   5   6
ATOM      6  C   UNL     1      -2.448   1.884  -1.395  0.00  0.00    +0.112 C 
ATOM      7  C   UNL     1      -0.934   2.070  -1.515  0.00  0.00    +0.046 C 
ATOM      8  C   UNL     1      -0.241   1.345  -0.356  0.00  0.00    +0.110 C 
ATOM      9  N   UNL     1      -0.807   1.826   0.911  0.00  0.00    -0.301 N 
ATOM     10  C   UNL     1      -2.267   1.778   1.094  0.00  0.00    +0.110 C 
ATOM     11  C   UNL     1      -2.936   2.498  -0.081  0.00  0.00    +0.046 C 
ATOM     12  C   UNL     1      -0.005   2.303   1.884  0.00  0.00    +0.219 C 
ATOM     13  O   UNL     1      -0.488   2.760   2.898  0.00  0.00    -0.275 OA
BRANCH  12  14
ATOM     14  C   UNL     1       1.492   2.268   1.711  0.00  0.00    +0.079 C 
ATOM     15  C   UNL     1       2.163   3.007   2.876  0.00  0.00    +0.017 C 
ATOM     16  C   UNL     1       3.661   3.111   2.584  0.00  0.00    +0.027 C 
ATOM     17  C   UNL     1       4.206   1.768   2.193  0.00  0.00    -0.031 C 
ATOM     18  C   UNL     1       3.473   0.772   1.812  0.00  0.00    -0.030 C 
ATOM     19  C   UNL     1       1.976   0.816   1.716  0.00  0.00    +0.039 C 
ENDBRANCH  12  14
ENDBRANCH   5   6
BRANCH   1  23
ATOM     20  N   UNL     1      -5.329  -1.177  -4.540  0.00  0.00    -0.268 N 
ATOM     21  C   UNL     1      -5.016   0.134  -4.486  0.00  0.00    +0.309 C 
ATOM     22  O   UNL     1      -5.454   0.898  -5.324  0.00  0.00    -0.252 OA
ATOM     23  N   UNL     1      -4.219   0.596  -3.502  0.00  0.00    -0.254 N 
ATOM     24  H   UNL     1      -5.046  -1.772  -3.829  0.00  0.00    +0.156 HD
ATOM     25  H   UNL     1      -3.870  -0.014  -2.834  0.00  0.00    +0.158 HD
BRANCH  20  30
ATOM     26  C   UNL     1      -6.837  -1.464  -7.882  0.00  0.00    +0.002 A 
ATOM     27  C   UNL     1      -7.508  -2.667  -7.765  0.00  0.00    +0.002 A 
ATOM     28  C   UNL     1      -7.459  -3.377  -6.579  0.00  0.00    +0.022 A 
ATOM     29  C   UNL     1      -6.737  -2.885  -5.508  0.00  0.00    +0.062 A 
ATOM     30  C   UNL     1      -6.061  -1.677  -5.623  0.00  0.00    +0.053 A 
ATOM     31  C   UNL     1      -6.117  -0.965  -6.814  0.00  0.00    +0.025 A 
ATOM     32 CL   UNL     1      -6.676  -3.777  -4.019  0.00  0.00    -0.082 Cl
ENDBRANCH  20  30
ENDBRANCH   1  23
TORSDOF 4
