REMARK  Name = ZINC64948685
REMARK  6 active torsions:
REMARK  status: ('A' for Active; 'I' for Inactive)
REMARK    1  A    between atoms: C_1  and  C_2
REMARK    2  A    between atoms: C_5  and  N_9
REMARK    3  A    between atoms: C_7  and  C_8
REMARK    4  A    between atoms: C_10  and  N_28
REMARK    5  A    between atoms: C_11  and  C_14
REMARK    6  A    between atoms: C_16  and  C_19
REMARK                            x       y       z     vdW  Elec       q    Type
REMARK                         _______ _______ _______ _____ _____    ______ ____
ROOT
ATOM      1  N   UNL     1       0.057  -4.173  -0.021  0.00  0.00    -0.198 N 
ATOM      2  C   UNL     1      -0.560  -4.990  -0.922  0.00  0.00    +0.150 A 
ATOM      3  C   UNL     1      -0.266  -6.287  -0.534  0.00  0.00    +0.159 A 
ATOM      4  N   UNL     1       0.504  -6.232   0.565  0.00  0.00    -0.125 NA
ATOM      5  N   UNL     1       0.718  -5.006   0.892  0.00  0.00    -0.058 NA
ENDROOT
BRANCH   1  10
ATOM      6  C   UNL     1      -0.018   1.503   0.010  0.00  0.00    +0.044 C 
ATOM      7  C   UNL     1       0.002  -0.004   0.002  0.00  0.00    -0.047 A 
ATOM      8  C   UNL     1       0.006  -0.688  -1.200  0.00  0.00    +0.006 A 
ATOM      9  C   UNL     1       0.024  -2.068  -1.211  0.00  0.00    +0.028 A 
ATOM     10  C   UNL     1       0.039  -2.771  -0.013  0.00  0.00    +0.069 A 
ATOM     11  C   UNL     1       0.036  -2.082   1.192  0.00  0.00    +0.031 A 
ATOM     12  C   UNL     1       0.023  -0.700   1.196  0.00  0.00    -0.046 A 
ATOM     13  C   UNL     1       0.026   0.048   2.504  0.00  0.00    +0.044 C 
ENDBRANCH   1  10
BRANCH   3  14
ATOM     14  C   UNL     1      -0.721  -7.516  -1.212  0.00  0.00    +0.132 A 
ATOM     15  N   UNL     1      -0.486  -8.782  -0.899  0.00  0.00    -0.237 NA
ATOM     16  C   UNL     1      -0.979  -9.770  -1.626  0.00  0.00    +0.079 A 
ATOM     17  C   UNL     1      -1.745  -9.481  -2.722  0.00  0.00    +0.075 A 
ATOM     18  S   UNL     1      -1.741  -7.694  -2.669  0.00  0.00    -0.073 S 
BRANCH  16  19
ATOM     19  C   UNL     1      -0.702 -11.180  -1.257  0.00  0.00    +0.005 A 
ATOM     20  C   UNL     1      -1.219 -12.218  -2.031  0.00  0.00    +0.014 A 
ATOM     21  C   UNL     1      -0.961 -13.530  -1.687  0.00  0.00    +0.050 A 
ATOM     22  C   UNL     1      -0.189 -13.819  -0.572  0.00  0.00    +0.166 A 
ATOM     23  C   UNL     1       0.331 -12.785   0.204  0.00  0.00    +0.167 A 
ATOM     24  C   UNL     1       0.079 -11.469  -0.140  0.00  0.00    +0.059 A 
ATOM     25  O   UNL     1       1.047 -13.329   1.232  0.00  0.00    -0.453 OA
ATOM     26  C   UNL     1       0.622 -14.702   1.312  0.00  0.00    +0.466 C 
ATOM     27  O   UNL     1       0.203 -15.010  -0.031  0.00  0.00    -0.453 OA
ENDBRANCH  16  19
ENDBRANCH   3  14
BRANCH   2  28
ATOM     28  N   UNL     1      -1.328  -4.601  -2.008  0.00  0.00    -0.341 N 
ATOM     29  H   UNL     1      -1.471  -3.659  -2.188  0.00  0.00    +0.144 HD
ATOM     30  H   UNL     1      -1.723  -5.271  -2.588  0.00  0.00    +0.144 HD
ENDBRANCH   2  28
TORSDOF 4
