REMARK  Name = ZINC11998720
REMARK  7 active torsions:
REMARK  status: ('A' for Active; 'I' for Inactive)
REMARK    1  A    between atoms: C_1  and  C_2
REMARK    2  A    between atoms: C_7  and  C_9
REMARK    3  A    between atoms: C_7  and  C_27
REMARK    4  A    between atoms: C_7  and  N_61
REMARK    5  A    between atoms: C_9  and  N_10
REMARK    6  A    between atoms: C_11  and  C_13
REMARK    7  A    between atoms: C_17  and  N_19
REMARK                            x       y       z     vdW  Elec       q    Type
REMARK                         _______ _______ _______ _____ _____    ______ ____
ROOT
ATOM      1  N   UNL     1       4.635  -0.648  -1.183  0.00  0.00    -0.313 N 
ATOM      2  C   UNL     1       4.983   0.634  -1.408  0.00  0.00    +0.244 C 
ATOM      3  O   UNL     1       4.557   1.516  -0.688  0.00  0.00    -0.270 OA
ATOM      4  H   UNL     1       4.975  -1.351  -1.757  0.00  0.00    +0.149 HD
ENDROOT
BRANCH   2   5
ATOM      5  C   UNL     1       5.884   0.969  -2.532  0.00  0.00    +0.039 A 
ATOM      6  C   UNL     1       6.375  -0.042  -3.361  0.00  0.00    +0.013 A 
ATOM      7  C   UNL     1       7.220   0.272  -4.406  0.00  0.00    +0.003 A 
ATOM      8  C   UNL     1       7.575   1.587  -4.642  0.00  0.00    +0.025 A 
ATOM      9  C   UNL     1       7.091   2.600  -3.823  0.00  0.00    +0.060 A 
ATOM     10  C   UNL     1       6.246   2.295  -2.768  0.00  0.00    +0.038 A 
BRANCH   9  11
ATOM     11  N   UNL     1       7.458   3.930  -4.064  0.00  0.00    -0.144 N 
ATOM     12  C   UNL     1       6.756   5.018  -3.714  0.00  0.00    +0.240 C 
ATOM     13  O   UNL     1       5.712   4.913  -3.105  0.00  0.00    -0.274 OA
ATOM     14  C   UNL     1       7.293   6.366  -4.088  0.00  0.00    +0.122 C 
ATOM     15  C   UNL     1       8.805   6.229  -4.407  0.00  0.00    +0.198 C 
ATOM     16  S   UNL     1       8.847   4.442  -4.846  0.00  0.00    +0.052 S 
ATOM     17  O   UNL     1       9.922   3.784  -4.190  0.00  0.00    -0.155 OA
ATOM     18  O   UNL     1       8.599   4.254  -6.232  0.00  0.00    -0.155 OA
ENDBRANCH   9  11
ENDBRANCH   2   5
BRANCH   1  19
ATOM     19  C   UNL     1       3.743  -0.980  -0.069  0.00  0.00    +0.094 C 
BRANCH  19  20
ATOM     20  C   UNL     1       3.415  -2.474  -0.105  0.00  0.00    -0.020 C 
BRANCH  20  27
ATOM     21  C   UNL     1      -0.879  -3.943   3.370  0.00  0.00    +0.007 C 
ATOM     22  C   UNL     1      -0.033  -3.663   2.126  0.00  0.00    -0.018 C 
ATOM     23  C   UNL     1       1.222  -4.541   2.152  0.00  0.00    -0.015 C 
ATOM     24  C   UNL     1       2.093  -4.213   0.938  0.00  0.00    -0.078 C 
ATOM     25  C   UNL     1       1.280  -1.931   0.897  0.00  0.00    -0.078 C 
ATOM     26  C   UNL     1       0.384  -2.190   2.111  0.00  0.00    -0.015 C 
ATOM     27  N   UNL     1       2.480  -2.787   0.995  0.00  0.00    +0.385 N 
ATOM     28  H   UNL     1       2.947  -2.605   1.891  0.00  0.00    -0.081 HD
ENDBRANCH  20  27
BRANCH  20  29
ATOM     29  C   UNL     1       4.680  -3.270   0.089  0.00  0.00    -0.059 A 
ATOM     30  C   UNL     1       5.199  -3.444   1.358  0.00  0.00    +0.002 A 
ATOM     31  C   UNL     1       6.357  -4.178   1.537  0.00  0.00    +0.000 A 
ATOM     32  C   UNL     1       7.001  -4.730   0.445  0.00  0.00    +0.000 A 
ATOM     33  C   UNL     1       6.484  -4.551  -0.825  0.00  0.00    +0.000 A 
ATOM     34  C   UNL     1       5.324  -3.821  -1.003  0.00  0.00    +0.002 A 
ENDBRANCH  20  29
ENDBRANCH  19  20
ENDBRANCH   1  19
TORSDOF 6
