REMARK  Name = ZINC08878650
REMARK  7 active torsions:
REMARK  status: ('A' for Active; 'I' for Inactive)
REMARK    1  A    between atoms: C_1  and  O_2
REMARK    2  A    between atoms: O_2  and  C_3
REMARK    3  A    between atoms: C_5  and  C_12
REMARK    4  A    between atoms: C_6  and  O_10
REMARK    5  A    between atoms: O_10  and  C_11
REMARK    6  A    between atoms: C_12  and  N_13
REMARK    7  A    between atoms: C_15  and  N_20
REMARK                            x       y       z     vdW  Elec       q    Type
REMARK                         _______ _______ _______ _____ _____    ______ ____
ROOT
ATOM      1  C   UNL     1       4.281  -2.368  -3.363  0.00  0.00    +0.135 A 
ATOM      2  C   UNL     1       3.890  -2.151  -2.050  0.00  0.00    +0.055 A 
ATOM      3  C   UNL     1       4.093  -0.917  -1.464  0.00  0.00    +0.017 A 
ATOM      4  C   UNL     1       4.683   0.108  -2.189  0.00  0.00    +0.126 A 
ATOM      5  C   UNL     1       5.079  -0.110  -3.501  0.00  0.00    +0.065 A 
ATOM      6  C   UNL     1       4.876  -1.345  -4.088  0.00  0.00    +0.063 A 
ATOM      7 BR   UNL     1       5.408  -1.639  -5.878  0.00  0.00    -0.046 Br
ENDROOT
BRANCH   1   9
ATOM      8  C   UNL     1       3.464  -4.589  -3.136  0.00  0.00    +0.277 C 
ATOM      9  O   UNL     1       4.081  -3.583  -3.941  0.00  0.00    -0.494 OA
ENDBRANCH   1   9
BRANCH   4  10
ATOM     10  O   UNL     1       4.878   1.324  -1.613  0.00  0.00    -0.495 OA
ATOM     11  C   UNL     1       5.491   2.333  -2.419  0.00  0.00    +0.277 C 
ENDBRANCH   4  10
BRANCH   3  12
ATOM     12  C   UNL     1       3.668  -0.681  -0.038  0.00  0.00    +0.163 C 
BRANCH  12  13
ATOM     13  N   UNL     1       2.385   0.027  -0.021  0.00  0.00    -0.309 N 
ATOM     14  C   UNL     1       2.369   1.385  -0.014  0.00  0.00    +0.122 A 
ATOM     15  C   UNL     1       1.197   2.062   0.002  0.00  0.00    +0.142 A 
ATOM     16  C   UNL     1      -0.016   1.360   0.009  0.00  0.00    +0.039 A 
ATOM     17  C   UNL     1       0.002  -0.004   0.002  0.00  0.00    +0.072 A 
ATOM     18  C   UNL     1       1.237  -0.675  -0.013  0.00  0.00    +0.252 A 
ATOM     19  O   UNL     1       1.268  -1.895  -0.020  0.00  0.00    -0.268 OA
BRANCH  15  20
ATOM     20  N   UNL     1       1.197   3.542   0.009  0.00  0.00    +0.058 N 
ATOM     21  O   UNL     1       2.251   4.151   0.002  0.00  0.00    -0.126 OA
ATOM     22  O   UNL     1       0.142   4.150   0.022  0.00  0.00    -0.126 OA
ENDBRANCH  15  20
ENDBRANCH  12  13
ENDBRANCH   3  12
TORSDOF 5
