REMARK  Name = ZINC15986288
REMARK  8 active torsions:
REMARK  status: ('A' for Active; 'I' for Inactive)
REMARK    1  A    between atoms: C_1  and  C_2
REMARK    2  A    between atoms: C_5  and  N_9
REMARK    3  A    between atoms: C_6  and  C_8
REMARK    4  A    between atoms: N_9  and  C_10
REMARK    5  A    between atoms: C_10  and  N_12
REMARK    6  A    between atoms: N_15  and  C_16
REMARK    7  A    between atoms: C_18  and  C_27
REMARK    8  A    between atoms: C_21  and  C_26
REMARK                            x       y       z     vdW  Elec       q    Type
REMARK                         _______ _______ _______ _____ _____    ______ ____
ROOT
ATOM      1  N   UNL     1       0.889  -6.410  -1.178  0.00  0.00    -0.268 N 
ATOM      2  C   UNL     1       0.298  -6.798  -2.356  0.00  0.00    +0.195 C 
ATOM      3  N   UNL     1       0.292  -5.950  -3.430  0.00  0.00    -0.371 N 
ATOM      4  N   UNL     1      -0.262  -7.985  -2.451  0.00  0.00    -0.179 NA
ATOM      5  H   UNL     1       1.358  -5.562  -1.126  0.00  0.00    +0.157 HD
ATOM      6  H   UNL     1       1.055  -5.375  -3.598  0.00  0.00    +0.159 HD
ATOM      7  H   UNL     1      -0.474  -5.925  -4.024  0.00  0.00    +0.159 HD
ENDROOT
BRANCH   4   8
ATOM      8  C   UNL     1      -0.716  -8.428  -3.655  0.00  0.00    +0.254 A 
ATOM      9  N   UNL     1      -1.378  -9.589  -3.705  0.00  0.00    -0.215 NA
ATOM     10  C   UNL     1      -1.841 -10.068  -4.839  0.00  0.00    +0.051 A 
ATOM     11  C   UNL     1      -1.625  -9.330  -6.019  0.00  0.00    +0.022 A 
ATOM     12  C   UNL     1      -2.087  -9.774  -7.266  0.00  0.00    +0.015 A 
ATOM     13  C   UNL     1      -1.851  -9.020  -8.377  0.00  0.00    -0.050 A 
ATOM     14  C   UNL     1      -1.156  -7.816  -8.291  0.00  0.00    +0.005 A 
ATOM     15  C   UNL     1      -0.693  -7.355  -7.096  0.00  0.00    +0.029 A 
ATOM     16  C   UNL     1      -0.918  -8.103  -5.931  0.00  0.00    +0.077 A 
ATOM     17  N   UNL     1      -0.489  -7.692  -4.732  0.00  0.00    -0.211 NA
ATOM     18  C   UNL     1      -2.348  -9.497  -9.717  0.00  0.00    +0.044 C 
ATOM     19  C   UNL     1      -2.585 -11.378  -4.874  0.00  0.00    +0.066 C 
ENDBRANCH   4   8
BRANCH   1  20
ATOM     20  C   UNL     1       0.818  -7.207  -0.093  0.00  0.00    +0.141 C 
ATOM     21  S   UNL     1       0.089  -8.751  -0.213  0.00  0.00    -0.018 S 
BRANCH  20  22
ATOM     22  N   UNL     1       1.320  -6.788   1.085  0.00  0.00    -0.296 N 
ATOM     23  H   UNL     1       1.669  -5.887   1.171  0.00  0.00    +0.154 HD
BRANCH  22  28
ATOM     24  C   UNL     1       1.395 -10.296   5.542  0.00  0.00    +0.044 C 
ATOM     25  C   UNL     1       1.375  -9.364   4.358  0.00  0.00    -0.050 A 
ATOM     26  C   UNL     1       0.233  -9.254   3.586  0.00  0.00    +0.005 A 
ATOM     27  C   UNL     1       0.211  -8.401   2.500  0.00  0.00    +0.024 A 
ATOM     28  C   UNL     1       1.338  -7.653   2.185  0.00  0.00    +0.036 A 
ATOM     29  C   UNL     1       2.483  -7.765   2.962  0.00  0.00    -0.029 A 
ATOM     30  C   UNL     1       2.496  -8.617   4.050  0.00  0.00    +0.008 A 
ATOM     31  C   UNL     1       3.708  -6.955   2.623  0.00  0.00    +0.045 C 
ENDBRANCH  22  28
ENDBRANCH  20  22
ENDBRANCH   1  20
TORSDOF 4
