REMARK  Name = ZINC25561947
REMARK  11 active torsions:
REMARK  status: ('A' for Active; 'I' for Inactive)
REMARK    1  A    between atoms: C_1  and  C_2
REMARK    2  A    between atoms: C_2  and  C_3
REMARK    3  A    between atoms: C_3  and  N_4
REMARK    4  A    between atoms: N_4  and  C_5
REMARK    5  A    between atoms: N_15  and  C_18
REMARK    6  A    between atoms: C_22  and  S_24
REMARK    7  A    between atoms: S_24  and  N_27
REMARK    8  A    between atoms: N_27  and  C_28
REMARK    9  A    between atoms: N_27  and  C_30
REMARK   10  A    between atoms: C_28  and  C_29
REMARK   11  A    between atoms: C_30  and  C_31
REMARK                            x       y       z     vdW  Elec       q    Type
REMARK                         _______ _______ _______ _____ _____    ______ ____
ROOT
ATOM      1  C   UNL     1       4.904   1.409  -0.642  0.00  0.00    +0.081 C 
ATOM      2  C   UNL     1       3.652   1.974  -0.540  0.00  0.00    +0.059 C 
ATOM      3  C   UNL     1       2.459   1.140  -0.282  0.00  0.00    +0.000 A 
ATOM      4  C   UNL     1       2.549  -0.239  -0.134  0.00  0.00    +0.009 A 
ATOM      5  C   UNL     1       1.406  -0.974   0.106  0.00  0.00    +0.001 A 
ATOM      6  C   UNL     1       0.172  -0.347   0.199  0.00  0.00    +0.001 A 
ATOM      7  C   UNL     1       0.063   1.019   0.054  0.00  0.00    +0.014 A 
ATOM      8  C   UNL     1       1.206   1.780  -0.189  0.00  0.00    +0.046 A 
ATOM      9  C   UNL     1       1.135   3.238  -0.349  0.00  0.00    +0.258 C 
ATOM     10  O   UNL     1       0.057   3.796  -0.269  0.00  0.00    -0.269 OA
ATOM     11  N   UNL     1       2.239   3.966  -0.582  0.00  0.00    -0.202 N 
ATOM     12  C   UNL     1       3.463   3.422  -0.683  0.00  0.00    +0.259 C 
ATOM     13  O   UNL     1       4.425   4.137  -0.895  0.00  0.00    -0.269 OA
ENDROOT
BRANCH  11  14
ATOM     14  C   UNL     1       2.110   5.353  -0.726  0.00  0.00    +0.046 A 
ATOM     15  C   UNL     1       1.479   5.881  -1.845  0.00  0.00    +0.024 A 
ATOM     16  C   UNL     1       1.353   7.249  -1.983  0.00  0.00    +0.004 A 
ATOM     17  C   UNL     1       1.852   8.094  -1.008  0.00  0.00    +0.028 A 
ATOM     18  C   UNL     1       2.479   7.571   0.107  0.00  0.00    +0.107 A 
ATOM     19  C   UNL     1       2.605   6.203   0.254  0.00  0.00    +0.052 A 
BRANCH  18  20
ATOM     20  S   UNL     1       3.113   8.651   1.347  0.00  0.00    +0.061 S 
ATOM     21  O   UNL     1       4.137   7.936   2.024  0.00  0.00    -0.153 OA
ATOM     22  O   UNL     1       3.348   9.902   0.714  0.00  0.00    -0.153 OA
BRANCH  20  23
ATOM     23  N   UNL     1       1.901   8.898   2.448  0.00  0.00    -0.177 NA
BRANCH  23  24
ATOM     24  C   UNL     1       1.767   8.005   3.602  0.00  0.00    +0.106 C 
ATOM     25  C   UNL     1       2.487   8.616   4.805  0.00  0.00    +0.022 C 
ENDBRANCH  23  24
BRANCH  23  26
ATOM     26  C   UNL     1       0.963  10.009   2.268  0.00  0.00    +0.106 C 
ATOM     27  C   UNL     1      -0.290   9.506   1.548  0.00  0.00    +0.022 C 
ENDBRANCH  23  26
ENDBRANCH  20  23
ENDBRANCH  18  20
ENDBRANCH  11  14
BRANCH   1  28
ATOM     28  N   UNL     1       5.181   0.249   0.009  0.00  0.00    -0.349 N 
ATOM     29  H   UNL     1       4.447  -0.179   0.707  0.00  0.00    +0.146 HD
BRANCH  28  30
ATOM     30  C   UNL     1       6.458  -0.432  -0.219  0.00  0.00    +0.101 C 
BRANCH  30  32
ATOM     31  C   UNL     1       7.850  -2.415   0.391  0.00  0.00    +0.005 C 
ATOM     32  C   UNL     1       6.516  -1.704   0.629  0.00  0.00    +0.015 C 
ENDBRANCH  30  32
ENDBRANCH  28  30
ENDBRANCH   1  28
TORSDOF 8
