REMARK  Name = ZINC48867512
REMARK  8 active torsions:
REMARK  status: ('A' for Active; 'I' for Inactive)
REMARK    1  A    between atoms: C_1  and  C_2
REMARK    2  A    between atoms: C_2  and  C_4
REMARK    3  A    between atoms: C_2  and  N_18
REMARK    4  A    between atoms: C_4  and  O_6
REMARK    5  A    between atoms: O_6  and  C_7
REMARK    6  A    between atoms: C_14  and  C_16
REMARK    7  A    between atoms: C_14  and  C_17
REMARK    8  A    between atoms: N_21  and  C_22
REMARK                            x       y       z     vdW  Elec       q    Type
REMARK                         _______ _______ _______ _____ _____    ______ ____
ROOT
ATOM      1  C   UNL     1       0.149   1.001  -0.026  0.00  0.00    +0.040 C 
ATOM      2  C   UNL     1      -0.090  -0.480   0.273  0.00  0.00    +0.180 C 
ENDROOT
BRANCH   2   3
ATOM      3  N   UNL     1       0.401  -0.792   1.618  0.00  0.00    -0.286 N 
ATOM      4  C   UNL     1       1.700  -1.096   1.808  0.00  0.00    +0.305 C 
ATOM      5  O   UNL     1       2.465  -1.111   0.863  0.00  0.00    -0.252 OA
ATOM      6  N   UNL     1       2.151  -1.383   3.045  0.00  0.00    -0.269 N 
ATOM      7  H   UNL     1      -0.209  -0.780   2.372  0.00  0.00    +0.151 HD
ATOM      8  H   UNL     1       1.529  -1.442   3.787  0.00  0.00    +0.156 HD
BRANCH   6   9
ATOM      9  C   UNL     1       3.518  -1.596   3.259  0.00  0.00    +0.035 A 
ATOM     10  C   UNL     1       3.938  -2.512   4.215  0.00  0.00    +0.023 A 
ATOM     11  C   UNL     1       5.287  -2.720   4.424  0.00  0.00    +0.002 A 
ATOM     12  C   UNL     1       6.219  -2.017   3.683  0.00  0.00    +0.000 A 
ATOM     13  C   UNL     1       5.804  -1.104   2.731  0.00  0.00    +0.002 A 
ATOM     14  C   UNL     1       4.457  -0.895   2.513  0.00  0.00    +0.023 A 
ENDBRANCH   6   9
ENDBRANCH   2   3
BRANCH   2  15
ATOM     15  C   UNL     1      -1.565  -0.777   0.195  0.00  0.00    +0.333 C 
ATOM     16  O   UNL     1      -2.147  -1.205   1.164  0.00  0.00    -0.248 OA
BRANCH  15  17
ATOM     17  O   UNL     1      -2.233  -0.566  -0.950  0.00  0.00    -0.421 OA
BRANCH  17  18
ATOM     18  C   UNL     1      -3.539  -0.941  -1.006  0.00  0.00    +0.173 A 
ATOM     19  C   UNL     1      -3.882  -2.168  -1.548  0.00  0.00    +0.050 A 
ATOM     20  C   UNL     1      -5.207  -2.557  -1.608  0.00  0.00    +0.004 A 
ATOM     21  C   UNL     1      -6.194  -1.713  -1.129  0.00  0.00    +0.007 A 
ATOM     22  C   UNL     1      -5.856  -0.490  -0.592  0.00  0.00    +0.002 A 
ATOM     23  C   UNL     1      -4.530  -0.090  -0.512  0.00  0.00    +0.167 A 
ATOM     24  O   UNL     1      -4.418   1.134   0.075  0.00  0.00    -0.482 OA
ATOM     25  C   UNL     1      -5.689   1.803   0.020  0.00  0.00    +0.109 C 
ATOM     26  C   UNL     1      -6.695   0.632  -0.010  0.00  0.00    +0.086 C 
ATOM     27  C   UNL     1      -5.807   2.639  -1.256  0.00  0.00    +0.056 C 
ATOM     28  C   UNL     1      -5.897   2.674   1.261  0.00  0.00    +0.056 C 
ENDBRANCH  17  18
ENDBRANCH  15  17
ENDBRANCH   2  15
TORSDOF 5
