REMARK  Name = ZINC12190323
REMARK  10 active torsions:
REMARK  status: ('A' for Active; 'I' for Inactive)
REMARK    1  A    between atoms: C_1  and  C_2
REMARK    2  A    between atoms: C_2  and  O_3
REMARK    3  A    between atoms: O_3  and  C_4
REMARK    4  A    between atoms: C_4  and  C_6
REMARK    5  A    between atoms: C_12  and  C_13
REMARK    6  A    between atoms: C_12  and  N_77
REMARK    7  A    between atoms: C_17  and  O_19
REMARK    8  A    between atoms: O_19  and  C_20
REMARK    9  A    between atoms: C_26  and  C_28
REMARK   10  A    between atoms: C_32  and  N_34
REMARK                            x       y       z     vdW  Elec       q    Type
REMARK                         _______ _______ _______ _____ _____    ______ ____
ROOT
ATOM      1  C   UNL     1       2.025   1.014   0.603  0.00  0.00    +0.176 C 
ATOM      2  C   UNL     1       1.720   0.774   2.083  0.00  0.00    +0.063 C 
ATOM      3  C   UNL     1       2.690   1.592   2.941  0.00  0.00    +0.111 C 
ATOM      4  N   UNL     1       2.611   3.001   2.530  0.00  0.00    -0.297 N 
ATOM      5  C   UNL     1       2.799   3.334   1.111  0.00  0.00    +0.111 C 
ATOM      6  C   UNL     1       1.828   2.496   0.275  0.00  0.00    +0.063 C 
ATOM      7  C   UNL     1       2.372   3.968   3.437  0.00  0.00    +0.247 C 
ATOM      8  O   UNL     1       2.327   3.694   4.620  0.00  0.00    -0.270 OA
ENDROOT
BRANCH   7   9
ATOM      9  C   UNL     1       2.163   5.363   2.993  0.00  0.00    +0.039 A 
ATOM     10  C   UNL     1       1.536   5.623   1.773  0.00  0.00    +0.013 A 
ATOM     11  C   UNL     1       1.337   6.925   1.363  0.00  0.00    +0.003 A 
ATOM     12  C   UNL     1       1.768   7.976   2.151  0.00  0.00    +0.023 A 
ATOM     13  C   UNL     1       2.399   7.728   3.364  0.00  0.00    +0.039 A 
ATOM     14  C   UNL     1       2.597   6.423   3.788  0.00  0.00    +0.036 A 
BRANCH  13  15
ATOM     15  N   UNL     1       2.832   8.795   4.159  0.00  0.00    -0.254 N 
ATOM     16  C   UNL     1       2.592  10.219   3.879  0.00  0.00    +0.134 C 
ATOM     17  C   UNL     1       3.271  10.946   5.056  0.00  0.00    +0.125 C 
ATOM     18  N   UNL     1       3.830   9.856   5.869  0.00  0.00    -0.297 N 
ATOM     19  C   UNL     1       3.537   8.683   5.293  0.00  0.00    +0.307 C 
ATOM     20  O   UNL     1       3.880   7.612   5.756  0.00  0.00    -0.252 OA
ATOM     21  H   UNL     1       4.332   9.968   6.691  0.00  0.00    +0.150 HD
ENDBRANCH  13  15
ENDBRANCH   7   9
BRANCH   1  22
ATOM     22  O   UNL     1       1.143   0.227  -0.199  0.00  0.00    -0.489 OA
BRANCH  22  27
ATOM     23  C   UNL     1       1.012  -3.221  -1.351  0.00  0.00    -0.060 A 
ATOM     24  C   UNL     1       2.182  -3.719  -0.806  0.00  0.00    +0.002 A 
ATOM     25  C   UNL     1       3.004  -2.896  -0.059  0.00  0.00    +0.004 A 
ATOM     26  C   UNL     1       2.661  -1.572   0.140  0.00  0.00    +0.045 A 
ATOM     27  C   UNL     1       1.485  -1.073  -0.399  0.00  0.00    +0.121 A 
ATOM     28  C   UNL     1       0.661  -1.901  -1.149  0.00  0.00    +0.047 A 
BRANCH  23  29
ATOM     29  C   UNL     1       0.118  -4.122  -2.164  0.00  0.00    -0.042 C 
BRANCH  29  35
ATOM     30  C   UNL     1      -0.578  -4.508  -4.450  0.00  0.00    +0.043 C 
ATOM     31  C   UNL     1      -0.186  -4.291  -5.913  0.00  0.00    -0.004 C 
ATOM     32  C   UNL     1       1.093  -5.076  -6.216  0.00  0.00    -0.003 C 
ATOM     33  C   UNL     1       2.200  -4.620  -5.261  0.00  0.00    -0.019 C 
ATOM     34  C   UNL     1       1.739  -4.828  -3.817  0.00  0.00    -0.077 C 
ATOM     35  N   UNL     1       0.518  -4.027  -3.583  0.00  0.00    +0.391 N 
ATOM     36  H   UNL     1       0.716  -3.046  -3.809  0.00  0.00    -0.080 HD
BRANCH  30  37
ATOM     37  C   UNL     1      -1.826  -3.722  -4.142  0.00  0.00    +0.293 C 
ATOM     38  O   UNL     1      -1.740  -2.586  -3.739  0.00  0.00    -0.253 OA
BRANCH  37  39
ATOM     39  O   UNL     1      -3.033  -4.283  -4.317  0.00  0.00    -0.466 OA
BRANCH  39  41
ATOM     40  C   UNL     1      -5.468  -4.269  -4.260  0.00  0.00    +0.048 C 
ATOM     41  C   UNL     1      -4.191  -3.466  -4.000  0.00  0.00    +0.228 C 
ENDBRANCH  39  41
ENDBRANCH  37  39
ENDBRANCH  30  37
ENDBRANCH  29  35
ENDBRANCH  23  29
ENDBRANCH  22  27
ENDBRANCH   1  22
TORSDOF 9
