REMARK  Name = ZINC06591088
REMARK  5 active torsions:
REMARK  status: ('A' for Active; 'I' for Inactive)
REMARK    1  A    between atoms: C_1  and  C_2
REMARK    2  A    between atoms: C_2  and  C_20
REMARK    3  A    between atoms: C_4  and  N_5
REMARK    4  A    between atoms: N_5  and  N_6
REMARK    5  A    between atoms: N_9  and  C_10
REMARK                            x       y       z     vdW  Elec       q    Type
REMARK                         _______ _______ _______ _____ _____    ______ ____
ROOT
ATOM      1  N   UNL     1      -3.869   0.769   0.080  0.00  0.00    -0.221 N 
ATOM      2  C   UNL     1      -5.079   1.358   0.147  0.00  0.00    +0.316 C 
ATOM      3  O   UNL     1      -5.618   1.520   1.225  0.00  0.00    -0.251 OA
ATOM      4  N   UNL     1      -5.692   1.768  -0.981  0.00  0.00    -0.295 N 
ATOM      5  H   UNL     1      -3.369   0.435   1.001  0.00  0.00    +0.174 HD
ATOM      6  H   UNL     1      -5.205   1.622  -1.956  0.00  0.00    +0.151 HD
ENDROOT
BRANCH   4   7
ATOM      7  C   UNL     1      -7.008   2.409  -0.909  0.00  0.00    +0.074 C 
ATOM      8  C   UNL     1      -8.097   1.335  -0.882  0.00  0.00    +0.022 C 
ATOM      9  C   UNL     1      -9.471   2.004  -0.806  0.00  0.00    +0.002 C 
ATOM     10  C   UNL     1      -9.669   2.901  -2.030  0.00  0.00    +0.000 C 
ATOM     11  C   UNL     1      -8.580   3.975  -2.057  0.00  0.00    +0.002 C 
ATOM     12  C   UNL     1      -7.206   3.306  -2.133  0.00  0.00    +0.022 C 
ENDBRANCH   4   7
BRANCH   1  13
ATOM     13  N   UNL     1      -3.248   0.582  -1.161  0.00  0.00    -0.267 N 
ATOM     14  H   UNL     1      -3.784   0.835  -2.088  0.00  0.00    +0.170 HD
BRANCH  13  18
ATOM     15  C   UNL     1      -0.184   2.148  -0.238  0.00  0.00    +0.011 C 
ATOM     16  C   UNL     1       0.085   0.649  -0.091  0.00  0.00    -0.023 C 
ATOM     17  C   UNL     1      -1.245  -0.097   0.040  0.00  0.00    +0.059 C 
ATOM     18  C   UNL     1      -2.057   0.117  -1.218  0.00  0.00    +0.026 C 
ATOM     19  C   UNL     1      -1.419  -0.234  -2.547  0.00  0.00    +0.066 C 
ATOM     20  C   UNL     1      -0.022   0.352  -2.549  0.00  0.00    +0.158 C 
ATOM     21  O   UNL     1       0.392   0.968  -3.502  0.00  0.00    -0.293 OA
ATOM     22  C   UNL     1       0.839   0.143  -1.324  0.00  0.00    +0.085 C 
ATOM     23  C   UNL     1       0.932   0.404   1.160  0.00  0.00    +0.011 C 
ENDBRANCH  13  18
ENDBRANCH   1  13
TORSDOF 3
