REMARK  Name = ZINC02411481
REMARK  7 active torsions:
REMARK  status: ('A' for Active; 'I' for Inactive)
REMARK    1  A    between atoms: C_1  and  C_2
REMARK    2  A    between atoms: C_5  and  S_9
REMARK    3  A    between atoms: C_7  and  C_8
REMARK    4  A    between atoms: S_9  and  C_12
REMARK    5  A    between atoms: N_23  and  N_26
REMARK    6  A    between atoms: C_24  and  N_25
REMARK    7  A    between atoms: C_27  and  C_28
REMARK                            x       y       z     vdW  Elec       q    Type
REMARK                         _______ _______ _______ _____ _____    ______ ____
ROOT
ATOM      1  C   UNL     1      -1.354  -0.411   0.013  0.00  0.00    +0.162 A 
ATOM      2  C   UNL     1       0.002  -0.004   0.002  0.00  0.00    +0.137 A 
ATOM      3  C   UNL     1      -0.018   1.465   0.010  0.00  0.00    +0.184 A 
ATOM      4  N   UNL     1       1.115   2.131   0.003  0.00  0.00    -0.224 NA
ATOM      5  C   UNL     1       2.278   1.468  -0.011  0.00  0.00    +0.092 A 
ATOM      6  C   UNL     1       3.496   2.174  -0.018  0.00  0.00    +0.030 A 
ATOM      7  C   UNL     1       4.673   1.493  -0.033  0.00  0.00    +0.002 A 
ATOM      8  C   UNL     1       4.696   0.099  -0.041  0.00  0.00    +0.002 A 
ATOM      9  C   UNL     1       3.540  -0.618  -0.034  0.00  0.00    +0.030 A 
ATOM     10  C   UNL     1       2.301   0.051  -0.019  0.00  0.00    +0.090 A 
ATOM     11  N   UNL     1       1.159  -0.646  -0.012  0.00  0.00    -0.240 NA
ATOM     12  N   UNL     1      -1.348   1.833   0.030  0.00  0.00    -0.197 N 
ATOM     13  C   UNL     1      -2.127   0.701   0.027  0.00  0.00    +0.148 A 
ENDROOT
BRANCH   1  14
ATOM     14  S   UNL     1      -1.935  -2.075   0.010  0.00  0.00    +0.030 S 
ATOM     15  O   UNL     1      -3.250  -2.044  -0.528  0.00  0.00    -0.164 OA
ATOM     16  O   UNL     1      -0.899  -2.865  -0.556  0.00  0.00    -0.164 OA
BRANCH  14  21
ATOM     17  C   UNL     1      -2.466  -3.793   5.769  0.00  0.00    +0.044 C 
ATOM     18  C   UNL     1      -2.333  -3.364   4.330  0.00  0.00    -0.047 A 
ATOM     19  C   UNL     1      -3.402  -2.771   3.684  0.00  0.00    +0.005 A 
ATOM     20  C   UNL     1      -3.281  -2.378   2.365  0.00  0.00    +0.027 A 
ATOM     21  C   UNL     1      -2.090  -2.576   1.692  0.00  0.00    +0.094 A 
ATOM     22  C   UNL     1      -1.022  -3.172   2.336  0.00  0.00    +0.031 A 
ATOM     23  C   UNL     1      -1.143  -3.562   3.657  0.00  0.00    -0.046 A 
ATOM     24  C   UNL     1       0.023  -4.208   4.361  0.00  0.00    +0.044 C 
ENDBRANCH  14  21
ENDBRANCH   1  14
BRANCH  13  25
ATOM     25  N   UNL     1      -3.510   0.698   0.041  0.00  0.00    -0.341 N 
ATOM     26  H   UNL     1      -3.994  -0.143   0.042  0.00  0.00    +0.144 HD
ATOM     27  H   UNL     1      -3.997   1.537   0.050  0.00  0.00    +0.144 HD
ENDBRANCH  13  25
BRANCH  12  28
ATOM     28  N   UNL     1      -1.827   3.149   0.044  0.00  0.00    -0.171 NA
ATOM     29  C   UNL     1      -2.065   3.766  -1.074  0.00  0.00    +0.143 C 
BRANCH  29  30
ATOM     30  C   UNL     1      -2.568   5.149  -1.059  0.00  0.00    +0.020 A 
ATOM     31  C   UNL     1      -2.856   5.921  -2.142  0.00  0.00    +0.093 A 
ATOM     32  N   UNL     1      -3.300   7.141  -1.730  0.00  0.00    -0.360 N 
ATOM     33  H   UNL     1      -3.570   7.862  -2.322  0.00  0.00    +0.165 HD
ATOM     34  C   UNL     1      -3.308   7.208  -0.353  0.00  0.00    +0.047 A 
ATOM     35  C   UNL     1      -2.853   5.970   0.131  0.00  0.00    +0.008 A 
ATOM     36  C   UNL     1      -2.756   5.750   1.503  0.00  0.00    +0.010 A 
ATOM     37  C   UNL     1      -3.109   6.751   2.381  0.00  0.00    +0.001 A 
ATOM     38  C   UNL     1      -3.558   7.974   1.904  0.00  0.00    +0.002 A 
ATOM     39  C   UNL     1      -3.659   8.206   0.550  0.00  0.00    +0.026 A 
ENDBRANCH  29  30
ENDBRANCH  12  28
TORSDOF 5
