REMARK  Name = ZINC08609829
REMARK  7 active torsions:
REMARK  status: ('A' for Active; 'I' for Inactive)
REMARK    1  A    between atoms: C_1  and  C_2
REMARK    2  A    between atoms: C_5  and  N_9
REMARK    3  A    between atoms: C_6  and  C_8
REMARK    4  A    between atoms: C_10  and  C_12
REMARK    5  A    between atoms: C_13  and  C_28
REMARK    6  A    between atoms: C_20  and  C_22
REMARK    7  A    between atoms: C_23  and  C_27
REMARK                            x       y       z     vdW  Elec       q    Type
REMARK                         _______ _______ _______ _____ _____    ______ ____
ROOT
ATOM      1  C   UNL     1      -0.623  -6.099  -1.463  0.00  0.00    +0.061 C 
ATOM      2  C   UNL     1      -0.883  -6.459  -2.729  0.00  0.00    +0.018 C 
ATOM      3  N   UNL     1      -1.203  -7.750  -3.072  0.00  0.00    -0.287 N 
ATOM      4  C   UNL     1      -0.997  -8.735  -2.115  0.00  0.00    +0.218 A 
ATOM      5  N   UNL     1      -1.001 -10.034  -2.230  0.00  0.00    -0.201 NA
ATOM      6  C   UNL     1      -0.749 -10.590  -1.041  0.00  0.00    +0.247 A 
ATOM      7  N   UNL     1      -0.582  -9.643  -0.150  0.00  0.00    -0.156 NA
ATOM      8  N   UNL     1      -0.741  -8.430  -0.819  0.00  0.00    -0.220 N 
ATOM      9  C   UNL     1      -0.663  -7.065  -0.309  0.00  0.00    +0.184 C 
ATOM     10  C   UNL     1      -0.823  -5.412  -3.811  0.00  0.00    +0.061 C 
ATOM     11  H   UNL     1      -1.559  -7.965  -3.948  0.00  0.00    +0.155 HD
ENDROOT
BRANCH   9  12
ATOM     12  C   UNL     1      -1.874  -6.782   0.542  0.00  0.00    +0.022 A 
ATOM     13  C   UNL     1      -1.933  -6.352   1.826  0.00  0.00    -0.038 A 
ATOM     14  C   UNL     1      -3.170  -6.157   2.411  0.00  0.00    +0.011 A 
ATOM     15  C   UNL     1      -4.287  -6.401   1.683  0.00  0.00    +0.046 A 
ATOM     16  S   UNL     1      -3.603  -6.918   0.117  0.00  0.00    -0.099 S 
ATOM     17  C   UNL     1      -0.669  -6.091   2.604  0.00  0.00    +0.044 C 
ENDBRANCH   9  12
BRANCH   1  19
ATOM     18  N   UNL     1      -1.266  -3.837  -1.025  0.00  0.00    -0.281 N 
ATOM     19  C   UNL     1      -0.290  -4.749  -1.201  0.00  0.00    +0.248 C 
ATOM     20  O   UNL     1       0.878  -4.412  -1.135  0.00  0.00    -0.270 OA
ATOM     21  H   UNL     1      -2.192  -4.120  -0.978  0.00  0.00    +0.155 HD
BRANCH  18  26
ATOM     22  C   UNL     1       0.046   1.663  -0.561  0.00  0.00    +0.044 C 
ATOM     23  C   UNL     1      -0.303   0.202  -0.684  0.00  0.00    -0.050 A 
ATOM     24  C   UNL     1       0.591  -0.760  -0.248  0.00  0.00    +0.005 A 
ATOM     25  C   UNL     1       0.274  -2.099  -0.360  0.00  0.00    +0.024 A 
ATOM     26  C   UNL     1      -0.943  -2.481  -0.910  0.00  0.00    +0.037 A 
ATOM     27  C   UNL     1      -1.837  -1.513  -1.347  0.00  0.00    -0.029 A 
ATOM     28  C   UNL     1      -1.517  -0.174  -1.228  0.00  0.00    +0.008 A 
ATOM     29  C   UNL     1      -3.159  -1.922  -1.945  0.00  0.00    +0.045 C 
ENDBRANCH  18  26
ENDBRANCH   1  19
TORSDOF 3
