REMARK  Name = ZINC12884522
REMARK  6 active torsions:
REMARK  status: ('A' for Active; 'I' for Inactive)
REMARK    1  A    between atoms: C_1  and  C_2
REMARK    2  A    between atoms: C_17  and  C_19
REMARK    3  A    between atoms: C_19  and  C_20
REMARK    4  A    between atoms: N_28  and  C_31
REMARK    5  A    between atoms: C_31  and  C_32
REMARK    6  A    between atoms: C_32  and  C_33
REMARK                            x       y       z     vdW  Elec       q    Type
REMARK                         _______ _______ _______ _____ _____    ______ ____
ROOT
ATOM      1  C   UNL     1       2.491   1.043  -0.015  0.00  0.00    +0.044 C 
ATOM      2  C   UNL     1       1.177   1.780   0.000  0.00  0.00    -0.049 A 
ATOM      3  C   UNL     1       1.159   3.164   0.007  0.00  0.00    +0.008 A 
ATOM      4  C   UNL     1      -0.042   3.838   0.022  0.00  0.00    -0.026 A 
ATOM      5  C   UNL     1      -1.246   3.140   0.030  0.00  0.00    +0.054 A 
ATOM      6  C   UNL     1      -1.219   1.747   0.017  0.00  0.00    +0.063 A 
ATOM      7  C   UNL     1      -0.013   1.076   0.008  0.00  0.00    +0.025 A 
ATOM      8 CL   UNL     1      -2.707   0.852   0.019  0.00  0.00    -0.082 Cl
ATOM      9  N   UNL     1      -2.321   4.032   0.046  0.00  0.00    -0.285 N 
ATOM     10  C   UNL     1      -1.915   5.316   0.051  0.00  0.00    +0.211 C 
ATOM     11  O   UNL     1      -2.625   6.300   0.066  0.00  0.00    -0.277 OA
ATOM     12  C   UNL     1      -0.411   5.294   0.035  0.00  0.00    +0.050 C 
ATOM     13  C   UNL     1       0.145   6.028  -1.191  0.00  0.00    +0.088 C 
ATOM     14  C   UNL     1       0.515   7.443  -0.664  0.00  0.00    +0.073 C 
ATOM     15  C   UNL     1       0.132   7.422   0.830  0.00  0.00    -0.053 C 
ATOM     16  C   UNL     1       2.036   7.463  -0.800  0.00  0.00    +0.224 C 
ATOM     17  O   UNL     1       2.753   8.389  -0.487  0.00  0.00    -0.275 OA
ATOM     18  N   UNL     1       2.454   6.304  -1.323  0.00  0.00    -0.241 N 
ATOM     19  C   UNL     1       1.477   5.428  -1.583  0.00  0.00    +0.225 C 
ATOM     20  O   UNL     1       1.634   4.324  -2.059  0.00  0.00    -0.275 OA
ATOM     21  H   UNL     1      -3.252   3.758   0.053  0.00  0.00    +0.155 HD
ATOM     22  N   UNL     1       0.139   6.000   1.179  0.00  0.00    +0.394 N 
ATOM     23  H   UNL     1       1.099   5.684   1.362  0.00  0.00    -0.083 HD
ATOM     24  H   UNL     1      -0.441   5.835   2.010  0.00  0.00    -0.083 HD
ENDROOT
BRANCH  15  25
ATOM     25  C   UNL     1       1.159   8.203   1.653  0.00  0.00    +0.020 C 
BRANCH  25  26
ATOM     26  C   UNL     1       0.703   8.274   3.088  0.00  0.00    -0.049 A 
ATOM     27  C   UNL     1      -0.086   9.328   3.511  0.00  0.00    +0.003 A 
ATOM     28  C   UNL     1      -0.507   9.391   4.826  0.00  0.00    +0.000 A 
ATOM     29  C   UNL     1      -0.132   8.406   5.720  0.00  0.00    +0.000 A 
ATOM     30  C   UNL     1       0.661   7.355   5.298  0.00  0.00    +0.000 A 
ATOM     31  C   UNL     1       1.079   7.290   3.982  0.00  0.00    +0.003 A 
ENDBRANCH  25  26
ENDBRANCH  15  25
BRANCH  18  32
ATOM     32  C   UNL     1       3.866   6.018  -1.588  0.00  0.00    +0.121 C 
BRANCH  32  33
ATOM     33  C   UNL     1       4.219   6.467  -3.008  0.00  0.00    +0.054 C 
BRANCH  33  34
ATOM     34  C   UNL     1       5.672   6.173  -3.281  0.00  0.00    -0.046 A 
ATOM     35  C   UNL     1       6.635   7.122  -2.995  0.00  0.00    +0.004 A 
ATOM     36  C   UNL     1       7.968   6.851  -3.241  0.00  0.00    +0.000 A 
ATOM     37  C   UNL     1       8.336   5.633  -3.782  0.00  0.00    +0.000 A 
ATOM     38  C   UNL     1       7.373   4.685  -4.072  0.00  0.00    +0.000 A 
ATOM     39  C   UNL     1       6.040   4.955  -3.822  0.00  0.00    +0.004 A 
ENDBRANCH  33  34
ENDBRANCH  32  33
ENDBRANCH  18  32
TORSDOF 5
