REMARK  Name = ZINC09374732
REMARK  3 active torsions:
REMARK  status: ('A' for Active; 'I' for Inactive)
REMARK    1  A    between atoms: C_4  and  C_7
REMARK    2  A    between atoms: N_17  and  N_18
REMARK    3  A    between atoms: C_19  and  C_20
REMARK                            x       y       z     vdW  Elec       q    Type
REMARK                         _______ _______ _______ _____ _____    ______ ____
ROOT
ATOM      1  C   UNL     1      11.792   7.531   0.735  0.00  0.00    +0.084 A 
ATOM      2  C   UNL     1      10.951   8.650   0.958  0.00  0.00    +0.028 A 
ATOM      3  C   UNL     1      11.461   9.946   1.097  0.00  0.00    +0.032 A 
ATOM      4  C   UNL     1      10.604  10.987   1.310  0.00  0.00    +0.042 A 
ATOM      5  C   UNL     1       9.229  10.776   1.391  0.00  0.00    +0.022 A 
ATOM      6  C   UNL     1       8.701   9.527   1.259  0.00  0.00    +0.030 A 
ATOM      7  C   UNL     1       9.552   8.435   1.040  0.00  0.00    +0.077 A 
ATOM      8  N   UNL     1       9.083   7.187   0.903  0.00  0.00    -0.213 NA
ATOM      9  C   UNL     1       9.911   6.180   0.697  0.00  0.00    +0.236 A 
ATOM     10  N   UNL     1      11.229   6.336   0.618  0.00  0.00    -0.213 NA
ATOM     11  N   UNL     1       9.385   4.907   0.561  0.00  0.00    -0.205 N 
ATOM     12 CL   UNL     1      11.237  12.594   1.484  0.00  0.00    -0.084 Cl
ATOM     13  H   UNL     1       9.975   4.153   0.409  0.00  0.00    +0.177 HD
ENDROOT
BRANCH   1  17
ATOM     14  C   UNL     1      16.008   7.990   0.465  0.00  0.00    +0.000 A 
ATOM     15  C   UNL     1      15.306   8.645   1.461  0.00  0.00    +0.001 A 
ATOM     16  C   UNL     1      13.937   8.500   1.554  0.00  0.00    +0.010 A 
ATOM     17  C   UNL     1      13.260   7.691   0.640  0.00  0.00    +0.001 A 
ATOM     18  C   UNL     1      13.974   7.029  -0.359  0.00  0.00    +0.010 A 
ATOM     19  C   UNL     1      15.342   7.186  -0.444  0.00  0.00    +0.001 A 
ENDBRANCH   1  17
BRANCH  11  20
ATOM     20  N   UNL     1       8.001   4.709   0.645  0.00  0.00    -0.187 NA
ATOM     21  C   UNL     1       7.507   3.515   0.518  0.00  0.00    +0.141 C 
BRANCH  21  22
ATOM     22  C   UNL     1       6.051   3.306   0.606  0.00  0.00    +0.032 A 
ATOM     23  C   UNL     1       5.516   2.029   0.471  0.00  0.00    +0.022 A 
ATOM     24  C   UNL     1       4.122   1.884   0.563  0.00  0.00    +0.005 A 
ATOM     25  C   UNL     1       3.512   0.624   0.439  0.00  0.00    +0.059 A 
ATOM     26  C   UNL     1       2.156   0.514   0.534  0.00  0.00    +0.167 A 
ATOM     27  C   UNL     1       1.360   1.652   0.754  0.00  0.00    +0.168 A 
ATOM     28  C   UNL     1       1.927   2.888   0.878  0.00  0.00    +0.078 A 
ATOM     29  C   UNL     1       3.321   3.034   0.787  0.00  0.00    +0.076 A 
ATOM     30  N   UNL     1       3.892   4.238   0.908  0.00  0.00    -0.234 NA
ATOM     31  C   UNL     1       5.189   4.397   0.827  0.00  0.00    +0.139 A 
ATOM     32 CL   UNL     1       5.861   5.989   0.994  0.00  0.00    -0.061 Cl
ATOM     33  O   UNL     1       0.053   1.259   0.804  0.00  0.00    -0.453 OA
ATOM     34  C   UNL     1       0.085  -0.162   1.028  0.00  0.00    +0.466 C 
ATOM     35  O   UNL     1       1.337  -0.576   0.450  0.00  0.00    -0.453 OA
ENDBRANCH  21  22
ENDBRANCH  11  20
TORSDOF 3
