REMARK  Name = ZINC59020492
REMARK  9 active torsions:
REMARK  status: ('A' for Active; 'I' for Inactive)
REMARK    1  A    between atoms: C_1  and  C_2
REMARK    2  A    between atoms: N_10  and  C_13
REMARK    3  A    between atoms: C_13  and  C_14
REMARK    4  A    between atoms: C_14  and  C_15
REMARK    5  A    between atoms: N_17  and  C_18
REMARK    6  A    between atoms: C_18  and  C_20
REMARK    7  A    between atoms: C_18  and  C_29
REMARK    8  A    between atoms: C_20  and  O_21
REMARK    9  A    between atoms: O_21  and  C_22
REMARK                            x       y       z     vdW  Elec       q    Type
REMARK                         _______ _______ _______ _____ _____    ______ ____
ROOT
ATOM      1  C   UNL     1      -1.325  -3.684   6.712  0.00  0.00    +0.215 C 
ATOM      2  O   UNL     1      -0.266  -3.943   7.243  0.00  0.00    -0.276 OA
ATOM      3  N   UNL     1      -2.482  -4.005   7.324  0.00  0.00    -0.305 N 
ATOM      4  H   UNL     1      -3.329  -3.798   6.899  0.00  0.00    +0.149 HD
ENDROOT
BRANCH   1   5
ATOM      5  C   UNL     1      -1.348  -3.004   5.367  0.00  0.00    +0.117 C 
BRANCH   5   6
ATOM      6  C   UNL     1       0.087  -2.754   4.898  0.00  0.00    +0.135 C 
BRANCH   6  16
ATOM      7  C   UNL     1      -0.018   1.503   0.010  0.00  0.00    +0.046 C 
ATOM      8  C   UNL     1       0.002  -0.004   0.002  0.00  0.00    -0.024 A 
ATOM      9  C   UNL     1       0.006  -0.689  -1.192  0.00  0.00    +0.005 A 
ATOM     10  C   UNL     1       0.025  -2.078  -1.216  0.00  0.00    +0.001 A 
ATOM     11  C   UNL     1       0.040  -2.798  -0.042  0.00  0.00    +0.015 A 
ATOM     12  C   UNL     1       0.037  -2.124   1.177  0.00  0.00    +0.065 A 
ATOM     13  C   UNL     1       0.023  -0.712   1.205  0.00  0.00    +0.081 A 
ATOM     14  N   UNL     1       0.025  -0.077   2.404  0.00  0.00    -0.237 NA
ATOM     15  C   UNL     1       0.045  -0.736   3.523  0.00  0.00    +0.202 A 
ATOM     16  N   UNL     1       0.065  -2.093   3.591  0.00  0.00    -0.298 N 
ATOM     17  C   UNL     1       0.053  -2.840   2.462  0.00  0.00    +0.262 A 
ATOM     18  O   UNL     1       0.069  -4.056   2.508  0.00  0.00    -0.267 OA
ENDBRANCH   6  16
ENDBRANCH   5   6
ENDBRANCH   1   5
BRANCH   3  19
ATOM     19  C   UNL     1      -2.460  -4.666   8.631  0.00  0.00    +0.141 C 
BRANCH  19  20
ATOM     20  C   UNL     1      -2.317  -6.154   8.440  0.00  0.00    -0.024 A 
ATOM     21  C   UNL     1      -2.997  -6.787   7.416  0.00  0.00    +0.005 A 
ATOM     22  C   UNL     1      -2.865  -8.152   7.240  0.00  0.00    +0.000 A 
ATOM     23  C   UNL     1      -2.054  -8.883   8.088  0.00  0.00    +0.000 A 
ATOM     24  C   UNL     1      -1.374  -8.249   9.111  0.00  0.00    +0.000 A 
ATOM     25  C   UNL     1      -1.502  -6.884   9.284  0.00  0.00    +0.005 A 
ENDBRANCH  19  20
BRANCH  19  26
ATOM     26  C   UNL     1      -3.765  -4.370   9.374  0.00  0.00    +0.256 C 
BRANCH  26  27
ATOM     27  O   UNL     1      -4.859  -4.962   8.669  0.00  0.00    -0.487 OA
BRANCH  27  28
ATOM     28  C   UNL     1      -6.099  -4.792   9.200  0.00  0.00    +0.156 A 
ATOM     29  C   UNL     1      -6.260  -4.067  10.370  0.00  0.00    +0.048 A 
ATOM     30  C   UNL     1      -7.522  -3.896  10.908  0.00  0.00    +0.004 A 
ATOM     31  C   UNL     1      -8.623  -4.447  10.280  0.00  0.00    +0.003 A 
ATOM     32  C   UNL     1      -8.467  -5.172   9.113  0.00  0.00    +0.042 A 
ATOM     33  C   UNL     1      -7.207  -5.341   8.567  0.00  0.00    +0.165 A 
ATOM     34  F   UNL     1      -7.055  -6.043   7.424  0.00  0.00    -0.202 F 
ENDBRANCH  27  28
ENDBRANCH  26  27
ENDBRANCH  19  26
ENDBRANCH   3  19
TORSDOF 8
