REMARK  Name = ZINC09541749
REMARK  6 active torsions:
REMARK  status: ('A' for Active; 'I' for Inactive)
REMARK    1  A    between atoms: C_1  and  O_2
REMARK    2  A    between atoms: O_2  and  C_3
REMARK    3  A    between atoms: C_8  and  C_9
REMARK    4  A    between atoms: C_12  and  C_26
REMARK    5  A    between atoms: C_15  and  C_17
REMARK    6  A    between atoms: C_31  and  O_32
REMARK                            x       y       z     vdW  Elec       q    Type
REMARK                         _______ _______ _______ _____ _____    ______ ____
ROOT
ATOM      1  C   UNL     1       0.052  -2.828   0.005  0.00  0.00    +0.084 C 
ATOM      2  N   UNL     1      -0.277  -4.157   0.533  0.00  0.00    +0.401 N 
ATOM      3  C   UNL     1      -1.041  -4.899  -0.484  0.00  0.00    -0.028 C 
ATOM      4  C   UNL     1      -2.414  -4.238  -0.631  0.00  0.00    +0.044 C 
ATOM      5  C   UNL     1      -2.240  -2.750  -0.767  0.00  0.00    +0.040 C 
ATOM      6  N   UNL     1      -1.145  -2.152  -0.477  0.00  0.00    -0.298 NA
ATOM      7  H   UNL     1       0.573  -4.656   0.748  0.00  0.00    -0.081 HD
ATOM      8  H   UNL     1      -0.834  -4.060   1.369  0.00  0.00    -0.081 HD
ENDROOT
BRANCH   5   9
ATOM      9  C   UNL     1      -3.376  -1.948  -1.256  0.00  0.00    -0.001 A 
ATOM     10  C   UNL     1      -4.586  -2.568  -1.576  0.00  0.00    +0.013 A 
ATOM     11  C   UNL     1      -5.647  -1.816  -2.031  0.00  0.00    +0.050 A 
ATOM     12  C   UNL     1      -5.518  -0.442  -2.175  0.00  0.00    +0.166 A 
ATOM     13  C   UNL     1      -4.313   0.185  -1.858  0.00  0.00    +0.167 A 
ATOM     14  C   UNL     1      -3.247  -0.563  -1.395  0.00  0.00    +0.059 A 
ATOM     15  O   UNL     1      -4.445   1.525  -2.084  0.00  0.00    -0.453 OA
ATOM     16  C   UNL     1      -5.604   1.659  -2.928  0.00  0.00    +0.466 C 
ATOM     17  O   UNL     1      -6.403   0.507  -2.598  0.00  0.00    -0.453 OA
ENDBRANCH   5   9
BRANCH   3  18
ATOM     18  C   UNL     1      -1.210  -6.332  -0.047  0.00  0.00    -0.018 A 
ATOM     19  C   UNL     1      -1.170  -6.654   1.296  0.00  0.00    +0.020 A 
ATOM     20  C   UNL     1      -1.325  -7.969   1.698  0.00  0.00    +0.018 A 
ATOM     21  C   UNL     1      -1.520  -8.963   0.755  0.00  0.00    +0.019 A 
ATOM     22  C   UNL     1      -1.560  -8.645  -0.588  0.00  0.00    +0.047 A 
ATOM     23  C   UNL     1      -1.410  -7.326  -0.992  0.00  0.00    +0.119 A 
ATOM     24 BR   UNL     1      -1.270  -8.407   3.536  0.00  0.00    -0.050 Br
BRANCH  23  25
ATOM     25  O   UNL     1      -1.455  -7.011  -2.314  0.00  0.00    -0.507 OA
ATOM     26  H   UNL     1      -0.594  -7.040  -2.754  0.00  0.00    +0.292 HD
ENDBRANCH  23  25
ENDBRANCH   3  18
BRANCH   1  32
ATOM     27  C   UNL     1       0.626  -0.618   1.042  0.00  0.00    +0.123 A 
ATOM     28  C   UNL     1       1.202   0.139   2.051  0.00  0.00    +0.046 A 
ATOM     29  C   UNL     1       1.835  -0.488   3.107  0.00  0.00    +0.004 A 
ATOM     30  C   UNL     1       1.895  -1.869   3.158  0.00  0.00    +0.000 A 
ATOM     31  C   UNL     1       1.321  -2.625   2.153  0.00  0.00    +0.007 A 
ATOM     32  C   UNL     1       0.682  -2.003   1.097  0.00  0.00    +0.001 A 
BRANCH  27  34
ATOM     33  C   UNL     1      -0.017   1.425   0.010  0.00  0.00    +0.277 C 
ATOM     34  O   UNL     1       0.002  -0.004   0.002  0.00  0.00    -0.495 OA
ENDBRANCH  27  34
ENDBRANCH   1  32
TORSDOF 5
