REMARK  Name = ZINC55552522
REMARK  5 active torsions:
REMARK  status: ('A' for Active; 'I' for Inactive)
REMARK    1  A    between atoms: C_1  and  C_2
REMARK    2  A    between atoms: C_4  and  C_7
REMARK    3  A    between atoms: C_7  and  N_12
REMARK    4  A    between atoms: C_13  and  C_15
REMARK    5  A    between atoms: C_16  and  C_17
REMARK                            x       y       z     vdW  Elec       q    Type
REMARK                         _______ _______ _______ _____ _____    ______ ____
ROOT
ATOM      1  N   UNL     1      -2.557  -3.150   1.086  0.00  0.00    -0.299 N 
ATOM      2  C   UNL     1      -3.390  -2.093   1.150  0.00  0.00    +0.238 C 
ATOM      3  O   UNL     1      -3.337  -1.224   0.299  0.00  0.00    -0.271 OA
ATOM      4  H   UNL     1      -2.598  -3.842   1.764  0.00  0.00    +0.150 HD
ENDROOT
BRANCH   1   5
ATOM      5  C   UNL     1      -1.588  -3.254  -0.008  0.00  0.00    +0.098 C 
ATOM      6  C   UNL     1      -2.315  -3.374  -1.370  0.00  0.00    +0.034 C 
ATOM      7  C   UNL     1      -2.696  -4.874  -1.424  0.00  0.00    +0.003 C 
ATOM      8  C   UNL     1      -1.487  -5.595  -0.793  0.00  0.00    +0.003 C 
ATOM      9  C   UNL     1      -0.782  -4.565   0.107  0.00  0.00    +0.034 C 
BRANCH   5  13
ATOM     10  C   UNL     1      -0.018   1.503   0.010  0.00  0.00    +0.112 C 
ATOM     11  C   UNL     1       0.002  -0.004   0.002  0.00  0.00    +0.224 A 
ATOM     12  N   UNL     1      -1.044  -0.783   0.003  0.00  0.00    -0.194 NA
ATOM     13  C   UNL     1      -0.663  -2.065  -0.006  0.00  0.00    +0.195 A 
ATOM     14  N   UNL     1       0.638  -2.118  -0.012  0.00  0.00    -0.059 NA
ATOM     15  O   UNL     1       1.097  -0.774  -0.013  0.00  0.00    -0.338 OA
ENDBRANCH   5  13
ENDBRANCH   1   5
BRANCH   2  16
ATOM     16  C   UNL     1      -4.358  -1.989   2.243  0.00  0.00    +0.068 C 
ATOM     17  C   UNL     1      -5.192  -0.931   2.307  0.00  0.00    +0.013 C 
BRANCH  17  18
ATOM     18  C   UNL     1      -6.165  -0.827   3.405  0.00  0.00    -0.025 A 
ATOM     19  C   UNL     1      -6.224  -1.820   4.388  0.00  0.00    +0.011 A 
ATOM     20  C   UNL     1      -7.137  -1.716   5.415  0.00  0.00    +0.039 A 
ATOM     21  C   UNL     1      -7.997  -0.630   5.474  0.00  0.00    +0.123 A 
ATOM     22  C   UNL     1      -7.944   0.359   4.503  0.00  0.00    +0.039 A 
ATOM     23  C   UNL     1      -7.031   0.270   3.474  0.00  0.00    +0.011 A 
ATOM     24  F   UNL     1      -8.890  -0.534   6.483  0.00  0.00    -0.205 F 
ENDBRANCH  17  18
ENDBRANCH   2  16
TORSDOF 4
