REMARK  Name = ZINC57322889
REMARK  6 active torsions:
REMARK  status: ('A' for Active; 'I' for Inactive)
REMARK    1  A    between atoms: C_1  and  C_2
REMARK    2  A    between atoms: C_2  and  C_4
REMARK    3  A    between atoms: C_2  and  N_11
REMARK    4  A    between atoms: N_11  and  C_12
REMARK    5  A    between atoms: C_12  and  C_13
REMARK    6  A    between atoms: N_15  and  C_16
REMARK                            x       y       z     vdW  Elec       q    Type
REMARK                         _______ _______ _______ _____ _____    ______ ____
ROOT
ATOM      1  C   UNL     1       4.733  -1.393   1.004  0.00  0.00    +0.231 C 
ATOM      2  O   UNL     1       5.770  -2.016   0.908  0.00  0.00    -0.274 OA
ATOM      3  N   UNL     1       4.198  -1.158   2.218  0.00  0.00    -0.284 N 
ATOM      4  H   UNL     1       3.406  -0.604   2.300  0.00  0.00    +0.155 HD
ENDROOT
BRANCH   3   5
ATOM      5  C   UNL     1       4.785  -1.714   3.362  0.00  0.00    +0.037 A 
ATOM      6  C   UNL     1       3.987  -2.131   4.419  0.00  0.00    +0.027 A 
ATOM      7  C   UNL     1       4.565  -2.680   5.548  0.00  0.00    +0.051 A 
ATOM      8  C   UNL     1       5.941  -2.817   5.628  0.00  0.00    +0.167 A 
ATOM      9  C   UNL     1       6.744  -2.399   4.569  0.00  0.00    +0.169 A 
ATOM     10  C   UNL     1       6.164  -1.853   3.437  0.00  0.00    +0.072 A 
ATOM     11  O   UNL     1       8.050  -2.639   4.890  0.00  0.00    -0.447 OA
ATOM     12  C   UNL     1       8.063  -2.843   6.310  0.00  0.00    +0.254 C 
ATOM     13  O   UNL     1       6.744  -3.318   6.614  0.00  0.00    -0.448 OA
ATOM     14  C   UNL     1       8.334  -1.528   7.032  0.00  0.00    +0.093 C 
ATOM     15  C   UNL     1       9.732  -1.023   6.666  0.00  0.00    +0.008 C 
ATOM     16  C   UNL     1      10.773  -2.069   7.070  0.00  0.00    +0.000 C 
ATOM     17  C   UNL     1      10.501  -3.377   6.324  0.00  0.00    +0.008 C 
ATOM     18  C   UNL     1       9.105  -3.890   6.687  0.00  0.00    +0.093 C 
ENDBRANCH   3   5
BRANCH   1  19
ATOM     19  C   UNL     1       4.044  -0.883  -0.236  0.00  0.00    +0.178 C 
BRANCH  19  20
ATOM     20  N   UNL     1       4.821  -1.268  -1.422  0.00  0.00    -0.302 NA
ATOM     21  H   UNL     1       4.961  -2.267  -1.454  0.00  0.00    +0.123 HD
BRANCH  20  23
ATOM     22  C   UNL     1       3.117  -1.793  -3.100  0.00  0.00    +0.029 C 
ATOM     23  C   UNL     1       4.178  -0.786  -2.651  0.00  0.00    +0.081 C 
BRANCH  23  24
ATOM     24  C   UNL     1       5.215  -0.632  -3.734  0.00  0.00    -0.031 A 
ATOM     25  C   UNL     1       6.213  -1.578  -3.873  0.00  0.00    +0.008 A 
ATOM     26  C   UNL     1       7.165  -1.438  -4.865  0.00  0.00    +0.038 A 
ATOM     27  C   UNL     1       7.117  -0.351  -5.721  0.00  0.00    +0.123 A 
ATOM     28  C   UNL     1       6.117   0.596  -5.581  0.00  0.00    +0.038 A 
ATOM     29  C   UNL     1       5.163   0.451  -4.591  0.00  0.00    +0.008 A 
ATOM     30  F   UNL     1       8.047  -0.213  -6.691  0.00  0.00    -0.205 F 
ENDBRANCH  23  24
ENDBRANCH  20  23
ENDBRANCH  19  20
ENDBRANCH   1  19
TORSDOF 5
