REMARK  Name = ZINC36207300
REMARK  16 active torsions:
REMARK  status: ('A' for Active; 'I' for Inactive)
REMARK    1  A    between atoms: C_1  and  C_2
REMARK    2  A    between atoms: C_2  and  C_3
REMARK    3  A    between atoms: C_9  and  C_18
REMARK    4  A    between atoms: C_13  and  C_14
REMARK    5  A    between atoms: C_14  and  O_16
REMARK    6  A    between atoms: O_16  and  C_17
REMARK    7  A    between atoms: C_18  and  N_19
REMARK    8  A    between atoms: N_19  and  C_20
REMARK    9  A    between atoms: N_19  and  C_26
REMARK   10  A    between atoms: C_20  and  C_21
REMARK   11  A    between atoms: C_26  and  C_27
REMARK   12  A    between atoms: C_27  and  C_29
REMARK   13  A    between atoms: C_27  and  O_38
REMARK   14  A    between atoms: C_29  and  O_30
REMARK   15  A    between atoms: O_30  and  C_31
REMARK   16  A    between atoms: C_36  and  C_37
REMARK                            x       y       z     vdW  Elec       q    Type
REMARK                         _______ _______ _______ _____ _____    ______ ____
ROOT
ATOM      1  N   UNL     1      -0.577  -2.457  -7.031  0.00  0.00    +0.391 N 
ATOM      2  H   UNL     1      -0.221  -3.394  -6.915  0.00  0.00    -0.080 HD
ENDROOT
BRANCH   1   3
ATOM      3  C   UNL     1      -1.596  -2.191  -6.007  0.00  0.00    -0.003 C 
BRANCH   3  10
ATOM      4  C   UNL     1      -5.356  -6.401  -6.284  0.00  0.00    -0.012 A 
ATOM      5  C   UNL     1      -4.506  -5.308  -6.101  0.00  0.00    +0.076 A 
ATOM      6  C   UNL     1      -4.585  -4.219  -5.100  0.00  0.00    +0.260 A 
ATOM      7  O   UNL     1      -5.484  -4.189  -4.279  0.00  0.00    -0.267 OA
ATOM      8  N   UNL     1      -3.635  -3.263  -5.121  0.00  0.00    -0.312 N 
ATOM      9  H   UNL     1      -3.672  -2.543  -4.472  0.00  0.00    +0.170 HD
ATOM     10  C   UNL     1      -2.630  -3.287  -6.030  0.00  0.00    +0.094 A 
ATOM     11  N   UNL     1      -2.531  -4.232  -6.926  0.00  0.00    -0.229 NA
ATOM     12  C   UNL     1      -3.413  -5.221  -6.993  0.00  0.00    +0.116 A 
ATOM     13  S   UNL     1      -3.619  -6.647  -8.030  0.00  0.00    -0.062 S 
ATOM     14  C   UNL     1      -5.097  -7.303  -7.275  0.00  0.00    +0.102 A 
BRANCH   4  16
ATOM     15  C   UNL     1      -6.150  -7.422  -4.169  0.00  0.00    +0.009 C 
ATOM     16  C   UNL     1      -6.552  -6.587  -5.386  0.00  0.00    +0.034 C 
ENDBRANCH   4  16
BRANCH  14  17
ATOM     17  C   UNL     1      -5.848  -8.509  -7.632  0.00  0.00    +0.346 C 
ATOM     18  O   UNL     1      -6.846  -8.811  -7.006  0.00  0.00    -0.244 OA
BRANCH  17  19
ATOM     19  O   UNL     1      -5.432  -9.284  -8.654  0.00  0.00    -0.464 OA
ATOM     20  C   UNL     1      -6.212 -10.445  -8.947  0.00  0.00    +0.280 C 
ENDBRANCH  17  19
ENDBRANCH  14  17
ENDBRANCH   3  10
ENDBRANCH   1   3
BRANCH   1  21
ATOM     21  C   UNL     1       0.523  -1.494  -6.888  0.00  0.00    -0.002 C 
BRANCH  21  22
ATOM     22  C   UNL     1       1.169  -1.665  -5.537  0.00  0.00    +0.089 A 
ATOM     23  C   UNL     1       2.252  -2.417  -5.272  0.00  0.00    +0.042 A 
ATOM     24  C   UNL     1       2.510  -2.290  -3.888  0.00  0.00    +0.041 A 
ATOM     25  C   UNL     1       1.569  -1.468  -3.389  0.00  0.00    +0.195 A 
ATOM     26  O   UNL     1       0.763  -1.088  -4.394  0.00  0.00    -0.470 OA
ENDBRANCH  21  22
ENDBRANCH   1  21
BRANCH   1  27
ATOM     27  C   UNL     1      -1.176  -2.321  -8.365  0.00  0.00    -0.043 C 
BRANCH  27  28
ATOM     28  C   UNL     1      -0.170  -2.775  -9.425  0.00  0.00    +0.135 C 
BRANCH  28  29
ATOM     29  O   UNL     1       0.910  -1.841  -9.486  0.00  0.00    -0.390 OA
ATOM     30  H   UNL     1       0.640  -0.941  -9.715  0.00  0.00    +0.210 HD
ENDBRANCH  28  29
BRANCH  28  31
ATOM     31  C   UNL     1      -0.861  -2.845 -10.788  0.00  0.00    +0.258 C 
BRANCH  31  32
ATOM     32  O   UNL     1       0.046  -3.379 -11.755  0.00  0.00    -0.489 OA
BRANCH  32  33
ATOM     33  C   UNL     1      -0.415  -3.508 -13.027  0.00  0.00    +0.124 A 
ATOM     34  C   UNL     1      -1.711  -3.124 -13.339  0.00  0.00    +0.046 A 
ATOM     35  C   UNL     1      -2.176  -3.256 -14.633  0.00  0.00    +0.004 A 
ATOM     36  C   UNL     1      -1.352  -3.771 -15.616  0.00  0.00    +0.000 A 
ATOM     37  C   UNL     1      -0.060  -4.155 -15.307  0.00  0.00    +0.007 A 
ATOM     38  C   UNL     1       0.412  -4.019 -14.016  0.00  0.00    -0.009 A 
ATOM     39  C   UNL     1       1.822  -4.433 -13.681  0.00  0.00    +0.047 C 
ENDBRANCH  32  33
ENDBRANCH  31  32
ENDBRANCH  28  31
ENDBRANCH  27  28
ENDBRANCH   1  27
TORSDOF 13
