REMARK  Name = ZINC09727049
REMARK  8 active torsions:
REMARK  status: ('A' for Active; 'I' for Inactive)
REMARK    1  A    between atoms: C_1  and  O_2
REMARK    2  A    between atoms: O_2  and  C_3
REMARK    3  A    between atoms: C_3  and  C_5
REMARK    4  A    between atoms: C_5  and  N_6
REMARK    5  A    between atoms: C_10  and  S_28
REMARK    6  A    between atoms: N_15  and  C_16
REMARK    7  A    between atoms: C_16  and  C_18
REMARK    8  A    between atoms: S_28  and  N_31
REMARK                            x       y       z     vdW  Elec       q    Type
REMARK                         _______ _______ _______ _____ _____    ______ ____
ROOT
ATOM      1  N   UNL     1      -3.556  -2.185   0.162  0.00  0.00    -0.310 N 
ATOM      2  C   UNL     1      -4.824  -2.448   0.648  0.00  0.00    +0.058 A 
ATOM      3  C   UNL     1      -5.371  -3.682   1.032  0.00  0.00    +0.029 A 
ATOM      4  C   UNL     1      -6.662  -3.764   1.498  0.00  0.00    +0.030 A 
ATOM      5  C   UNL     1      -7.460  -2.638   1.602  0.00  0.00    +0.106 A 
ATOM      6  C   UNL     1      -6.947  -1.408   1.230  0.00  0.00    +0.045 A 
ATOM      7  C   UNL     1      -5.656  -1.325   0.764  0.00  0.00    +0.041 A 
ATOM      8  S   UNL     1      -4.625   0.006   0.203  0.00  0.00    -0.052 S 
ATOM      9  C   UNL     1      -3.200  -0.913  -0.161  0.00  0.00    +0.167 A 
ATOM     10  N   UNL     1      -2.038  -0.478  -0.636  0.00  0.00    -0.152 NA
ENDROOT
BRANCH   5  11
ATOM     11  S   UNL     1      -9.112  -2.769   2.202  0.00  0.00    +0.056 S 
ATOM     12  O   UNL     1      -9.821  -1.651   1.686  0.00  0.00    -0.153 OA
ATOM     13  O   UNL     1      -9.525  -4.108   1.965  0.00  0.00    -0.153 OA
BRANCH  11  14
ATOM     14  N   UNL     1      -9.053  -2.576   3.845  0.00  0.00    -0.204 NA
ATOM     15  H   UNL     1      -8.203  -2.423   4.286  0.00  0.00    +0.144 HD
ATOM     16  H   UNL     1      -9.870  -2.615   4.368  0.00  0.00    +0.144 HD
ENDBRANCH  11  14
ENDBRANCH   5  11
BRANCH  10  17
ATOM     17  C   UNL     1      -1.867   0.822  -0.898  0.00  0.00    +0.269 C 
ATOM     18  O   UNL     1      -2.778   1.608  -0.702  0.00  0.00    -0.268 OA
BRANCH  17  19
ATOM     19  C   UNL     1      -0.572   1.306  -1.428  0.00  0.00    +0.039 A 
ATOM     20  C   UNL     1       0.475   0.395  -1.652  0.00  0.00    +0.014 A 
ATOM     21  C   UNL     1       1.669   0.813  -2.142  0.00  0.00    +0.009 A 
ATOM     22  C   UNL     1       1.875   2.175  -2.427  0.00  0.00    -0.018 A 
ATOM     23  C   UNL     1       3.102   2.633  -2.935  0.00  0.00    +0.008 A 
ATOM     24  C   UNL     1       3.271   3.957  -3.202  0.00  0.00    +0.001 A 
ATOM     25  C   UNL     1       2.242   4.871  -2.979  0.00  0.00    +0.001 A 
ATOM     26  C   UNL     1       1.040   4.465  -2.488  0.00  0.00    +0.008 A 
ATOM     27  C   UNL     1       0.828   3.105  -2.200  0.00  0.00    -0.017 A 
ATOM     28  C   UNL     1      -0.399   2.653  -1.693  0.00  0.00    +0.021 A 
ENDBRANCH  17  19
ENDBRANCH  10  17
BRANCH   1  29
ATOM     29  C   UNL     1      -2.596  -3.279  -0.004  0.00  0.00    +0.244 C 
BRANCH  29  30
ATOM     30  C   UNL     1      -1.841  -3.092  -1.295  0.00  0.00    +0.327 C 
ATOM     31  O   UNL     1      -2.189  -2.243  -2.081  0.00  0.00    -0.249 OA
BRANCH  30  33
ATOM     32  C   UNL     1      -0.103  -3.633  -2.833  0.00  0.00    +0.280 C 
ATOM     33  O   UNL     1      -0.782  -3.869  -1.572  0.00  0.00    -0.467 OA
ENDBRANCH  30  33
ENDBRANCH  29  30
ENDBRANCH   1  29
TORSDOF 7
