REMARK  Name = ZINC17061249
REMARK  11 active torsions:
REMARK  status: ('A' for Active; 'I' for Inactive)
REMARK    1  A    between atoms: C_1  and  C_2
REMARK    2  A    between atoms: C_2  and  O_3
REMARK    3  A    between atoms: O_3  and  C_4
REMARK    4  A    between atoms: C_7  and  C_12
REMARK    5  A    between atoms: C_9  and  O_10
REMARK    6  A    between atoms: O_10  and  C_11
REMARK    7  A    between atoms: N_14  and  C_15
REMARK    8  A    between atoms: C_15  and  C_16
REMARK    9  A    between atoms: C_16  and  N_17
REMARK   10  A    between atoms: C_21  and  C_22
REMARK   11  A    between atoms: C_25  and  C_28
REMARK                            x       y       z     vdW  Elec       q    Type
REMARK                         _______ _______ _______ _____ _____    ______ ____
ROOT
ATOM      1  C   UNL     1       0.595   2.893   0.107  0.00  0.00    +0.124 C 
ENDROOT
BRANCH   1   4
ATOM      2  C   UNL     1      -0.850   0.943   0.315  0.00  0.00    +0.244 C 
ATOM      3  O   UNL     1       0.132   0.280   0.585  0.00  0.00    -0.270 OA
ATOM      4  N   UNL     1      -0.725   2.260   0.059  0.00  0.00    -0.310 N 
ATOM      5  H   UNL     1      -1.509   2.788  -0.160  0.00  0.00    +0.149 HD
BRANCH   2   9
ATOM      6  C   UNL     1      -4.683  -0.889   0.174  0.00  0.00    +0.162 A 
ATOM      7  C   UNL     1      -4.552   0.468  -0.088  0.00  0.00    +0.050 A 
ATOM      8  C   UNL     1      -3.311   1.065  -0.044  0.00  0.00    +0.017 A 
ATOM      9  C   UNL     1      -2.181   0.305   0.267  0.00  0.00    +0.040 A 
ATOM     10  C   UNL     1      -2.311  -1.062   0.525  0.00  0.00    +0.062 A 
ATOM     11  C   UNL     1      -3.559  -1.653   0.485  0.00  0.00    +0.162 A 
BRANCH  11  12
ATOM     12  O   UNL     1      -3.691  -2.982   0.742  0.00  0.00    -0.491 OA
ATOM     13  C   UNL     1      -2.497  -3.704   1.053  0.00  0.00    +0.277 C 
ENDBRANCH  11  12
BRANCH   6  14
ATOM     14  O   UNL     1      -5.908  -1.473   0.129  0.00  0.00    -0.489 OA
BRANCH  14  16
ATOM     15  C   UNL     1      -8.302  -1.460  -0.200  0.00  0.00    +0.048 C 
ATOM     16  C   UNL     1      -7.016  -0.631  -0.196  0.00  0.00    +0.226 C 
ENDBRANCH  14  16
ENDBRANCH   6  14
ENDBRANCH   2   9
ENDBRANCH   1   4
BRANCH   1  17
ATOM     17  C   UNL     1       0.459   4.382  -0.219  0.00  0.00    +0.136 C 
BRANCH  17  18
ATOM     18  N   UNL     1       1.779   5.015  -0.172  0.00  0.00    -0.227 N 
ATOM     19  C   UNL     1       2.513   5.063  -1.271  0.00  0.00    +0.260 C 
ATOM     20  O   UNL     1       2.120   4.593  -2.323  0.00  0.00    -0.269 OA
ATOM     21  C   UNL     1       3.835   5.715  -1.156  0.00  0.00    +0.080 C 
ATOM     22  C   UNL     1       4.788   5.908  -2.100  0.00  0.00    +0.028 C 
ATOM     23  S   UNL     1       3.830   6.179   0.570  0.00  0.00    -0.026 S 
ATOM     24  C   UNL     1       2.216   5.541   0.991  0.00  0.00    +0.286 C 
ATOM     25  O   UNL     1       1.649   5.571   2.066  0.00  0.00    -0.262 OA
BRANCH  22  26
ATOM     26  C   UNL     1       5.965   6.735  -1.798  0.00  0.00    -0.024 A 
ATOM     27  C   UNL     1       6.022   7.471  -0.609  0.00  0.00    +0.008 A 
ATOM     28  C   UNL     1       7.131   8.240  -0.330  0.00  0.00    +0.004 A 
ATOM     29  C   UNL     1       8.184   8.294  -1.228  0.00  0.00    -0.050 A 
ATOM     30  C   UNL     1       8.134   7.573  -2.409  0.00  0.00    +0.004 A 
ATOM     31  C   UNL     1       7.034   6.795  -2.700  0.00  0.00    +0.008 A 
ATOM     32  C   UNL     1       9.390   9.141  -0.917  0.00  0.00    +0.044 C 
ENDBRANCH  22  26
ENDBRANCH  17  18
ENDBRANCH   1  17
TORSDOF 8
