REMARK  Name = ZINC20911436
REMARK  14 active torsions:
REMARK  status: ('A' for Active; 'I' for Inactive)
REMARK    1  A    between atoms: C_1  and  C_2
REMARK    2  A    between atoms: C_3  and  C_11
REMARK    3  A    between atoms: C_4  and  C_10
REMARK    4  A    between atoms: N_5  and  C_7
REMARK    5  A    between atoms: C_7  and  C_8
REMARK    6  A    between atoms: C_7  and  C_9
REMARK    7  A    between atoms: N_12  and  N_13
REMARK    8  A    between atoms: C_17  and  S_20
REMARK    9  A    between atoms: N_18  and  N_19
REMARK   10  A    between atoms: S_20  and  C_21
REMARK   11  A    between atoms: C_21  and  C_22
REMARK   12  A    between atoms: N_24  and  C_25
REMARK   13  A    between atoms: C_30  and  O_31
REMARK   14  A    between atoms: O_31  and  C_32
REMARK                            x       y       z     vdW  Elec       q    Type
REMARK                         _______ _______ _______ _____ _____    ______ ____
ROOT
ATOM      1  N   UNL     1      -0.849   2.199   2.171  0.00  0.00    -0.204 N 
ATOM      2  C   UNL     1       0.233   1.394   1.845  0.00  0.00    +0.254 A 
ATOM      3  N   UNL     1       1.384   1.804   1.370  0.00  0.00    -0.109 NA
ATOM      4  N   UNL     1       2.195   0.679   1.171  0.00  0.00    -0.119 NA
ATOM      5  C   UNL     1       1.513  -0.381   1.531  0.00  0.00    +0.210 A 
ATOM      6  N   UNL     1       0.283   0.032   1.957  0.00  0.00    -0.211 N 
ATOM      7  H   UNL     1      -1.773   1.748   2.560  0.00  0.00    +0.177 HD
ENDROOT
BRANCH   6   8
ATOM      8  N   UNL     1      -0.721  -0.773   2.415  0.00  0.00    -0.294 N 
ATOM      9  H   UNL     1      -0.573  -1.862   2.464  0.00  0.00    +0.163 HD
ATOM     10  H   UNL     1      -1.677  -0.333   2.735  0.00  0.00    +0.163 HD
ENDBRANCH   6   8
BRANCH   1  12
ATOM     11  C   UNL     1      -1.774   4.342   2.311  0.00  0.00    +0.141 C 
ATOM     12  N   UNL     1      -0.763   3.588   2.006  0.00  0.00    -0.187 NA
BRANCH  11  15
ATOM     13  C   UNL     1       0.746   5.927   1.218  0.00  0.00    +0.068 C 
ATOM     14  C   UNL     1      -0.569   6.522   1.651  0.00  0.00    +0.069 A 
ATOM     15  C   UNL     1      -1.683   5.805   2.137  0.00  0.00    +0.038 A 
ATOM     16  C   UNL     1      -2.673   6.723   2.412  0.00  0.00    +0.045 A 
ATOM     17  N   UNL     1      -2.183   7.944   2.117  0.00  0.00    -0.265 N 
ATOM     18  N   UNL     1      -0.875   7.792   1.643  0.00  0.00    -0.175 NA
ATOM     19  C   UNL     1      -4.049   6.419   2.948  0.00  0.00    +0.066 C 
BRANCH  17  20
ATOM     20  C   UNL     1      -2.900   9.214   2.262  0.00  0.00    +0.101 C 
ATOM     21  C   UNL     1      -2.137  10.122   3.228  0.00  0.00    +0.032 C 
ATOM     22  C   UNL     1      -3.009   9.897   0.897  0.00  0.00    +0.032 C 
ENDBRANCH  17  20
ENDBRANCH  11  15
ENDBRANCH   1  12
BRANCH   5  23
ATOM     23  S   UNL     1       2.084  -2.047   1.475  0.00  0.00    -0.075 S 
BRANCH  23  24
ATOM     24  C   UNL     1       3.772  -1.912   0.824  0.00  0.00    +0.173 C 
BRANCH  24  25
ATOM     25  C   UNL     1       4.383  -3.285   0.724  0.00  0.00    +0.228 C 
ATOM     26  O   UNL     1       3.744  -4.260   1.060  0.00  0.00    -0.275 OA
ATOM     27  N   UNL     1       5.641  -3.431   0.262  0.00  0.00    -0.282 N 
ATOM     28  H   UNL     1       6.215  -2.548  -0.058  0.00  0.00    +0.155 HD
BRANCH  27  29
ATOM     29  C   UNL     1       6.218  -4.706   0.188  0.00  0.00    +0.076 A 
ATOM     30  C   UNL     1       5.411  -5.835   0.190  0.00  0.00    +0.027 A 
ATOM     31  C   UNL     1       5.982  -7.091   0.117  0.00  0.00    +0.002 A 
ATOM     32  C   UNL     1       7.356  -7.227   0.043  0.00  0.00    +0.004 A 
ATOM     33  C   UNL     1       8.166  -6.107   0.041  0.00  0.00    +0.048 A 
ATOM     34  C   UNL     1       7.602  -4.843   0.108  0.00  0.00    +0.150 A 
BRANCH  34  35
ATOM     35  O   UNL     1       8.397  -3.740   0.101  0.00  0.00    -0.454 OA
BRANCH  35  36
ATOM     36  C   UNL     1       8.697  -3.163   1.294  0.00  0.00    +0.129 A 
ATOM     37  C   UNL     1       8.111  -3.632   2.461  0.00  0.00    +0.046 A 
ATOM     38  C   UNL     1       8.422  -3.046   3.672  0.00  0.00    +0.004 A 
ATOM     39  C   UNL     1       9.309  -1.987   3.722  0.00  0.00    +0.000 A 
ATOM     40  C   UNL     1       9.890  -1.514   2.560  0.00  0.00    +0.004 A 
ATOM     41  C   UNL     1       9.587  -2.099   1.347  0.00  0.00    +0.046 A 
ENDBRANCH  35  36
ENDBRANCH  34  35
ENDBRANCH  27  29
ENDBRANCH  24  25
ENDBRANCH  23  24
ENDBRANCH   5  23
TORSDOF 10
