REMARK  Name = ZINC13065252
REMARK  16 active torsions:
REMARK  status: ('A' for Active; 'I' for Inactive)
REMARK    1  A    between atoms: C_1  and  C_2
REMARK    2  A    between atoms: C_2  and  C_3
REMARK    3  A    between atoms: C_3  and  C_5
REMARK    4  A    between atoms: C_3  and  N_74
REMARK    5  A    between atoms: N_9  and  C_10
REMARK    6  A    between atoms: C_10  and  C_11
REMARK    7  A    between atoms: C_10  and  C_12
REMARK    8  A    between atoms: C_10  and  C_13
REMARK    9  A    between atoms: C_13  and  C_14
REMARK   10  A    between atoms: C_15  and  C_16
REMARK   11  A    between atoms: C_15  and  N_74
REMARK   12  A    between atoms: C_19  and  C_22
REMARK   13  A    between atoms: C_23  and  C_24
REMARK   14  A    between atoms: C_23  and  N_74
REMARK   15  A    between atoms: C_27  and  C_37
REMARK   16  A    between atoms: C_30  and  C_36
REMARK                            x       y       z     vdW  Elec       q    Type
REMARK                         _______ _______ _______ _____ _____    ______ ____
ROOT
ATOM      1  N   UNL     1       0.764  -1.048   4.111  0.00  0.00    +0.392 N 
ATOM      2  H   UNL     1       0.033  -1.748   3.934  0.00  0.00    -0.080 HD
ENDROOT
BRANCH   1   3
ATOM      3  C   UNL     1       0.854  -0.143   2.946  0.00  0.00    +0.003 C 
BRANCH   3   4
ATOM      4  C   UNL     1      -0.533   0.077   2.399  0.00  0.00    +0.139 A 
ATOM      5  N   UNL     1      -1.638   0.197   3.094  0.00  0.00    -0.115 NA
ATOM      6  N   UNL     1      -2.612   0.368   2.267  0.00  0.00    -0.023 NA
ATOM      7  N   UNL     1      -2.156   0.365   1.063  0.00  0.00    -0.043 NA
ATOM      8  N   UNL     1      -0.878   0.191   1.103  0.00  0.00    -0.225 N 
BRANCH   8   9
ATOM      9  C   UNL     1       0.027   0.124  -0.047  0.00  0.00    +0.061 C 
ATOM     10  C   UNL     1       0.626  -1.281  -0.144  0.00  0.00    +0.036 C 
ATOM     11  C   UNL     1       1.152   1.147   0.129  0.00  0.00    +0.036 C 
BRANCH   9  12
ATOM     12  C   UNL     1      -0.750   0.437  -1.327  0.00  0.00    +0.026 C 
ATOM     13  C   UNL     1       0.195   0.367  -2.528  0.00  0.00    +0.006 C 
ENDBRANCH   9  12
ENDBRANCH   8   9
ENDBRANCH   3   4
BRANCH   3  15
ATOM     14  C   UNL     1       2.861   0.975   3.928  0.00  0.00    +0.002 C 
ATOM     15  C   UNL     1       1.458   1.200   3.358  0.00  0.00    -0.011 C 
ENDBRANCH   3  15
ENDBRANCH   1   3
BRANCH   1  16
ATOM     16  C   UNL     1       2.054  -1.742   4.312  0.00  0.00    -0.042 C 
BRANCH  16  17
ATOM     17  C   UNL     1       2.212  -2.789   3.240  0.00  0.00    -0.064 A 
ATOM     18  C   UNL     1       1.519  -3.981   3.330  0.00  0.00    +0.002 A 
ATOM     19  C   UNL     1       1.661  -4.940   2.345  0.00  0.00    +0.003 A 
ATOM     20  C   UNL     1       2.505  -4.711   1.274  0.00  0.00    -0.050 A 
ATOM     21  C   UNL     1       3.202  -3.520   1.186  0.00  0.00    +0.003 A 
ATOM     22  C   UNL     1       3.057  -2.560   2.170  0.00  0.00    +0.002 A 
ATOM     23  C   UNL     1       2.663  -5.758   0.202  0.00  0.00    +0.044 C 
ENDBRANCH  16  17
ENDBRANCH   1  16
BRANCH   1  24
ATOM     24  C   UNL     1       0.410  -0.279   5.322  0.00  0.00    -0.036 C 
BRANCH  24  25
ATOM     25  C   UNL     1      -1.082  -0.066   5.338  0.00  0.00    +0.001 A 
ATOM     26  C   UNL     1      -1.913  -1.120   5.526  0.00  0.00    +0.017 A 
ATOM     27  C   UNL     1      -3.357  -0.878   5.541  0.00  0.00    +0.002 A 
ATOM     28  C   UNL     1      -4.264  -1.925   5.737  0.00  0.00    -0.041 A 
ATOM     29  C   UNL     1      -5.606  -1.667   5.741  0.00  0.00    +0.004 A 
ATOM     30  C   UNL     1      -6.077  -0.375   5.553  0.00  0.00    +0.005 A 
ATOM     31  C   UNL     1      -5.202   0.672   5.357  0.00  0.00    -0.026 A 
ATOM     32  C   UNL     1      -3.832   0.433   5.349  0.00  0.00    +0.052 A 
ATOM     33  N   UNL     1      -2.933   1.461   5.157  0.00  0.00    -0.322 N 
ATOM     34  H   UNL     1      -3.262   2.364   5.025  0.00  0.00    +0.169 HD
ATOM     35  C   UNL     1      -1.609   1.230   5.150  0.00  0.00    +0.251 A 
ATOM     36  O   UNL     1      -0.844   2.163   4.977  0.00  0.00    -0.268 OA
ATOM     37  C   UNL     1      -5.728   2.069   5.154  0.00  0.00    +0.046 C 
ATOM     38  C   UNL     1      -3.764  -3.331   5.944  0.00  0.00    +0.044 C 
ENDBRANCH  24  25
ENDBRANCH   1  24
TORSDOF 9
