REMARK  Name = ZINC39464345
REMARK  6 active torsions:
REMARK  status: ('A' for Active; 'I' for Inactive)
REMARK    1  A    between atoms: C_1  and  S_2
REMARK    2  A    between atoms: S_2  and  C_3
REMARK    3  A    between atoms: C_8  and  C_9
REMARK    4  A    between atoms: C_14  and  O_15
REMARK    5  A    between atoms: P_20  and  C_26
REMARK    6  A    between atoms: C_31  and  O_32
REMARK                            x       y       z     vdW  Elec       q    Type
REMARK                         _______ _______ _______ _____ _____    ______ ____
ROOT
ATOM      1  C   UNL     1      -1.702  -0.454   0.016  0.00  0.00    +0.016 A 
ATOM      2  C   UNL     1      -2.683   0.526   0.025  0.00  0.00    +0.019 A 
ATOM      3  C   UNL     1      -4.023   0.177   0.036  0.00  0.00    -0.040 A 
ATOM      4  C   UNL     1      -4.396  -1.153   0.037  0.00  0.00    -0.023 A 
ATOM      5  C   UNL     1      -3.424  -2.141   0.028  0.00  0.00    +0.015 A 
ATOM      6  C   UNL     1      -2.075  -1.803   0.012  0.00  0.00    -0.001 A 
ATOM      7  C   UNL     1      -5.840  -1.579   0.046  0.00  0.00    +0.129 C 
ATOM      8  C   UNL     1      -6.010  -2.746   1.022  0.00  0.00    +0.194 C 
ATOM      9  O   UNL     1      -7.368  -3.224   0.938  0.00  0.00    -0.311 OA
ATOM     10  P   UNL     1      -8.575  -2.140   1.046  0.00  0.00    +0.318 P 
ATOM     11  O   UNL     1      -9.799  -2.672   0.408  0.00  0.00    -0.266 OA
ATOM     12  N   UNL     1      -8.043  -0.801   0.234  0.00  0.00    -0.175 NA
ATOM     13  N   UNL     1      -6.717  -0.469   0.422  0.00  0.00    -0.225 NA
ATOM     14  C   UNL     1      -6.405   0.735  -0.364  0.00  0.00    +0.108 C 
ATOM     15  C   UNL     1      -5.051   1.280   0.048  0.00  0.00    +0.052 C 
ATOM     16  H   UNL     1      -8.635  -0.280  -0.331  0.00  0.00    +0.151 HD
ENDROOT
BRANCH   6  17
ATOM     17  C   UNL     1      -1.040  -2.864  -0.003  0.00  0.00    +0.025 A 
ATOM     18  C   UNL     1      -0.922  -3.712  -1.103  0.00  0.00    +0.012 A 
ATOM     19  C   UNL     1       0.044  -4.697  -1.112  0.00  0.00    +0.001 A 
ATOM     20  C   UNL     1       0.896  -4.848  -0.032  0.00  0.00    +0.004 A 
ATOM     21  C   UNL     1       0.787  -4.014   1.065  0.00  0.00    +0.046 A 
ATOM     22  C   UNL     1      -0.174  -3.016   1.085  0.00  0.00    +0.125 A 
BRANCH  22  23
ATOM     23  O   UNL     1      -0.278  -2.191   2.159  0.00  0.00    -0.506 OA
ATOM     24  H   UNL     1      -0.878  -2.513   2.846  0.00  0.00    +0.292 HD
ENDBRANCH  22  23
ENDBRANCH   6  17
BRANCH  10  25
ATOM     25  C   UNL     1      -8.900  -1.735   2.784  0.00  0.00    +0.094 A 
ATOM     26  C   UNL     1      -8.233  -0.686   3.386  0.00  0.00    +0.018 A 
ATOM     27  C   UNL     1      -8.480  -0.377   4.711  0.00  0.00    +0.001 A 
ATOM     28  C   UNL     1      -9.396  -1.117   5.436  0.00  0.00    +0.004 A 
ATOM     29  C   UNL     1     -10.066  -2.167   4.839  0.00  0.00    +0.046 A 
ATOM     30  C   UNL     1      -9.824  -2.475   3.508  0.00  0.00    +0.131 A 
BRANCH  30  31
ATOM     31  O   UNL     1     -10.486  -3.504   2.916  0.00  0.00    -0.506 OA
ATOM     32  H   UNL     1     -10.037  -4.357   2.994  0.00  0.00    +0.292 HD
ENDBRANCH  30  31
ENDBRANCH  10  25
BRANCH   1  34
ATOM     33  C   UNL     1      -0.022   1.810   0.012  0.00  0.00    +0.090 C 
ATOM     34  S   UNL     1       0.002  -0.004   0.002  0.00  0.00    -0.128 S 
ENDBRANCH   1  34
TORSDOF 5
