REMARK  Name = ZINC63479926
REMARK  6 active torsions:
REMARK  status: ('A' for Active; 'I' for Inactive)
REMARK    1  A    between atoms: C_1  and  C_2
REMARK    2  A    between atoms: C_13  and  C_16
REMARK    3  A    between atoms: C_16  and  C_17
REMARK    4  A    between atoms: N_28  and  C_31
REMARK    5  A    between atoms: C_35  and  O_37
REMARK    6  A    between atoms: O_37  and  C_38
REMARK                            x       y       z     vdW  Elec       q    Type
REMARK                         _______ _______ _______ _____ _____    ______ ____
ROOT
ATOM      1  C   UNL     1      -0.162   1.496   0.044  0.00  0.00    +0.044 C 
ATOM      2  C   UNL     1      -0.323  -0.002   0.106  0.00  0.00    -0.050 A 
ATOM      3  C   UNL     1      -0.607  -0.716  -1.044  0.00  0.00    +0.005 A 
ATOM      4  C   UNL     1      -0.754  -2.086  -0.994  0.00  0.00    +0.024 A 
ATOM      5  C   UNL     1      -0.617  -2.762   0.216  0.00  0.00    +0.039 A 
ATOM      6  C   UNL     1      -0.332  -2.033   1.366  0.00  0.00    +0.004 A 
ATOM      7  C   UNL     1      -0.180  -0.666   1.311  0.00  0.00    +0.011 A 
ATOM      8  C   UNL     1      -0.249  -3.039   2.480  0.00  0.00    +0.136 C 
ATOM      9  C   UNL     1       1.124  -3.010   3.162  0.00  0.00    +0.123 C 
ATOM     10  C   UNL     1       0.910  -2.143   4.434  0.00  0.00    +0.107 C 
ATOM     11  C   UNL     1      -0.570  -1.710   4.375  0.00  0.00    +0.072 C 
ATOM     12  N   UNL     1      -1.234  -2.755   3.540  0.00  0.00    -0.295 NA
ATOM     13  C   UNL     1       1.114  -3.126   5.565  0.00  0.00    +0.232 C 
ATOM     14  O   UNL     1       1.026  -2.863   6.745  0.00  0.00    -0.274 OA
ATOM     15  N   UNL     1       1.406  -4.330   5.060  0.00  0.00    -0.210 N 
ATOM     16  C   UNL     1       1.448  -4.383   3.709  0.00  0.00    +0.233 C 
ATOM     17  O   UNL     1       1.700  -5.362   3.039  0.00  0.00    -0.274 OA
ATOM     18  C   UNL     1      -0.513  -4.368   1.827  0.00  0.00    +0.243 C 
ATOM     19  O   UNL     1      -0.536  -5.451   2.373  0.00  0.00    -0.273 OA
ATOM     20  N   UNL     1      -0.718  -4.122   0.518  0.00  0.00    -0.283 N 
ATOM     21  H   UNL     1      -2.096  -2.405   3.148  0.00  0.00    +0.124 HD
ATOM     22  H   UNL     1      -0.913  -4.809  -0.138  0.00  0.00    +0.155 HD
ENDROOT
BRANCH  15  23
ATOM     23  C   UNL     1       1.655  -5.450   5.866  0.00  0.00    +0.047 A 
ATOM     24  C   UNL     1       0.630  -6.003   6.623  0.00  0.00    +0.024 A 
ATOM     25  C   UNL     1       0.875  -7.106   7.417  0.00  0.00    +0.005 A 
ATOM     26  C   UNL     1       2.140  -7.662   7.461  0.00  0.00    +0.046 A 
ATOM     27  C   UNL     1       3.168  -7.113   6.707  0.00  0.00    +0.122 A 
ATOM     28  C   UNL     1       2.924  -6.009   5.904  0.00  0.00    +0.069 A 
BRANCH  27  29
ATOM     29  O   UNL     1       4.411  -7.660   6.752  0.00  0.00    -0.495 OA
ATOM     30  C   UNL     1       4.589  -8.799   7.596  0.00  0.00    +0.277 C 
ENDBRANCH  27  29
ENDBRANCH  15  23
BRANCH  11  31
ATOM     31  C   UNL     1      -1.179  -1.703   5.779  0.00  0.00    +0.052 C 
BRANCH  31  32
ATOM     32  C   UNL     1      -2.583  -1.161   5.714  0.00  0.00    -0.040 C 
ATOM     33  C   UNL     1      -3.727  -1.877   5.620  0.00  0.00    -0.001 A 
ATOM     34  C   UNL     1      -3.996  -3.318   5.550  0.00  0.00    +0.010 A 
ATOM     35  C   UNL     1      -5.276  -3.743   5.457  0.00  0.00    +0.001 A 
ATOM     36  C   UNL     1      -6.351  -2.844   5.425  0.00  0.00    +0.002 A 
ATOM     37  C   UNL     1      -6.184  -1.506   5.485  0.00  0.00    +0.026 A 
ATOM     38  C   UNL     1      -4.879  -0.948   5.585  0.00  0.00    +0.043 A 
ATOM     39  N   UNL     1      -4.464   0.293   5.655  0.00  0.00    -0.380 N 
ATOM     40  C   UNL     1      -3.000   0.292   5.749  0.00  0.00    +0.144 C 
ATOM     41  H   UNL     1      -5.030   1.081   5.651  0.00  0.00    +0.160 HD
ENDBRANCH  31  32
ENDBRANCH  11  31
TORSDOF 4
