REMARK  Name = ZINC62498032
REMARK  8 active torsions:
REMARK  status: ('A' for Active; 'I' for Inactive)
REMARK    1  A    between atoms: C_1  and  C_2
REMARK    2  A    between atoms: C_2  and  N_3
REMARK    3  A    between atoms: C_5  and  C_15
REMARK    4  A    between atoms: C_12  and  O_14
REMARK    5  A    between atoms: C_15  and  C_16
REMARK    6  A    between atoms: C_19  and  N_22
REMARK    7  A    between atoms: N_22  and  C_23
REMARK    8  A    between atoms: N_22  and  C_24
REMARK                            x       y       z     vdW  Elec       q    Type
REMARK                         _______ _______ _______ _____ _____    ______ ____
ROOT
ATOM      1  N   UNL     1      -1.384  -0.536  -0.008  0.00  0.00    -0.324 N 
ATOM      2  C   UNL     1      -2.083  -0.787   1.264  0.00  0.00    +0.150 C 
ATOM      3  C   UNL     1      -3.522  -0.275   1.112  0.00  0.00    +0.195 C 
ATOM      4  O   UNL     1      -4.139  -0.953   0.015  0.00  0.00    -0.485 OA
ATOM      5  C   UNL     1      -3.461  -1.002  -1.162  0.00  0.00    +0.145 A 
ATOM      6  C   UNL     1      -2.086  -0.794  -1.200  0.00  0.00    +0.072 A 
ATOM      7  C   UNL     1      -1.407  -0.846  -2.406  0.00  0.00    +0.030 A 
ATOM      8  C   UNL     1      -2.099  -1.096  -3.578  0.00  0.00    +0.047 A 
ATOM      9  C   UNL     1      -3.470  -1.296  -3.544  0.00  0.00    +0.120 A 
ATOM     10  C   UNL     1      -4.148  -1.257  -2.338  0.00  0.00    +0.093 A 
ENDROOT
BRANCH   1  12
ATOM     11  C   UNL     1      -0.030   1.500  -0.040  0.00  0.00    +0.024 C 
ATOM     12  C   UNL     1      -0.010  -0.030  -0.032  0.00  0.00    +0.102 C 
ENDBRANCH   1  12
BRANCH   9  13
ATOM     13  O   UNL     1      -4.149  -1.541  -4.696  0.00  0.00    -0.507 OA
ATOM     14  H   UNL     1      -4.216  -2.479  -4.921  0.00  0.00    +0.292 HD
ENDBRANCH   9  13
BRANCH   3  15
ATOM     15  C   UNL     1      -4.304  -0.554   2.397  0.00  0.00    +0.081 C 
BRANCH  15  16
ATOM     16  C   UNL     1      -5.678   0.057   2.292  0.00  0.00    -0.044 A 
ATOM     17  C   UNL     1      -5.888   1.357   2.713  0.00  0.00    +0.005 A 
ATOM     18  C   UNL     1      -7.146   1.921   2.619  0.00  0.00    +0.023 A 
ATOM     19  C   UNL     1      -8.199   1.180   2.099  0.00  0.00    +0.029 A 
ATOM     20  C   UNL     1      -7.984  -0.126   1.676  0.00  0.00    +0.023 A 
ATOM     21  C   UNL     1      -6.723  -0.681   1.768  0.00  0.00    +0.005 A 
BRANCH  19  22
ATOM     22  N   UNL     1      -9.472   1.747   2.002  0.00  0.00    -0.336 N 
ATOM     23  C   UNL     1      -9.727   3.076   2.562  0.00  0.00    +0.129 C 
ATOM     24  C   UNL     1     -10.553   1.012   1.339  0.00  0.00    +0.129 C 
ENDBRANCH  19  22
ENDBRANCH  15  16
ENDBRANCH   3  15
TORSDOF 5
