REMARK  Name = ZINC13237300
REMARK  7 active torsions:
REMARK  status: ('A' for Active; 'I' for Inactive)
REMARK    1  A    between atoms: CG_7  and  CB_11
REMARK    2  A    between atoms: CB_11  and  CA_12
REMARK    3  A    between atoms: CA_12  and  C_14
REMARK    4  A    between atoms: CA_12  and  N_16
REMARK    5  A    between atoms: N_19  and  C_20
REMARK    6  A    between atoms: C_20  and  C_21
REMARK    7  A    between atoms: N_23  and  C_24
REMARK                            x       y       z     vdW  Elec       q    Type
REMARK                         _______ _______ _______ _____ _____    ______ ____
ROOT
ATOM      1  N   TRP A   1      -0.011   0.966   0.007  0.00  0.00    -0.286 N 
ATOM      2  C   UNK A   0       1.147   1.655   0.000  0.00  0.00    +0.301 C 
ATOM      3  O   UNK A   0       1.130   2.871   0.007  0.00  0.00    -0.253 OA
ATOM      4  N   UNK A   0       2.323   0.998  -0.015  0.00  0.00    -0.291 N 
ATOM      5  H   TRP A   1       0.002  -0.004   0.002  0.00  0.00    +0.151 HD
ATOM      6  H   UNK A   0       2.336   0.028  -0.020  0.00  0.00    +0.151 HD
ENDROOT
BRANCH   1   7
ATOM      7  CA  TRP A   1      -1.290   1.681   0.017  0.00  0.00    +0.192 C 
BRANCH   7   8
ATOM      8  C   TRP A   1      -1.661   2.027   1.436  0.00  0.00    +0.376 C 
ATOM      9  O   TRP A   1      -0.932   1.708   2.346  0.00  0.00    -0.244 OA
ATOM     10  OXT TRP A   1      -2.801   2.688   1.690  0.00  0.00    -0.244 OA
ENDBRANCH   7   8
BRANCH   7  11
ATOM     11  CB  TRP A   1      -2.376   0.792  -0.592  0.00  0.00    +0.071 C 
BRANCH  11  18
ATOM     12  CZ3 TRP A   1       0.319  -2.332  -2.817  0.00  0.00    +0.001 A 
ATOM     13  CH2 TRP A   1       0.299  -2.178  -4.197  0.00  0.00    +0.002 A 
ATOM     14  CZ2 TRP A   1      -0.458  -1.187  -4.782  0.00  0.00    +0.026 A 
ATOM     15  CE2 TRP A   1      -1.210  -0.331  -3.985  0.00  0.00    +0.047 A 
ATOM     16  CD2 TRP A   1      -1.187  -0.491  -2.588  0.00  0.00    +0.003 A 
ATOM     17  CE3 TRP A   1      -0.413  -1.502  -2.015  0.00  0.00    +0.010 A 
ATOM     18  CG  TRP A   1      -2.067   0.548  -2.047  0.00  0.00    -0.020 A 
ATOM     19  CD1 TRP A   1      -2.551   1.236  -3.092  0.00  0.00    +0.087 A 
ATOM     20  NE1 TRP A   1      -2.046   0.729  -4.259  0.00  0.00    -0.360 N 
ATOM     21  HE1 TRP A   1      -2.250   1.064  -5.146  0.00  0.00    +0.165 HD
ENDBRANCH  11  18
ENDBRANCH   7  11
ENDBRANCH   1   7
BRANCH   4  22
ATOM     22  C   UNK A   0       3.582   1.747  -0.023  0.00  0.00    +0.201 C 
BRANCH  22  23
ATOM     23  C   UNK A   0       4.740   0.784  -0.039  0.00  0.00    +0.231 C 
ATOM     24  O   UNK A   0       4.535  -0.412  -0.043  0.00  0.00    -0.274 OA
ATOM     25  N   UNK A   0       6.005   1.250  -0.049  0.00  0.00    -0.310 N 
ATOM     26  H   UNK A   0       6.169   2.206  -0.045  0.00  0.00    +0.149 HD
BRANCH  25  27
ATOM     27  C   UNK A   0       7.131   0.314  -0.064  0.00  0.00    +0.095 C 
ATOM     28  C   UNK A   0       7.485  -0.097   1.375  0.00  0.00    +0.046 C 
ATOM     29  C   UNK A   0       8.853  -0.820   1.395  0.00  0.00    +0.168 C 
ATOM     30  S   UNK A   0       9.720  -0.086  -0.051  0.00  0.00    -0.029 S 
ATOM     31  O   UNK A   0       9.981  -1.109  -1.002  0.00  0.00    -0.174 OA
ATOM     32  O   UNK A   0      10.790   0.727   0.413  0.00  0.00    -0.174 OA
ATOM     33  C   UNK A   0       8.377   1.001  -0.692  0.00  0.00    +0.188 C 
ENDBRANCH  25  27
ENDBRANCH  22  23
ENDBRANCH   4  22
TORSDOF 7
