REMARK  Name = ZINC27724036
REMARK  6 active torsions:
REMARK  status: ('A' for Active; 'I' for Inactive)
REMARK    1  A    between atoms: C_1  and  C_2
REMARK    2  A    between atoms: C_2  and  O_3
REMARK    3  A    between atoms: O_3  and  C_4
REMARK    4  A    between atoms: C_9  and  N_18
REMARK    5  A    between atoms: N_18  and  N_19
REMARK    6  A    between atoms: C_20  and  C_21
REMARK                            x       y       z     vdW  Elec       q    Type
REMARK                         _______ _______ _______ _____ _____    ______ ____
ROOT
ATOM      1  C   UNL     1       2.456   9.701   0.137  0.00  0.00    +0.406 C 
ATOM      2  O   UNL     1       3.510  10.305   0.135  0.00  0.00    -0.226 OA
ATOM      3  N   UNL     1       2.449   8.358   0.023  0.00  0.00    -0.235 N 
ATOM      4  C   UNL     1       3.653   7.653   0.009  0.00  0.00    +0.132 A 
ATOM      5  C   UNL     1       3.628   6.263  -0.002  0.00  0.00    +0.070 A 
ATOM      6  C   UNL     1       4.831   5.561  -0.010  0.00  0.00    +0.078 A 
ATOM      7  C   UNL     1       6.021   6.291  -0.019  0.00  0.00    +0.107 A 
ATOM      8  C   UNL     1       5.972   7.692  -0.013  0.00  0.00    +0.160 A 
ATOM      9  N   UNL     1       4.794   8.320   0.000  0.00  0.00    -0.213 NA
ATOM     10  N   UNL     1       7.255   8.133  -0.024  0.00  0.00    -0.319 N 
ATOM     11  C   UNL     1       8.076   7.110  -0.036  0.00  0.00    +0.157 A 
ATOM     12  N   UNL     1       7.364   5.946  -0.033  0.00  0.00    -0.331 N 
ATOM     13  H   UNL     1       7.660   4.887  -0.040  0.00  0.00    +0.168 HD
ATOM     14  S   UNL     1       9.835   7.222  -0.052  0.00  0.00    -0.013 S 
ATOM     15  H   UNL     1       1.494   7.818  -0.060  0.00  0.00    +0.160 HD
ATOM     16  H   UNL     1       7.465   9.213  -0.022  0.00  0.00    +0.169 HD
ENDROOT
BRANCH   6  17
ATOM     17  N   UNL     1       4.846   4.169  -0.015  0.00  0.00    -0.236 N 
ATOM     18  H   UNL     1       5.804   3.629  -0.026  0.00  0.00    +0.174 HD
BRANCH  17  19
ATOM     19  N   UNL     1       3.640   3.456  -0.006  0.00  0.00    -0.190 NA
ATOM     20  C   UNL     1       3.654   2.157  -0.011  0.00  0.00    +0.138 C 
BRANCH  20  21
ATOM     21  C   UNL     1       2.385   1.407  -0.002  0.00  0.00    -0.005 A 
ATOM     22  C   UNL     1       1.165   2.089   0.012  0.00  0.00    +0.009 A 
ATOM     23  C   UNL     1      -0.018   1.380   0.020  0.00  0.00    +0.001 A 
ATOM     24  C   UNL     1       0.001  -0.004   0.015  0.00  0.00    +0.000 A 
ATOM     25  C   UNL     1       1.205  -0.686   0.002  0.00  0.00    +0.001 A 
ATOM     26  C   UNL     1       2.396   0.010  -0.007  0.00  0.00    +0.009 A 
ENDBRANCH  20  21
ENDBRANCH  17  19
ENDBRANCH   6  17
BRANCH   1  27
ATOM     27  O   UNL     1       1.295  10.373   0.254  0.00  0.00    -0.450 OA
BRANCH  27  29
ATOM     28  C   UNL     1      -0.031  12.401   0.495  0.00  0.00    +0.048 C 
ATOM     29  C   UNL     1       1.378  11.817   0.373  0.00  0.00    +0.230 C 
ENDBRANCH  27  29
ENDBRANCH   1  27
TORSDOF 5
