REMARK  Name = ZINC64870410
REMARK  8 active torsions:
REMARK  status: ('A' for Active; 'I' for Inactive)
REMARK    1  A    between atoms: C_1  and  O_2
REMARK    2  A    between atoms: O_2  and  C_3
REMARK    3  A    between atoms: C_7  and  C_9
REMARK    4  A    between atoms: C_9  and  N_10
REMARK    5  A    between atoms: C_16  and  C_23
REMARK    6  A    between atoms: C_26  and  C_30
REMARK    7  A    between atoms: C_33  and  S_36
REMARK    8  A    between atoms: S_36  and  C_37
REMARK                            x       y       z     vdW  Elec       q    Type
REMARK                         _______ _______ _______ _____ _____    ______ ____
ROOT
ATOM      1  N   UNL     1      -2.569  -4.657  -1.366  0.00  0.00    -0.256 N 
ATOM      2  C   UNL     1      -3.758  -4.825  -1.984  0.00  0.00    +0.265 A 
ATOM      3  O   UNL     1      -4.800  -4.577  -1.409  0.00  0.00    -0.267 OA
ATOM      4  C   UNL     1      -3.759  -5.315  -3.374  0.00  0.00    +0.063 A 
ATOM      5  C   UNL     1      -4.944  -5.513  -4.080  0.00  0.00    +0.016 A 
ATOM      6  C   UNL     1      -4.891  -5.972  -5.380  0.00  0.00    +0.008 A 
ATOM      7  C   UNL     1      -3.671  -6.237  -5.982  0.00  0.00    -0.000 A 
ATOM      8  C   UNL     1      -2.490  -6.045  -5.293  0.00  0.00    +0.034 A 
ATOM      9  C   UNL     1      -2.523  -5.583  -3.986  0.00  0.00    +0.056 A 
ATOM     10  N   UNL     1      -1.359  -5.376  -3.259  0.00  0.00    -0.307 N 
ATOM     11  H   UNL     1      -0.499  -5.557  -3.668  0.00  0.00    +0.170 HD
ATOM     12  C   UNL     1      -1.413  -4.923  -1.995  0.00  0.00    +0.330 A 
ATOM     13  O   UNL     1      -0.371  -4.750  -1.394  0.00  0.00    -0.246 OA
ENDROOT
BRANCH   7  14
ATOM     14  C   UNL     1      -3.633  -6.740  -7.402  0.00  0.00    +0.242 C 
ATOM     15  N   UNL     1      -4.798  -6.225  -8.149  0.00  0.00    -0.265 NA
ATOM     16  C   UNL     1      -5.556  -7.412  -8.610  0.00  0.00    +0.180 C 
ATOM     17  N   UNL     1      -4.539  -8.498  -8.606  0.00  0.00    -0.177 NA
ATOM     18  O   UNL     1      -3.717  -8.177  -7.415  0.00  0.00    -0.274 OA
ATOM     19  H   UNL     1      -5.372  -5.636  -7.563  0.00  0.00    +0.127 HD
ATOM     20  H   UNL     1      -4.976  -9.402  -8.511  0.00  0.00    +0.156 HD
BRANCH  16  21
ATOM     21  C   UNL     1      -6.093  -7.191 -10.001  0.00  0.00    -0.014 A 
ATOM     22  C   UNL     1      -6.410  -5.912 -10.422  0.00  0.00    +0.007 A 
ATOM     23  C   UNL     1      -6.903  -5.705 -11.695  0.00  0.00    +0.015 A 
ATOM     24  C   UNL     1      -7.081  -6.784 -12.553  0.00  0.00    +0.008 A 
ATOM     25  C   UNL     1      -6.762  -8.067 -12.126  0.00  0.00    +0.015 A 
ATOM     26  C   UNL     1      -6.264  -8.266 -10.854  0.00  0.00    +0.007 A 
BRANCH  24  27
ATOM     27  S   UNL     1      -7.711  -6.525 -14.178  0.00  0.00    -0.129 S 
ATOM     28  C   UNL     1      -7.764  -8.189 -14.899  0.00  0.00    +0.090 C 
ENDBRANCH  24  27
ENDBRANCH  16  21
ENDBRANCH   7  14
BRANCH   1  29
ATOM     29  C   UNL     1      -2.540  -4.171   0.015  0.00  0.00    +0.165 C 
BRANCH  29  34
ATOM     30  C   UNL     1      -1.200  -0.637   0.010  0.00  0.00    +0.120 A 
ATOM     31  C   UNL     1      -2.375   0.101   0.019  0.00  0.00    +0.045 A 
ATOM     32  C   UNL     1      -3.596  -0.545   0.027  0.00  0.00    +0.004 A 
ATOM     33  C   UNL     1      -3.648  -1.927   0.026  0.00  0.00    +0.005 A 
ATOM     34  C   UNL     1      -2.479  -2.665   0.017  0.00  0.00    -0.024 A 
ATOM     35  C   UNL     1      -1.255  -2.023   0.003  0.00  0.00    +0.051 A 
BRANCH  30  37
ATOM     36  C   UNL     1      -0.017   1.425   0.010  0.00  0.00    +0.277 C 
ATOM     37  O   UNL     1       0.002  -0.004   0.002  0.00  0.00    -0.495 OA
ENDBRANCH  30  37
ENDBRANCH  29  34
ENDBRANCH   1  29
TORSDOF 6
