REMARK  Name = ZINC25783465
REMARK  7 active torsions:
REMARK  status: ('A' for Active; 'I' for Inactive)
REMARK    1  A    between atoms: C_1  and  C_2
REMARK    2  A    between atoms: N_8  and  C_9
REMARK    3  A    between atoms: C_9  and  C_10
REMARK    4  A    between atoms: C_11  and  C_21
REMARK    5  A    between atoms: N_23  and  N_24
REMARK    6  A    between atoms: C_25  and  C_26
REMARK    7  A    between atoms: C_25  and  C_27
REMARK                            x       y       z     vdW  Elec       q    Type
REMARK                         _______ _______ _______ _____ _____    ______ ____
ROOT
ATOM      1  C   UNL     1       5.799  -0.634  -3.305  0.00  0.00    +0.063 A 
ATOM      2  C   UNL     1       6.212   0.651  -3.096  0.00  0.00    +0.170 A 
ATOM      3  N   UNL     1       7.281   0.627  -2.281  0.00  0.00    -0.124 NA
ATOM      4  N   UNL     1       7.560  -0.590  -1.970  0.00  0.00    -0.058 NA
ATOM      5  N   UNL     1       6.632  -1.432  -2.600  0.00  0.00    -0.194 N 
ATOM      6  C   UNL     1       6.580  -2.828  -2.517  0.00  0.00    +0.240 A 
ATOM      7  C   UNL     1       7.497  -3.676  -1.751  0.00  0.00    +0.206 A 
ATOM      8  N   UNL     1       7.136  -4.920  -1.911  0.00  0.00    -0.032 NA
ATOM      9  O   UNL     1       6.009  -4.937  -2.769  0.00  0.00    -0.239 OA
ATOM     10  N   UNL     1       5.712  -3.595  -3.113  0.00  0.00    -0.027 NA
ATOM     11  N   UNL     1       8.568  -3.232  -0.983  0.00  0.00    -0.337 N 
ATOM     12  H   UNL     1       9.197  -3.956  -0.445  0.00  0.00    +0.144 HD
ATOM     13  H   UNL     1       8.785  -2.156  -0.913  0.00  0.00    +0.144 HD
ENDROOT
BRANCH   2  14
ATOM     14  C   UNL     1       5.589   1.860  -3.666  0.00  0.00    +0.285 C 
ATOM     15  O   UNL     1       4.620   1.759  -4.394  0.00  0.00    -0.267 OA
ATOM     16  N   UNL     1       6.094   3.077  -3.381  0.00  0.00    -0.201 N 
ATOM     17  H   UNL     1       6.971   3.168  -2.723  0.00  0.00    +0.178 HD
BRANCH  16  18
ATOM     18  N   UNL     1       5.503   4.225  -3.923  0.00  0.00    -0.184 NA
ATOM     19  C   UNL     1       6.059   5.385  -3.749  0.00  0.00    +0.063 C 
ATOM     20  C   UNL     1       5.343   6.637  -4.188  0.00  0.00    +0.068 C 
BRANCH  19  21
ATOM     21  C   UNL     1       7.389   5.478  -3.121  0.00  0.00    -0.002 A 
ATOM     22  C   UNL     1       7.675   6.541  -2.243  0.00  0.00    +0.010 A 
ATOM     23  C   UNL     1       8.890   6.645  -1.650  0.00  0.00    +0.009 A 
ATOM     24  C   UNL     1       9.889   5.690  -1.917  0.00  0.00    -0.018 A 
ATOM     25  C   UNL     1      11.156   5.780  -1.318  0.00  0.00    +0.008 A 
ATOM     26  C   UNL     1      12.103   4.842  -1.596  0.00  0.00    +0.001 A 
ATOM     27  C   UNL     1      11.835   3.788  -2.467  0.00  0.00    +0.001 A 
ATOM     28  C   UNL     1      10.619   3.667  -3.066  0.00  0.00    +0.008 A 
ATOM     29  C   UNL     1       9.616   4.617  -2.804  0.00  0.00    -0.017 A 
ATOM     30  C   UNL     1       8.352   4.522  -3.404  0.00  0.00    +0.018 A 
ENDBRANCH  19  21
ENDBRANCH  16  18
ENDBRANCH   2  14
BRANCH   1  31
ATOM     31  C   UNL     1       4.635  -1.078  -4.154  0.00  0.00    -0.019 C 
BRANCH  31  38
ATOM     32  C   UNL     1       2.646  -2.981  -4.735  0.00  0.00    -0.013 C 
ATOM     33  C   UNL     1       2.280  -1.635  -4.105  0.00  0.00    -0.071 C 
ATOM     34  C   UNL     1       1.073  -1.815  -3.182  0.00  0.00    -0.016 C 
ATOM     35  C   UNL     1       0.723  -0.471  -2.538  0.00  0.00    -0.003 C 
ATOM     36  C   UNL     1       1.943   0.054  -1.776  0.00  0.00    -0.019 C 
ATOM     37  C   UNL     1       3.125   0.181  -2.741  0.00  0.00    -0.078 C 
ATOM     38  N   UNL     1       3.421  -1.132  -3.329  0.00  0.00    +0.385 N 
ATOM     39  H   UNL     1       3.602  -1.836  -2.504  0.00  0.00    -0.081 HD
ENDBRANCH  31  38
ENDBRANCH   1  31
TORSDOF 5
