REMARK  Name = ZINC05488114
REMARK  6 active torsions:
REMARK  status: ('A' for Active; 'I' for Inactive)
REMARK    1  A    between atoms: C_4  and  C_7
REMARK    2  A    between atoms: C_10  and  C_19
REMARK    3  A    between atoms: N_12  and  C_13
REMARK    4  A    between atoms: C_23  and  N_25
REMARK    5  A    between atoms: C_26  and  C_27
REMARK    6  A    between atoms: C_32  and  O_33
REMARK                            x       y       z     vdW  Elec       q    Type
REMARK                         _______ _______ _______ _____ _____    ______ ____
ROOT
ATOM      1  C   UNL     1       1.835   5.885   0.015  0.00  0.00    +0.134 C 
ATOM      2  C   UNL     1       2.404   4.452   0.009  0.00  0.00    +0.087 C 
ATOM      3  C   UNL     1       1.175   3.571   0.009  0.00  0.00    +0.069 C 
ATOM      4  N   UNL     1       0.118   4.308   0.024  0.00  0.00    -0.183 NA
ATOM      5  N   UNL     1       0.378   5.677   0.028  0.00  0.00    -0.216 N 
ENDROOT
BRANCH   1   9
ATOM      6  C   UNL     1       3.019   8.013  -3.494  0.00  0.00    +0.000 A 
ATOM      7  C   UNL     1       3.631   8.281  -2.284  0.00  0.00    +0.000 A 
ATOM      8  C   UNL     1       3.248   7.592  -1.149  0.00  0.00    +0.005 A 
ATOM      9  C   UNL     1       2.252   6.636  -1.223  0.00  0.00    -0.025 A 
ATOM     10  C   UNL     1       1.644   6.364  -2.434  0.00  0.00    +0.005 A 
ATOM     11  C   UNL     1       2.023   7.057  -3.569  0.00  0.00    +0.000 A 
ENDBRANCH   1   9
BRANCH   5  12
ATOM     12  C   UNL     1      -0.585   6.686   0.043  0.00  0.00    +0.052 A 
ATOM     13  C   UNL     1      -0.196   8.021   0.052  0.00  0.00    +0.025 A 
ATOM     14  C   UNL     1      -1.153   9.017   0.063  0.00  0.00    +0.002 A 
ATOM     15  C   UNL     1      -2.496   8.688   0.074  0.00  0.00    +0.000 A 
ATOM     16  C   UNL     1      -2.887   7.361   0.070  0.00  0.00    +0.002 A 
ATOM     17  C   UNL     1      -1.936   6.359   0.054  0.00  0.00    +0.025 A 
ENDBRANCH   5  12
BRANCH   3  18
ATOM     18  C   UNL     1       1.185   2.097   0.002  0.00  0.00    -0.000 A 
ATOM     19  C   UNL     1       2.399   1.404  -0.013  0.00  0.00    +0.010 A 
ATOM     20  C   UNL     1       2.410   0.024  -0.021  0.00  0.00    +0.003 A 
ATOM     21  C   UNL     1       1.224  -0.683  -0.013  0.00  0.00    +0.028 A 
ATOM     22  C   UNL     1       0.002  -0.004   0.002  0.00  0.00    +0.064 A 
ATOM     23  C   UNL     1      -0.017   1.390   0.010  0.00  0.00    +0.037 A 
BRANCH  22  24
ATOM     24  N   UNL     1      -1.173  -0.706   0.010  0.00  0.00    -0.255 NA
ATOM     25  C   UNL     1      -1.331  -1.722  -0.792  0.00  0.00    +0.123 C 
BRANCH  25  26
ATOM     26  C   UNL     1      -2.593  -2.476  -0.784  0.00  0.00    +0.034 A 
ATOM     27  C   UNL     1      -2.768  -3.566  -1.643  0.00  0.00    +0.013 A 
ATOM     28  C   UNL     1      -3.953  -4.268  -1.629  0.00  0.00    +0.001 A 
ATOM     29  C   UNL     1      -4.974  -3.900  -0.768  0.00  0.00    +0.004 A 
ATOM     30  C   UNL     1      -4.815  -2.825   0.086  0.00  0.00    +0.046 A 
ATOM     31  C   UNL     1      -3.628  -2.110   0.090  0.00  0.00    +0.125 A 
BRANCH  31  32
ATOM     32  O   UNL     1      -3.470  -1.058   0.932  0.00  0.00    -0.506 OA
ATOM     33  H   UNL     1      -3.752  -0.210   0.561  0.00  0.00    +0.292 HD
ENDBRANCH  31  32
ENDBRANCH  25  26
ENDBRANCH  22  24
ENDBRANCH   3  18
TORSDOF 6
