REMARK  Name = ZINC16694038
REMARK  4 active torsions:
REMARK  status: ('A' for Active; 'I' for Inactive)
REMARK    1  A    between atoms: C_1  and  C_2
REMARK    2  A    between atoms: C_3  and  C_25
REMARK    3  A    between atoms: C_10  and  N_11
REMARK    4  A    between atoms: N_14  and  C_15
REMARK                            x       y       z     vdW  Elec       q    Type
REMARK                         _______ _______ _______ _____ _____    ______ ____
ROOT
ATOM      1  N   UNL     1      -0.075  -0.771   3.590  0.00  0.00    -0.275 N 
ATOM      2  C   UNL     1      -0.159  -0.122   4.768  0.00  0.00    +0.308 C 
ATOM      3  O   UNL     1      -0.164   1.093   4.794  0.00  0.00    -0.252 OA
ATOM      4  N   UNL     1      -0.236  -0.821   5.918  0.00  0.00    -0.269 N 
ATOM      5  H   UNL     1      -0.071  -1.741   3.569  0.00  0.00    +0.156 HD
ATOM      6  H   UNL     1      -0.148  -1.787   5.906  0.00  0.00    +0.156 HD
ENDROOT
BRANCH   1  16
ATOM      7  C   UNL     1      -0.068   1.503   0.010  0.00  0.00    +0.046 C 
ATOM      8  C   UNL     1      -0.051  -0.004   0.001  0.00  0.00    -0.015 C 
ATOM      9  C   UNL     1      -0.064  -0.703  -1.196  0.00  0.00    +0.117 C 
ATOM     10  C   UNL     1      -0.047  -2.168  -1.179  0.00  0.00    +0.261 C 
ATOM     11  O   UNL     1      -0.058  -2.781  -2.230  0.00  0.00    -0.269 OA
ATOM     12  N   UNL     1      -0.018  -2.843  -0.016  0.00  0.00    -0.248 N 
ATOM     13  C   UNL     1      -0.005  -2.201   1.166  0.00  0.00    +0.252 C 
ATOM     14  O   UNL     1       0.021  -2.840   2.201  0.00  0.00    -0.270 OA
ATOM     15  C   UNL     1      -0.016  -0.732   1.213  0.00  0.00    +0.055 C 
ATOM     16  C   UNL     1       0.003  -0.067   2.432  0.00  0.00    +0.089 C 
ATOM     17  H   UNL     1      -0.007  -3.813  -0.031  0.00  0.00    +0.158 HD
BRANCH   9  18
ATOM     18  C   UNL     1      -0.094   0.002  -2.442  0.00  0.00    +0.105 C 
ATOM     19  N   UNL     1      -0.118   0.561  -3.431  0.00  0.00    -0.191 NA
ENDBRANCH   9  18
ENDBRANCH   1  16
BRANCH   4  20
ATOM     20  C   UNL     1      -0.444  -0.155   7.127  0.00  0.00    +0.042 A 
ATOM     21  C   UNL     1      -1.062   1.077   7.145  0.00  0.00    +0.024 A 
ATOM     22  C   UNL     1      -1.274   1.750   8.345  0.00  0.00    +0.002 A 
ATOM     23  C   UNL     1      -0.877   1.212   9.531  0.00  0.00    +0.008 A 
ATOM     24  C   UNL     1      -0.244  -0.042   9.557  0.00  0.00    -0.016 A 
ATOM     25  C   UNL     1      -0.028  -0.739   8.342  0.00  0.00    +0.003 A 
ATOM     26  C   UNL     1       0.601  -1.994   8.370  0.00  0.00    +0.010 A 
ATOM     27  C   UNL     1       0.990  -2.526   9.561  0.00  0.00    +0.001 A 
ATOM     28  C   UNL     1       0.773  -1.844  10.757  0.00  0.00    +0.001 A 
ATOM     29  C   UNL     1       0.177  -0.621  10.767  0.00  0.00    +0.008 A 
ENDBRANCH   4  20
TORSDOF 3
