REMARK  Name = ZINC09601831
REMARK  12 active torsions:
REMARK  status: ('A' for Active; 'I' for Inactive)
REMARK    1  A    between atoms: C_1  and  C_2
REMARK    2  A    between atoms: C_2  and  O_3
REMARK    3  A    between atoms: O_3  and  C_4
REMARK    4  A    between atoms: C_6  and  C_19
REMARK    5  A    between atoms: C_9  and  O_10
REMARK    6  A    between atoms: O_10  and  C_11
REMARK    7  A    between atoms: C_11  and  C_12
REMARK    8  A    between atoms: C_19  and  C_21
REMARK    9  A    between atoms: C_19  and  N_32
REMARK   10  A    between atoms: C_30  and  O_31
REMARK   11  A    between atoms: N_32  and  C_33
REMARK   12  A    between atoms: C_35  and  C_38
REMARK                            x       y       z     vdW  Elec       q    Type
REMARK                         _______ _______ _______ _____ _____    ______ ____
ROOT
ATOM      1  C   UNL     1       8.986  -3.647  -2.175  0.00  0.00    +0.136 C 
ENDROOT
BRANCH   1   2
ATOM      2  C   UNL     1       9.187  -4.075  -3.606  0.00  0.00    +0.021 A 
ATOM      3  C   UNL     1       8.781  -5.347  -4.004  0.00  0.00    +0.010 A 
ATOM      4  C   UNL     1       8.944  -5.762  -5.291  0.00  0.00    +0.010 A 
ATOM      5  C   UNL     1       9.539  -4.903  -6.230  0.00  0.00    +0.004 A 
ATOM      6  C   UNL     1       9.729  -5.299  -7.567  0.00  0.00    +0.011 A 
ATOM      7  C   UNL     1      10.314  -4.412  -8.425  0.00  0.00    +0.020 A 
ATOM      8  C   UNL     1      10.703  -3.155  -7.966  0.00  0.00    +0.111 A 
ATOM      9  N   UNL     1      10.524  -2.790  -6.720  0.00  0.00    -0.251 NA
ATOM     10  C   UNL     1       9.958  -3.611  -5.830  0.00  0.00    +0.113 A 
ATOM     11  C   UNL     1       9.768  -3.213  -4.490  0.00  0.00    +0.148 A 
BRANCH  11  12
ATOM     12  O   UNL     1      10.162  -1.979  -4.082  0.00  0.00    -0.504 OA
ATOM     13  H   UNL     1      11.072  -1.944  -3.755  0.00  0.00    +0.292 HD
ENDBRANCH  11  12
ENDBRANCH   1   2
BRANCH   1  16
ATOM     14  C   UNL     1       6.489  -0.840  -1.777  0.00  0.00    +0.164 A 
ATOM     15  C   UNL     1       7.686  -1.529  -1.884  0.00  0.00    +0.055 A 
ATOM     16  C   UNL     1       7.682  -2.901  -2.052  0.00  0.00    -0.018 A 
ATOM     17  C   UNL     1       6.485  -3.590  -2.108  0.00  0.00    +0.029 A 
ATOM     18  C   UNL     1       5.286  -2.909  -1.996  0.00  0.00    +0.087 A 
ATOM     19  C   UNL     1       5.284  -1.533  -1.828  0.00  0.00    +0.181 A 
ATOM     20 CL   UNL     1       3.784  -3.777  -2.067  0.00  0.00    -0.080 Cl
BRANCH  14  21
ATOM     21  O   UNL     1       6.492   0.511  -1.618  0.00  0.00    -0.489 OA
BRANCH  21  23
ATOM     22  C   UNL     1       7.569   2.663  -1.392  0.00  0.00    +0.048 C 
ATOM     23  C   UNL     1       7.766   1.156  -1.575  0.00  0.00    +0.226 C 
ENDBRANCH  21  23
ENDBRANCH  14  21
BRANCH  19  24
ATOM     24  O   UNL     1       4.106  -0.861  -1.717  0.00  0.00    -0.482 OA
BRANCH  24  25
ATOM     25  C   UNL     1       3.574  -0.696  -0.401  0.00  0.00    +0.264 C 
BRANCH  25  26
ATOM     26  C   UNL     1       2.276   0.066  -0.476  0.00  0.00    -0.010 A 
ATOM     27  C   UNL     1       1.082  -0.616  -0.622  0.00  0.00    +0.007 A 
ATOM     28  C   UNL     1      -0.108   0.082  -0.691  0.00  0.00    +0.000 A 
ATOM     29  C   UNL     1      -0.106   1.463  -0.613  0.00  0.00    +0.000 A 
ATOM     30  C   UNL     1       1.088   2.144  -0.467  0.00  0.00    +0.000 A 
ATOM     31  C   UNL     1       2.279   1.446  -0.398  0.00  0.00    +0.007 A 
ENDBRANCH  25  26
ENDBRANCH  24  25
ENDBRANCH  19  24
ENDBRANCH   1  16
BRANCH   1  32
ATOM     32  N   UNL     1       8.954  -4.830  -1.311  0.00  0.00    -0.320 N 
ATOM     33  H   UNL     1       8.106  -5.245  -1.087  0.00  0.00    +0.148 HD
BRANCH  32  34
ATOM     34  C   UNL     1      10.139  -5.358  -0.812  0.00  0.00    +0.097 A 
ATOM     35  C   UNL     1      11.358  -4.839  -1.237  0.00  0.00    +0.045 A 
ATOM     36  C   UNL     1      12.530  -5.374  -0.733  0.00  0.00    -0.046 A 
ATOM     37  C   UNL     1      12.443  -6.414   0.183  0.00  0.00    +0.021 A 
ATOM     38  C   UNL     1      11.200  -6.881   0.561  0.00  0.00    +0.084 A 
ATOM     39  C   UNL     1      13.870  -4.839  -1.167  0.00  0.00    +0.044 C 
ATOM     40  N   UNL     1      10.028  -6.375   0.090  0.00  0.00    -0.350 N 
ATOM     41  H   UNL     1       9.117  -6.736   0.396  0.00  0.00    +0.166 HD
ENDBRANCH  32  34
ENDBRANCH   1  32
TORSDOF 10
