REMARK  Name = ZINC00968278
REMARK  10 active torsions:
REMARK  status: ('A' for Active; 'I' for Inactive)
REMARK    1  A    between atoms: C_1  and  C_2
REMARK    2  A    between atoms: C_3  and  C_32
REMARK    3  A    between atoms: C_6  and  C_9
REMARK    4  A    between atoms: C_7  and  O_8
REMARK    5  A    between atoms: C_12  and  C_14
REMARK    6  A    between atoms: C_12  and  C_15
REMARK    7  A    between atoms: C_15  and  O_16
REMARK    8  A    between atoms: O_16  and  C_17
REMARK    9  A    between atoms: C_20  and  C_23
REMARK   10  A    between atoms: C_23  and  C_24
REMARK                            x       y       z     vdW  Elec       q    Type
REMARK                         _______ _______ _______ _____ _____    ______ ____
ROOT
ATOM      1  C   UNL     1       0.007  -4.690  -3.808  0.00  0.00    +0.276 C 
ENDROOT
BRANCH   1  12
ATOM      2  C   UNL     1      -0.018   1.503   0.010  0.00  0.00    +0.048 C 
ATOM      3  C   UNL     1       0.002  -0.004   0.002  0.00  0.00    -0.002 A 
ATOM      4  C   UNL     1       0.006  -0.689  -1.196  0.00  0.00    -0.002 A 
ATOM      5  C   UNL     1       0.023  -2.079  -1.210  0.00  0.00    +0.128 A 
ATOM      6  C   UNL     1       0.035  -2.778  -0.015  0.00  0.00    +0.001 A 
ATOM      7  C   UNL     1       0.035  -2.091   1.186  0.00  0.00    -0.002 A 
ATOM      8  C   UNL     1       0.023  -0.705   1.198  0.00  0.00    +0.123 A 
ATOM      9  C   UNL     1       0.052  -2.852   2.487  0.00  0.00    +0.048 C 
ATOM     10  C   UNL     1       0.043  -4.286   0.013  0.00  0.00    +0.043 C 
ATOM     11  C   UNL     1       0.480  -4.825  -1.352  0.00  0.00    +0.056 C 
ATOM     12  C   UNL     1      -0.325  -4.098  -2.437  0.00  0.00    +0.142 C 
ATOM     13  O   UNL     1       0.032  -2.715  -2.411  0.00  0.00    -0.482 OA
ATOM     14  C   UNL     1      -1.821  -4.249  -2.158  0.00  0.00    +0.059 C 
ATOM     15  C   UNL     1      -0.010   0.074  -2.496  0.00  0.00    +0.048 C 
BRANCH   8  16
ATOM     16  O   UNL     1       0.027  -0.034   2.381  0.00  0.00    -0.506 OA
ATOM     17  H   UNL     1      -0.856   0.149   2.732  0.00  0.00    +0.292 HD
ENDBRANCH   8  16
ENDBRANCH   1  12
BRANCH   1  18
ATOM     18  O   UNL     1      -0.745  -4.010  -4.815  0.00  0.00    -0.488 OA
BRANCH  18  19
ATOM     19  C   UNL     1      -0.566  -4.417  -6.099  0.00  0.00    +0.121 A 
ATOM     20  C   UNL     1       0.311  -5.454  -6.384  0.00  0.00    +0.046 A 
ATOM     21  C   UNL     1       0.491  -5.866  -7.690  0.00  0.00    +0.007 A 
ATOM     22  C   UNL     1      -0.202  -5.246  -8.713  0.00  0.00    -0.046 A 
ATOM     23  C   UNL     1      -1.076  -4.212  -8.433  0.00  0.00    +0.007 A 
ATOM     24  C   UNL     1      -1.264  -3.800  -7.128  0.00  0.00    +0.046 A 
BRANCH  22  25
ATOM     25  C   UNL     1      -0.003  -5.698 -10.137  0.00  0.00    +0.059 C 
BRANCH  25  26
ATOM     26  C   UNL     1      -1.011  -6.801 -10.468  0.00  0.00    +0.146 C 
ATOM     27  C   UNL     1      -0.832  -7.306 -11.893  0.00  0.00    +0.234 C 
ATOM     28  O   UNL     1       0.189  -7.840 -12.268  0.00  0.00    -0.274 OA
ATOM     29  N   UNL     1      -1.869  -7.121 -12.693  0.00  0.00    -0.246 N 
ATOM     30  C   UNL     1      -3.014  -6.532 -12.301  0.00  0.00    +0.279 C 
ATOM     31  O   UNL     1      -4.012  -6.321 -12.961  0.00  0.00    -0.263 OA
ATOM     32  S   UNL     1      -2.723  -6.132 -10.583  0.00  0.00    -0.054 S 
ATOM     33  H   UNL     1      -1.800  -7.427 -13.611  0.00  0.00    +0.158 HD
ENDBRANCH  25  26
ENDBRANCH  22  25
ENDBRANCH  18  19
ENDBRANCH   1  18
TORSDOF 6
