REMARK  Name = ZINC15774891
REMARK  7 active torsions:
REMARK  status: ('A' for Active; 'I' for Inactive)
REMARK    1  A    between atoms: C_9  and  C_21
REMARK    2  A    between atoms: N_11  and  C_14
REMARK    3  A    between atoms: C_21  and  C_23
REMARK    4  A    between atoms: C_21  and  O_28
REMARK    5  A    between atoms: C_23  and  C_25
REMARK    6  A    between atoms: C_23  and  O_27
REMARK    7  A    between atoms: C_25  and  O_26
REMARK                            x       y       z     vdW  Elec       q    Type
REMARK                         _______ _______ _______ _____ _____    ______ ____
ROOT
ATOM      1  C   UNL     1      -4.078  -3.729   2.964  0.00  0.00    +0.002 A 
ATOM      2  C   UNL     1      -4.462  -2.417   3.235  0.00  0.00    +0.002 A 
ATOM      3  C   UNL     1      -3.777  -1.354   2.735  0.00  0.00    +0.030 A 
ATOM      4  C   UNL     1      -2.650  -1.575   1.923  0.00  0.00    +0.092 A 
ATOM      5  C   UNL     1      -2.245  -2.955   1.638  0.00  0.00    +0.090 A 
ATOM      6  C   UNL     1      -2.999  -4.011   2.187  0.00  0.00    +0.030 A 
ATOM      7  N   UNL     1      -1.185  -3.181   0.865  0.00  0.00    -0.240 NA
ATOM      8  C   UNL     1      -0.505  -2.154   0.375  0.00  0.00    +0.134 A 
ATOM      9  C   UNL     1       0.683  -2.059  -0.475  0.00  0.00    +0.122 A 
ATOM     10  N   UNL     1       0.940  -0.798  -0.664  0.00  0.00    -0.164 NA
ATOM     11  N   UNL     1       0.002  -0.004   0.002  0.00  0.00    -0.212 N 
ATOM     12  C   UNL     1      -0.896  -0.818   0.654  0.00  0.00    +0.183 A 
ATOM     13  N   UNL     1      -1.947  -0.565   1.411  0.00  0.00    -0.224 NA
ENDROOT
BRANCH  11  14
ATOM     14  C   UNL     1      -0.017   1.396   0.010  0.00  0.00    +0.068 A 
ATOM     15  C   UNL     1      -1.228   2.076   0.019  0.00  0.00    +0.029 A 
ATOM     16  C   UNL     1      -1.244   3.456   0.032  0.00  0.00    +0.016 A 
ATOM     17  C   UNL     1      -0.054   4.163   0.025  0.00  0.00    +0.014 A 
ATOM     18  C   UNL     1       1.154   3.489   0.010  0.00  0.00    +0.016 A 
ATOM     19  C   UNL     1       1.175   2.108   0.002  0.00  0.00    +0.029 A 
ATOM     20  I   UNL     1      -0.083   6.258   0.035  0.00  0.00    -0.044 I 
ENDBRANCH  11  14
BRANCH   9  21
ATOM     21  C   UNL     1       1.470  -3.218  -1.031  0.00  0.00    +0.197 C 
BRANCH  21  22
ATOM     22  O   UNL     1       1.760  -2.979  -2.410  0.00  0.00    -0.383 OA
ATOM     23  H   UNL     1       2.278  -2.178  -2.570  0.00  0.00    +0.210 HD
ENDBRANCH  21  22
BRANCH  21  24
ATOM     24  C   UNL     1       2.780  -3.365  -0.253  0.00  0.00    +0.174 C 
BRANCH  24  25
ATOM     25  O   UNL     1       3.492  -2.126  -0.280  0.00  0.00    -0.387 OA
ATOM     26  H   UNL     1       3.721  -1.824  -1.170  0.00  0.00    +0.210 HD
ENDBRANCH  24  25
BRANCH  24  27
ATOM     27  C   UNL     1       3.634  -4.459  -0.895  0.00  0.00    +0.190 C 
BRANCH  27  28
ATOM     28  O   UNL     1       4.803  -4.678  -0.103  0.00  0.00    -0.392 OA
ATOM     29  H   UNL     1       5.393  -5.360  -0.451  0.00  0.00    +0.210 HD
ENDBRANCH  27  28
ENDBRANCH  24  27
ENDBRANCH  21  24
ENDBRANCH   9  21
TORSDOF 7
