REMARK  Name = ZINC64538257
REMARK  7 active torsions:
REMARK  status: ('A' for Active; 'I' for Inactive)
REMARK    1  A    between atoms: C_1  and  C_2
REMARK    2  A    between atoms: C_5  and  C_8
REMARK    3  A    between atoms: N_19  and  C_20
REMARK    4  A    between atoms: C_20  and  C_21
REMARK    5  A    between atoms: N_23  and  C_24
REMARK    6  A    between atoms: C_24  and  C_25
REMARK    7  A    between atoms: C_25  and  C_26
REMARK                            x       y       z     vdW  Elec       q    Type
REMARK                         _______ _______ _______ _____ _____    ______ ____
ROOT
ATOM      1  C   UNL     1       0.059  -4.275  -0.021  0.00  0.00    +0.103 C 
ATOM      2  C   UNL     1       1.496  -4.795   0.250  0.00  0.00    +0.064 C 
ATOM      3  C   UNL     1       1.355  -5.561   1.568  0.00  0.00    +0.163 C 
ATOM      4  N   UNL     1      -0.069  -5.994   1.537  0.00  0.00    -0.222 NA
ATOM      5  N   UNL     1      -0.778  -4.808   1.092  0.00  0.00    -0.245 NA
ATOM      6  C   UNL     1      -0.414  -6.552   2.836  0.00  0.00    +0.113 C 
ATOM      7  C   UNL     1       0.327  -7.893   2.961  0.00  0.00    +0.113 C 
ATOM      8  C   UNL     1       1.715  -7.804   2.395  0.00  0.00    +0.218 C 
ATOM      9  O   UNL     1       2.468  -8.737   2.583  0.00  0.00    -0.276 OA
ATOM     10  N   UNL     1       2.189  -6.740   1.700  0.00  0.00    -0.276 N 
ATOM     11  H   UNL     1      -0.859  -4.133   1.838  0.00  0.00    +0.142 HD
ENDROOT
BRANCH   1  16
ATOM     12  C   UNL     1      -0.018   1.503   0.010  0.00  0.00    +0.044 C 
ATOM     13  C   UNL     1       0.002  -0.004   0.002  0.00  0.00    -0.050 A 
ATOM     14  C   UNL     1       0.006  -0.689  -1.199  0.00  0.00    +0.003 A 
ATOM     15  C   UNL     1       0.025  -2.071  -1.206  0.00  0.00    +0.005 A 
ATOM     16  C   UNL     1       0.040  -2.768  -0.013  0.00  0.00    -0.029 A 
ATOM     17  C   UNL     1       0.037  -2.084   1.188  0.00  0.00    +0.005 A 
ATOM     18  C   UNL     1       0.023  -0.702   1.195  0.00  0.00    +0.003 A 
ENDBRANCH   1  16
BRANCH  10  19
ATOM     19  C   UNL     1       3.514  -6.779   1.075  0.00  0.00    +0.205 C 
BRANCH  19  20
ATOM     20  C   UNL     1       4.542  -6.253   2.043  0.00  0.00    +0.230 C 
ATOM     21  O   UNL     1       4.202  -5.882   3.146  0.00  0.00    -0.274 OA
ATOM     22  N   UNL     1       5.839  -6.196   1.682  0.00  0.00    -0.314 N 
ATOM     23  H   UNL     1       6.111  -6.493   0.800  0.00  0.00    +0.149 HD
BRANCH  22  24
ATOM     24  C   UNL     1       6.839  -5.684   2.623  0.00  0.00    +0.108 C 
BRANCH  24  25
ATOM     25  C   UNL     1       8.222  -5.726   1.970  0.00  0.00    +0.052 C 
BRANCH  25  26
ATOM     26  C   UNL     1       9.251  -5.200   2.938  0.00  0.00    -0.040 C 
ATOM     27  C   UNL     1      10.027  -5.926   3.774  0.00  0.00    -0.001 A 
ATOM     28  C   UNL     1      10.142  -7.368   4.023  0.00  0.00    +0.010 A 
ATOM     29  C   UNL     1      11.031  -7.806   4.943  0.00  0.00    +0.001 A 
ATOM     30  C   UNL     1      11.843  -6.920   5.664  0.00  0.00    +0.002 A 
ATOM     31  C   UNL     1      11.795  -5.582   5.490  0.00  0.00    +0.026 A 
ATOM     32  C   UNL     1      10.897  -5.011   4.547  0.00  0.00    +0.043 A 
ATOM     33  N   UNL     1      10.666  -3.768   4.203  0.00  0.00    -0.380 N 
ATOM     34  C   UNL     1       9.628  -3.753   3.167  0.00  0.00    +0.144 C 
ATOM     35  H   UNL     1      11.111  -2.987   4.570  0.00  0.00    +0.160 HD
ENDBRANCH  25  26
ENDBRANCH  24  25
ENDBRANCH  22  24
ENDBRANCH  19  20
ENDBRANCH  10  19
TORSDOF 6
