REMARK  Name = ZINC39462217
REMARK  9 active torsions:
REMARK  status: ('A' for Active; 'I' for Inactive)
REMARK    1  A    between atoms: C_1  and  C_2
REMARK    2  A    between atoms: C_5  and  C_8
REMARK    3  A    between atoms: C_8  and  C_9
REMARK    4  A    between atoms: C_9  and  C_10
REMARK    5  A    between atoms: N_13  and  C_16
REMARK    6  A    between atoms: C_16  and  C_17
REMARK    7  A    between atoms: N_19  and  C_20
REMARK    8  A    between atoms: C_25  and  C_30
REMARK    9  A    between atoms: C_31  and  C_34
REMARK                            x       y       z     vdW  Elec       q    Type
REMARK                         _______ _______ _______ _____ _____    ______ ____
ROOT
ATOM      1  C   UNL     1       2.536 -10.220   1.280  0.00  0.00    +0.019 C 
ENDROOT
BRANCH   1   5
ATOM      2  C   UNL     1       1.528  -6.296  -0.041  0.00  0.00    -0.014 C 
ATOM      3  C   UNL     1       0.941  -6.823   1.272  0.00  0.00    -0.015 C 
ATOM      4  C   UNL     1       1.037  -8.351   1.290  0.00  0.00    -0.078 C 
ATOM      5  N   UNL     1       2.443  -8.758   1.183  0.00  0.00    +0.385 N 
ATOM      6  C   UNL     1       2.992  -8.318  -0.105  0.00  0.00    -0.078 C 
ATOM      7  C   UNL     1       2.972  -6.789  -0.177  0.00  0.00    -0.015 C 
ATOM      8  H   UNL     1       2.972  -8.339   1.934  0.00  0.00    -0.081 HD
BRANCH   2   9
ATOM      9  C   UNL     1       1.508  -4.767  -0.032  0.00  0.00    +0.008 C 
BRANCH   9  10
ATOM     10  C   UNL     1       0.059  -4.275  -0.021  0.00  0.00    +0.035 C 
BRANCH  10  15
ATOM     11  C   UNL     1      -0.018   1.503   0.010  0.00  0.00    +0.044 C 
ATOM     12  C   UNL     1       0.002  -0.004   0.002  0.00  0.00    -0.050 A 
ATOM     13  C   UNL     1       0.006  -0.689  -1.199  0.00  0.00    +0.003 A 
ATOM     14  C   UNL     1       0.025  -2.071  -1.206  0.00  0.00    +0.004 A 
ATOM     15  C   UNL     1       0.040  -2.768  -0.013  0.00  0.00    -0.047 A 
ATOM     16  C   UNL     1       0.037  -2.084   1.188  0.00  0.00    +0.004 A 
ATOM     17  C   UNL     1       0.023  -0.702   1.195  0.00  0.00    +0.003 A 
ENDBRANCH  10  15
ENDBRANCH   9  10
ENDBRANCH   2   9
ENDBRANCH   1   5
BRANCH   1  18
ATOM     18  C   UNL     1       3.986 -10.631   1.293  0.00  0.00    +0.199 C 
ATOM     19  O   UNL     1       4.856  -9.789   1.229  0.00  0.00    -0.278 OA
ATOM     20  N   UNL     1       4.316 -11.935   1.377  0.00  0.00    -0.288 N 
ATOM     21  H   UNL     1       3.621 -12.610   1.428  0.00  0.00    +0.151 HD
BRANCH  20  22
ATOM     22  C   UNL     1       5.726 -12.335   1.390  0.00  0.00    +0.243 C 
ATOM     23  C   UNL     1       5.913 -13.550   2.261  0.00  0.00    +0.072 A 
ATOM     24  H   UNL     1       5.474 -15.390   4.905  0.00  0.00    +0.192 HD
ATOM     25  C   UNL     1       6.745 -14.411   1.601  0.00  0.00    +0.016 A 
ATOM     26  C   UNL     1       7.073 -15.625   2.215  0.00  0.00    +0.065 A 
ATOM     27  N   UNL     1       6.588 -15.914   3.393  0.00  0.00    -0.176 NA
ATOM     28  N   UNL     1       5.805 -15.123   4.033  0.00  0.00    -0.243 N 
ATOM     29  C   UNL     1       5.430 -13.931   3.525  0.00  0.00    +0.272 A 
ATOM     30  O   UNL     1       4.684 -13.196   4.152  0.00  0.00    -0.266 OA
ATOM     31  C   UNL     1       7.987 -16.599   1.518  0.00  0.00    +0.068 C 
ATOM     32  C   UNL     1       7.114 -13.770   0.287  0.00  0.00    +0.150 C 
ATOM     33  O   UNL     1       6.143 -12.727   0.068  0.00  0.00    -0.347 OA
ATOM     34  C   UNL     1       8.520 -13.173   0.369  0.00  0.00    +0.043 C 
ENDBRANCH  20  22
ENDBRANCH   1  18
TORSDOF 6
