REMARK  Name = ZINC06346322
REMARK  5 active torsions:
REMARK  status: ('A' for Active; 'I' for Inactive)
REMARK    1  A    between atoms: C_4  and  N_7
REMARK    2  A    between atoms: N_7  and  C_8
REMARK    3  A    between atoms: N_7  and  C_14
REMARK    4  A    between atoms: C_17  and  C_20
REMARK    5  A    between atoms: N_21  and  N_22
REMARK                            x       y       z     vdW  Elec       q    Type
REMARK                         _______ _______ _______ _____ _____    ______ ____
ROOT
ATOM      1  C   UNL     1      -4.142  11.216   0.032  0.00  0.00    +0.039 A 
ATOM      2  C   UNL     1      -3.075  11.998  -0.398  0.00  0.00    +0.024 A 
ATOM      3  C   UNL     1      -1.811  11.456  -0.480  0.00  0.00    +0.011 A 
ATOM      4  C   UNL     1      -1.601  10.119  -0.131  0.00  0.00    -0.005 A 
ATOM      5  C   UNL     1      -2.677   9.335   0.295  0.00  0.00    +0.011 A 
ATOM      6  C   UNL     1      -3.937   9.884   0.380  0.00  0.00    +0.024 A 
ENDROOT
BRANCH   4   7
ATOM      7  C   UNL     1      -0.251   9.536  -0.219  0.00  0.00    +0.138 C 
ATOM      8  N   UNL     1      -0.058   8.294   0.105  0.00  0.00    -0.189 NA
BRANCH   8   9
ATOM      9  N   UNL     1       1.226   7.739   0.022  0.00  0.00    -0.221 N 
ATOM     10  C   UNL     1       1.432   6.413   0.368  0.00  0.00    +0.139 A 
ATOM     11  C   UNL     1       2.725   5.875   0.280  0.00  0.00    +0.046 A 
ATOM     12  C   UNL     1       2.942   4.573   0.616  0.00  0.00    +0.013 A 
ATOM     13  C   UNL     1       1.843   3.802   1.049  0.00  0.00    +0.001 A 
ATOM     14  C   UNL     1       1.996   2.455   1.412  0.00  0.00    +0.010 A 
ATOM     15  C   UNL     1       0.913   1.741   1.826  0.00  0.00    +0.001 A 
ATOM     16  C   UNL     1      -0.348   2.329   1.889  0.00  0.00    +0.002 A 
ATOM     17  C   UNL     1      -0.532   3.635   1.549  0.00  0.00    +0.028 A 
ATOM     18  C   UNL     1       0.563   4.404   1.117  0.00  0.00    +0.073 A 
ATOM     19  N   UNL     1       0.410   5.687   0.774  0.00  0.00    -0.231 NA
ATOM     20  H   UNL     1       1.971   8.284  -0.277  0.00  0.00    +0.176 HD
ENDBRANCH   8   9
ENDBRANCH   4   7
BRANCH   1  21
ATOM     21  N   UNL     1      -5.422  11.768   0.114  0.00  0.00    -0.269 N 
BRANCH  21  25
ATOM     22  C   UNL     1      -8.363  10.620  -2.603  0.00  0.00    +0.000 A 
ATOM     23  C   UNL     1      -8.685  11.457  -1.550  0.00  0.00    +0.002 A 
ATOM     24  C   UNL     1      -7.712  11.840  -0.648  0.00  0.00    +0.024 A 
ATOM     25  C   UNL     1      -6.409  11.383  -0.798  0.00  0.00    +0.039 A 
ATOM     26  C   UNL     1      -6.088  10.546  -1.859  0.00  0.00    +0.024 A 
ATOM     27  C   UNL     1      -7.067  10.162  -2.755  0.00  0.00    +0.002 A 
ENDBRANCH  21  25
BRANCH  21  28
ATOM     28  C   UNL     1      -5.716  12.706   1.108  0.00  0.00    +0.039 A 
ATOM     29  C   UNL     1      -5.905  14.040   0.771  0.00  0.00    +0.024 A 
ATOM     30  C   UNL     1      -6.201  14.963   1.755  0.00  0.00    +0.002 A 
ATOM     31  C   UNL     1      -6.299  14.562   3.075  0.00  0.00    +0.000 A 
ATOM     32  C   UNL     1      -6.106  13.236   3.414  0.00  0.00    +0.002 A 
ATOM     33  C   UNL     1      -5.815  12.306   2.435  0.00  0.00    +0.024 A 
ENDBRANCH  21  28
ENDBRANCH   1  21
TORSDOF 5
