REMARK  Name = ZINC63571467
REMARK  5 active torsions:
REMARK  status: ('A' for Active; 'I' for Inactive)
REMARK    1  A    between atoms: C_1  and  C_2
REMARK    2  A    between atoms: C_5  and  C_8
REMARK    3  A    between atoms: N_25  and  C_26
REMARK    4  A    between atoms: C_31  and  O_32
REMARK    5  A    between atoms: O_32  and  C_33
REMARK                            x       y       z     vdW  Elec       q    Type
REMARK                         _______ _______ _______ _____ _____    ______ ____
ROOT
ATOM      1  C   UNL     1      -0.457  -4.540   0.681  0.00  0.00    +0.134 C 
ATOM      2  C   UNL     1      -1.575  -5.417   1.256  0.00  0.00    +0.131 C 
ATOM      3  C   UNL     1      -1.076  -6.855   1.191  0.00  0.00    -0.035 C 
ATOM      4  C   UNL     1      -1.982  -7.535   0.498  0.00  0.00    -0.001 A 
ATOM      5  C   UNL     1      -2.088  -8.965   0.164  0.00  0.00    +0.010 A 
ATOM      6  C   UNL     1      -3.161  -9.326  -0.588  0.00  0.00    +0.001 A 
ATOM      7  C   UNL     1      -4.127  -8.420  -1.036  0.00  0.00    +0.002 A 
ATOM      8  C   UNL     1      -4.110  -7.089  -0.773  0.00  0.00    +0.026 A 
ATOM      9  C   UNL     1      -3.032  -6.589   0.014  0.00  0.00    +0.043 A 
ATOM     10  N   UNL     1      -2.787  -5.361   0.435  0.00  0.00    -0.375 N 
ATOM     11  C   UNL     1       0.250  -7.280   1.774  0.00  0.00    +0.052 C 
ATOM     12  C   UNL     1       1.307  -6.303   1.226  0.00  0.00    +0.114 C 
ATOM     13  N   UNL     1       0.803  -4.930   1.333  0.00  0.00    -0.276 N 
ATOM     14  C   UNL     1       1.501  -4.016   2.036  0.00  0.00    +0.307 C 
ATOM     15  O   UNL     1       1.029  -2.914   2.237  0.00  0.00    -0.252 OA
ATOM     16  N   UNL     1       2.723  -4.324   2.516  0.00  0.00    -0.266 N 
ATOM     17  H   UNL     1       3.134  -5.172   2.286  0.00  0.00    +0.156 HD
ATOM     18  H   UNL     1      -3.303  -4.563   0.240  0.00  0.00    +0.160 HD
ENDROOT
BRANCH   1  23
ATOM     19  C   UNL     1      -1.585   1.023   1.764  0.00  0.00    +0.044 C 
ATOM     20  C   UNL     1      -1.290  -0.428   1.482  0.00  0.00    -0.050 A 
ATOM     21  C   UNL     1      -0.685  -0.792   0.293  0.00  0.00    +0.004 A 
ATOM     22  C   UNL     1      -0.415  -2.123   0.034  0.00  0.00    +0.006 A 
ATOM     23  C   UNL     1      -0.750  -3.090   0.964  0.00  0.00    -0.025 A 
ATOM     24  C   UNL     1      -1.355  -2.725   2.153  0.00  0.00    +0.006 A 
ATOM     25  C   UNL     1      -1.621  -1.394   2.413  0.00  0.00    +0.004 A 
ENDBRANCH   1  23
BRANCH  16  26
ATOM     26  C   UNL     1       3.398  -3.419   3.346  0.00  0.00    +0.078 A 
ATOM     27  C   UNL     1       3.142  -2.059   3.246  0.00  0.00    +0.047 A 
ATOM     28  C   UNL     1       3.810  -1.169   4.066  0.00  0.00    +0.043 A 
ATOM     29  C   UNL     1       4.733  -1.630   4.987  0.00  0.00    +0.024 A 
ATOM     30  C   UNL     1       4.993  -2.984   5.092  0.00  0.00    +0.049 A 
ATOM     31  C   UNL     1       4.324  -3.883   4.277  0.00  0.00    +0.141 A 
ATOM     32 CL   UNL     1       3.489   0.533   3.940  0.00  0.00    -0.083 Cl
BRANCH  31  33
ATOM     33  O   UNL     1       4.575  -5.216   4.383  0.00  0.00    -0.493 OA
ATOM     34  C   UNL     1       5.537  -5.619   5.359  0.00  0.00    +0.277 C 
ENDBRANCH  31  33
ENDBRANCH  16  26
TORSDOF 3
