REMARK  Name = ZINC27993707
REMARK  7 active torsions:
REMARK  status: ('A' for Active; 'I' for Inactive)
REMARK    1  A    between atoms: C_1  and  C_2
REMARK    2  A    between atoms: C_2  and  C_3
REMARK    3  A    between atoms: C_2  and  C_4
REMARK    4  A    between atoms: C_2  and  N_5
REMARK    5  A    between atoms: C_11  and  C_14
REMARK    6  A    between atoms: C_14  and  C_15
REMARK    7  A    between atoms: N_20  and  C_23
REMARK                            x       y       z     vdW  Elec       q    Type
REMARK                         _______ _______ _______ _____ _____    ______ ____
ROOT
ATOM      1  C   UNL     1       5.050   4.122  -4.503  0.00  0.00    +0.216 C 
ATOM      2  O   UNL     1       6.191   4.500  -4.345  0.00  0.00    -0.276 OA
ATOM      3  N   UNL     1       4.200   4.088  -3.457  0.00  0.00    -0.299 N 
ATOM      4  C   UNL     1       4.636   4.506  -2.116  0.00  0.00    +0.123 C 
ATOM      5  C   UNL     1       4.270   3.401  -1.119  0.00  0.00    +0.104 C 
ATOM      6  N   UNL     1       2.838   3.092  -1.239  0.00  0.00    -0.287 NA
ATOM      7  C   UNL     1       2.517   2.563  -2.571  0.00  0.00    +0.104 C 
ATOM      8  C   UNL     1       2.812   3.633  -3.627  0.00  0.00    +0.123 C 
ENDROOT
BRANCH   6   9
ATOM      9  C   UNL     1       2.410   2.163  -0.185  0.00  0.00    +0.137 C 
ATOM     10  C   UNL     1       0.980   2.445   0.061  0.00  0.00    -0.021 A 
ATOM     11  C   UNL     1       0.732   3.823   0.237  0.00  0.00    +0.007 A 
ATOM     12  C   UNL     1      -0.543   4.316   0.352  0.00  0.00    +0.020 A 
ATOM     13  C   UNL     1      -1.606   3.430   0.301  0.00  0.00    +0.041 A 
ATOM     14  C   UNL     1      -1.349   2.089   0.179  0.00  0.00    +0.024 A 
ATOM     15  C   UNL     1      -0.031   1.582   0.088  0.00  0.00    -0.041 A 
ATOM     16  C   UNL     1      -0.073   0.070   0.052  0.00  0.00    +0.040 C 
ATOM     17  C   UNL     1       0.811  -0.559  -0.981  0.00  0.00    +0.041 C 
ATOM     18  C   UNL     1       2.287  -0.278  -0.806  0.00  0.00    -0.024 A 
ATOM     19  C   UNL     1       2.958   0.839  -0.552  0.00  0.00    +0.066 A 
ATOM     20  N   UNL     1       4.308   0.838  -0.566  0.00  0.00    -0.258 NA
ATOM     21  C   UNL     1       5.029  -0.240  -0.731  0.00  0.00    +0.111 A 
ATOM     22  C   UNL     1       4.400  -1.457  -0.918  0.00  0.00    +0.020 A 
ATOM     23  C   UNL     1       3.025  -1.478  -0.966  0.00  0.00    +0.007 A 
ATOM     24 CL   UNL     1      -3.240   4.008   0.391  0.00  0.00    -0.084 Cl
ENDBRANCH   6   9
BRANCH   1  25
ATOM     25  C   UNL     1       4.582   3.689  -5.869  0.00  0.00    +0.099 C 
BRANCH  25  32
ATOM     26  N   UNL     1       6.588   4.845 -11.562  0.00  0.00    -0.294 N 
ATOM     27  C   UNL     1       7.019   5.426 -10.425  0.00  0.00    +0.303 C 
ATOM     28  O   UNL     1       7.492   6.545 -10.455  0.00  0.00    -0.253 OA
ATOM     29  N   UNL     1       6.925   4.766  -9.253  0.00  0.00    -0.286 N 
ATOM     30  C   UNL     1       6.462   3.372  -9.214  0.00  0.00    +0.109 C 
ATOM     31  C   UNL     1       5.296   3.268  -8.226  0.00  0.00    +0.023 C 
ATOM     32  C   UNL     1       5.733   3.823  -6.868  0.00  0.00    +0.001 C 
ATOM     33  C   UNL     1       6.110   5.299  -7.016  0.00  0.00    +0.023 C 
ATOM     34  C   UNL     1       7.284   5.427  -7.991  0.00  0.00    +0.109 C 
ATOM     35  H   UNL     1       6.084   3.868 -11.523  0.00  0.00    +0.151 HD
BRANCH  26  37
ATOM     36  C   UNL     1       8.288   5.723 -13.085  0.00  0.00    +0.031 C 
ATOM     37  C   UNL     1       6.791   5.515 -12.849  0.00  0.00    +0.028 C 
ATOM     38  C   UNL     1       6.213   4.649 -13.970  0.00  0.00    +0.031 C 
ATOM     39  C   UNL     1       6.083   6.871 -12.835  0.00  0.00    +0.031 C 
ENDBRANCH  26  37
ENDBRANCH  25  32
ENDBRANCH   1  25
TORSDOF 4
