REMARK  Name = ZINC64045409
REMARK  9 active torsions:
REMARK  status: ('A' for Active; 'I' for Inactive)
REMARK    1  A    between atoms: C_1  and  C_2
REMARK    2  A    between atoms: C_2  and  C_3
REMARK    3  A    between atoms: C_2  and  C_4
REMARK    4  A    between atoms: C_4  and  C_5
REMARK    5  A    between atoms: C_8  and  C_11
REMARK    6  A    between atoms: C_20  and  C_22
REMARK    7  A    between atoms: N_24  and  C_25
REMARK    8  A    between atoms: C_25  and  C_26
REMARK    9  A    between atoms: C_26  and  C_27
REMARK                            x       y       z     vdW  Elec       q    Type
REMARK                         _______ _______ _______ _____ _____    ______ ____
ROOT
ATOM      1  C   UNL     1      -3.601  -1.677  -3.706  0.00  0.00    +0.238 C 
ATOM      2  O   UNL     1      -2.790  -2.243  -4.407  0.00  0.00    -0.273 OA
ATOM      3  N   UNL     1      -4.920  -1.850  -3.927  0.00  0.00    -0.300 N 
ATOM      4  C   UNL     1      -5.910  -1.163  -3.087  0.00  0.00    +0.108 C 
ATOM      5  C   UNL     1      -6.833  -2.211  -2.455  0.00  0.00    +0.026 C 
ATOM      6  C   UNL     1      -7.368  -3.127  -3.559  0.00  0.00    -0.015 C 
ATOM      7  C   UNL     1      -6.295  -3.806  -4.416  0.00  0.00    +0.026 C 
ATOM      8  C   UNL     1      -5.382  -2.722  -5.014  0.00  0.00    +0.108 C 
ATOM      9  C   UNL     1      -8.674  -2.725  -4.244  0.00  0.00    +0.021 C 
ATOM     10  C   UNL     1      -8.650  -3.909  -3.275  0.00  0.00    +0.082 C 
ENDROOT
BRANCH   1  14
ATOM     11  C   UNL     1      -1.644  -1.492  -0.843  0.00  0.00    +0.039 C 
ATOM     12  N   UNL     1      -0.977  -0.855  -1.716  0.00  0.00    -0.195 NA
ATOM     13  N   UNL     1      -1.732  -0.385  -2.789  0.00  0.00    -0.257 N 
ATOM     14  C   UNL     1      -3.136  -0.780  -2.588  0.00  0.00    +0.180 C 
ATOM     15  C   UNL     1      -3.098  -1.551  -1.253  0.00  0.00    +0.085 C 
ATOM     16  H   UNL     1      -1.389   0.120  -3.543  0.00  0.00    +0.169 HD
BRANCH  11  17
ATOM     17  C   UNL     1      -1.071  -2.103   0.409  0.00  0.00    +0.055 C 
BRANCH  17  19
ATOM     18  C   UNL     1       0.674  -0.325   0.605  0.00  0.00    +0.007 C 
ATOM     19  C   UNL     1       0.434  -1.830   0.468  0.00  0.00    -0.012 C 
ATOM     20  C   UNL     1       1.037  -2.554   1.673  0.00  0.00    +0.007 C 
ENDBRANCH  17  19
ENDBRANCH  11  17
ENDBRANCH   1  14
BRANCH  10  21
ATOM     21  C   UNL     1      -9.298  -3.718  -1.928  0.00  0.00    +0.217 C 
ATOM     22  O   UNL     1     -10.204  -2.923  -1.797  0.00  0.00    -0.275 OA
ATOM     23  N   UNL     1      -8.869  -4.431  -0.867  0.00  0.00    -0.315 N 
ATOM     24  H   UNL     1      -8.144  -5.067  -0.971  0.00  0.00    +0.149 HD
BRANCH  23  25
ATOM     25  C   UNL     1      -9.498  -4.246   0.443  0.00  0.00    +0.108 C 
BRANCH  25  26
ATOM     26  C   UNL     1      -8.829  -5.168   1.465  0.00  0.00    +0.052 C 
BRANCH  26  27
ATOM     27  C   UNL     1      -9.477  -4.977   2.812  0.00  0.00    -0.040 C 
ATOM     28  C   UNL     1     -10.476  -5.715   3.346  0.00  0.00    -0.001 A 
ATOM     29  C   UNL     1     -11.231  -6.872   2.851  0.00  0.00    +0.010 A 
ATOM     30  C   UNL     1     -12.197  -7.408   3.631  0.00  0.00    +0.001 A 
ATOM     31  C   UNL     1     -12.494  -6.888   4.899  0.00  0.00    +0.002 A 
ATOM     32  C   UNL     1     -11.844  -5.827   5.422  0.00  0.00    +0.026 A 
ATOM     33  C   UNL     1     -10.809  -5.185   4.688  0.00  0.00    +0.043 A 
ATOM     34  N   UNL     1     -10.044  -4.158   4.972  0.00  0.00    -0.380 N 
ATOM     35  C   UNL     1      -9.136  -3.925   3.844  0.00  0.00    +0.144 C 
ATOM     36  H   UNL     1     -10.073  -3.642   5.792  0.00  0.00    +0.160 HD
ENDBRANCH  26  27
ENDBRANCH  25  26
ENDBRANCH  23  25
ENDBRANCH  10  21
TORSDOF 7
