REMARK  Name = ZINC65828678
REMARK  5 active torsions:
REMARK  status: ('A' for Active; 'I' for Inactive)
REMARK    1  A    between atoms: C_1  and  C_2
REMARK    2  A    between atoms: C_2  and  C_3
REMARK    3  A    between atoms: C_2  and  N_11
REMARK    4  A    between atoms: C_6  and  C_9
REMARK    5  A    between atoms: N_14  and  C_15
REMARK                            x       y       z     vdW  Elec       q    Type
REMARK                         _______ _______ _______ _____ _____    ______ ____
ROOT
ATOM      1  N   UNL     1      -1.371  -0.516   0.012  0.00  0.00    -0.293 N 
ATOM      2  C   UNL     1      -2.052  -0.640  -1.144  0.00  0.00    +0.304 C 
ATOM      3  O   UNL     1      -1.527  -0.328  -2.195  0.00  0.00    -0.252 OA
ATOM      4  N   UNL     1      -3.315  -1.109  -1.135  0.00  0.00    -0.269 N 
ATOM      5  H   UNL     1      -1.790  -0.765   0.851  0.00  0.00    +0.151 HD
ATOM      6  H   UNL     1      -3.711  -1.421  -0.306  0.00  0.00    +0.156 HD
ENDROOT
BRANCH   4   7
ATOM      7  C   UNL     1      -4.053  -1.147  -2.317  0.00  0.00    +0.036 A 
ATOM      8  C   UNL     1      -3.418  -1.431  -3.521  0.00  0.00    +0.024 A 
ATOM      9  C   UNL     1      -4.139  -1.472  -4.700  0.00  0.00    +0.015 A 
ATOM     10  C   UNL     1      -5.505  -1.229  -4.682  0.00  0.00    +0.049 A 
ATOM     11  C   UNL     1      -6.154  -0.941  -3.463  0.00  0.00    +0.051 A 
ATOM     12  C   UNL     1      -5.426  -0.906  -2.287  0.00  0.00    +0.037 A 
ATOM     13  C   UNL     1      -7.579  -0.737  -3.801  0.00  0.00    +0.251 C 
ATOM     14  O   UNL     1      -8.463  -0.468  -3.014  0.00  0.00    -0.270 OA
ATOM     15  N   UNL     1      -7.730  -0.900  -5.128  0.00  0.00    -0.248 N 
ATOM     16  C   UNL     1      -6.556  -1.191  -5.717  0.00  0.00    +0.251 C 
ATOM     17  O   UNL     1      -6.389  -1.389  -6.904  0.00  0.00    -0.270 OA
ATOM     18  H   UNL     1      -8.574  -0.817  -5.598  0.00  0.00    +0.158 HD
ENDBRANCH   4   7
BRANCH   1  20
ATOM     19  C   UNL     1      -0.022   1.524   0.024  0.00  0.00    +0.033 C 
ATOM     20  C   UNL     1       0.003  -0.006   0.003  0.00  0.00    +0.102 C 
BRANCH  20  21
ATOM     21  C   UNL     1       0.736  -0.514   1.217  0.00  0.00    -0.027 A 
ATOM     22  C   UNL     1       0.085  -0.580   2.437  0.00  0.00    +0.007 A 
ATOM     23  C   UNL     1       0.750  -1.043   3.553  0.00  0.00    +0.019 A 
ATOM     24  C   UNL     1       2.083  -1.447   3.450  0.00  0.00    +0.052 A 
ATOM     25  C   UNL     1       2.733  -1.379   2.216  0.00  0.00    +0.019 A 
ATOM     26  C   UNL     1       2.055  -0.917   1.107  0.00  0.00    +0.007 A 
BRANCH  24  27
ATOM     27  C   UNL     1       2.780  -1.929   4.604  0.00  0.00    +0.099 C 
ATOM     28  N   UNL     1       3.333  -2.312   5.520  0.00  0.00    -0.191 NA
ENDBRANCH  24  27
ENDBRANCH  20  21
ENDBRANCH   1  20
TORSDOF 4
