REMARK  Name = ZINC14478596
REMARK  4 active torsions:
REMARK  status: ('A' for Active; 'I' for Inactive)
REMARK    1  A    between atoms: C_1  and  C_2
REMARK    2  A    between atoms: C_7  and  C_8
REMARK    3  A    between atoms: C_20  and  N_25
REMARK    4  A    between atoms: C_21  and  C_24
REMARK                            x       y       z     vdW  Elec       q    Type
REMARK                         _______ _______ _______ _____ _____    ______ ____
ROOT
ATOM      1  C   UNL     1      -0.771   1.135  -0.935  0.00  0.00    +0.105 C 
ATOM      2  C   UNL     1      -1.082   2.624  -0.762  0.00  0.00    +0.029 C 
ATOM      3  C   UNL     1      -2.064   3.040  -1.893  0.00  0.00    +0.033 C 
ATOM      4  C   UNL     1      -1.156   3.286  -3.081  0.00  0.00    -0.030 C 
ATOM      5  C   UNL     1       0.071   3.514  -2.683  0.00  0.00    -0.023 C 
ATOM      6  C   UNL     1       0.159   3.445  -1.175  0.00  0.00    +0.049 C 
ATOM      7  C   UNL     1       1.431   2.772  -0.750  0.00  0.00    -0.019 A 
ATOM      8  C   UNL     1       2.622   3.467  -0.918  0.00  0.00    +0.008 A 
ATOM      9  C   UNL     1       3.824   2.898  -0.551  0.00  0.00    +0.033 A 
ATOM     10  C   UNL     1       3.852   1.625  -0.012  0.00  0.00    +0.131 A 
ATOM     11  C   UNL     1       2.675   0.928   0.160  0.00  0.00    +0.001 A 
ATOM     12  C   UNL     1       1.458   1.499  -0.208  0.00  0.00    +0.036 A 
ATOM     13  N   UNL     1       0.297   0.751  -0.011  0.00  0.00    -0.336 N 
ATOM     14  C   UNL     1       2.704  -0.458   0.750  0.00  0.00    +0.048 C 
ATOM     15  H   UNL     1       0.490  -0.238  -0.073  0.00  0.00    +0.147 HD
ENDROOT
BRANCH   1  22
ATOM     16  C   UNL     1      -2.683   0.232  -2.903  0.00  0.00    +0.044 C 
ATOM     17  C   UNL     1      -1.243   0.443  -3.293  0.00  0.00    -0.045 A 
ATOM     18  C   UNL     1      -0.837   0.205  -4.593  0.00  0.00    +0.004 A 
ATOM     19  C   UNL     1       0.484   0.399  -4.951  0.00  0.00    +0.000 A 
ATOM     20  C   UNL     1       1.399   0.831  -4.009  0.00  0.00    +0.000 A 
ATOM     21  C   UNL     1       0.992   1.075  -2.711  0.00  0.00    +0.006 A 
ATOM     22  C   UNL     1      -0.328   0.875  -2.352  0.00  0.00    -0.024 A 
ENDBRANCH   1  22
BRANCH  10  23
ATOM     23  N   UNL     1       5.141   1.013   0.381  0.00  0.00    +0.057 N 
ATOM     24  O   UNL     1       6.009   1.696   0.895  0.00  0.00    -0.126 OA
ATOM     25  O   UNL     1       5.335  -0.174   0.189  0.00  0.00    -0.126 OA
ENDBRANCH  10  23
TORSDOF 2
