REMARK  Name = ZINC63751056
REMARK  6 active torsions:
REMARK  status: ('A' for Active; 'I' for Inactive)
REMARK    1  A    between atoms: C_1  and  C_2
REMARK    2  A    between atoms: C_2  and  C_4
REMARK    3  A    between atoms: C_2  and  N_14
REMARK    4  A    between atoms: C_15  and  C_17
REMARK    5  A    between atoms: C_17  and  S_18
REMARK    6  A    between atoms: S_18  and  C_19
REMARK                            x       y       z     vdW  Elec       q    Type
REMARK                         _______ _______ _______ _____ _____    ______ ____
ROOT
ATOM      1  N   UNL     1       0.711  -0.489   1.189  0.00  0.00    -0.308 N 
ATOM      2  C   UNL     1       0.051  -0.633   2.355  0.00  0.00    +0.223 C 
ATOM      3  O   UNL     1      -1.129  -0.361   2.423  0.00  0.00    -0.275 OA
ATOM      4  H   UNL     1       1.654  -0.707   1.135  0.00  0.00    +0.149 HD
ENDROOT
BRANCH   1   6
ATOM      5  C   UNL     1      -0.019   1.526   0.010  0.00  0.00    +0.033 C 
ATOM      6  C   UNL     1       0.002  -0.004   0.002  0.00  0.00    +0.100 C 
BRANCH   6   7
ATOM      7  C   UNL     1       0.707  -0.490  -1.238  0.00  0.00    -0.024 A 
ATOM      8  C   UNL     1       2.089  -0.510  -1.283  0.00  0.00    +0.009 A 
ATOM      9  C   UNL     1       2.740  -0.954  -2.418  0.00  0.00    +0.050 A 
ATOM     10  C   UNL     1       2.007  -1.381  -3.517  0.00  0.00    +0.162 A 
ATOM     11  C   UNL     1       0.619  -1.363  -3.471  0.00  0.00    +0.162 A 
ATOM     12  C   UNL     1      -0.028  -0.920  -2.326  0.00  0.00    +0.055 A 
ATOM     13  O   UNL     1      -0.119  -1.784  -4.534  0.00  0.00    -0.485 OA
ATOM     14  C   UNL     1       0.559  -1.874  -5.792  0.00  0.00    +0.270 C 
ATOM     15  C   UNL     1       1.901  -2.582  -5.566  0.00  0.00    +0.270 C 
ATOM     16  O   UNL     1       2.662  -1.811  -4.629  0.00  0.00    -0.485 OA
ENDBRANCH   6   7
ENDBRANCH   1   6
BRANCH   2  17
ATOM     17  C   UNL     1       0.780  -1.133   3.576  0.00  0.00    +0.168 C 
BRANCH  17  18
ATOM     18  S   UNL     1      -0.371  -1.217   4.976  0.00  0.00    -0.106 S 
BRANCH  18  19
ATOM     19  C   UNL     1       0.648  -1.827   6.346  0.00  0.00    +0.236 C 
ATOM     20  N   UNL     1       1.796  -0.935   6.557  0.00  0.00    -0.355 N 
ATOM     21  C   UNL     1       2.876  -1.639   6.372  0.00  0.00    +0.061 A 
ATOM     22  C   UNL     1       4.306  -1.310   6.440  0.00  0.00    +0.027 A 
ATOM     23  C   UNL     1       5.221  -2.268   6.193  0.00  0.00    +0.002 A 
ATOM     24  C   UNL     1       4.867  -3.590   5.869  0.00  0.00    +0.002 A 
ATOM     25  C   UNL     1       3.585  -3.998   5.781  0.00  0.00    +0.027 A 
ATOM     26  C   UNL     1       2.500  -3.038   6.029  0.00  0.00    +0.061 A 
ATOM     27  N   UNL     1       1.203  -3.145   6.014  0.00  0.00    -0.355 N 
ATOM     28  H   UNL     1       1.757   0.005   6.790  0.00  0.00    +0.162 HD
ATOM     29  H   UNL     1       0.696  -3.949   5.820  0.00  0.00    +0.162 HD
ENDBRANCH  18  19
ENDBRANCH  17  18
ENDBRANCH   2  17
TORSDOF 5
