REMARK  Name = ZINC64538576
REMARK  8 active torsions:
REMARK  status: ('A' for Active; 'I' for Inactive)
REMARK    1  A    between atoms: C_1  and  C_2
REMARK    2  A    between atoms: C_3  and  C_31
REMARK    3  A    between atoms: N_11  and  C_14
REMARK    4  A    between atoms: C_14  and  C_15
REMARK    5  A    between atoms: C_15  and  C_16
REMARK    6  A    between atoms: N_18  and  C_19
REMARK    7  A    between atoms: C_19  and  C_20
REMARK    8  A    between atoms: C_20  and  C_21
REMARK                            x       y       z     vdW  Elec       q    Type
REMARK                         _______ _______ _______ _____ _____    ______ ____
ROOT
ATOM      1  C   UNL     1      -5.808  -1.773   2.010  0.00  0.00    +0.215 C 
ATOM      2  O   UNL     1      -5.936  -1.952   3.203  0.00  0.00    -0.276 OA
ATOM      3  N   UNL     1      -6.892  -1.538   1.244  0.00  0.00    -0.315 N 
ATOM      4  H   UNL     1      -6.790  -1.395   0.290  0.00  0.00    +0.149 HD
ENDROOT
BRANCH   1   5
ATOM      5  C   UNL     1      -4.438  -1.813   1.385  0.00  0.00    +0.115 C 
BRANCH   5   6
ATOM      6  C   UNL     1      -3.392  -2.095   2.465  0.00  0.00    +0.118 C 
BRANCH   6  15
ATOM      7  C   UNL     1      -0.018   1.503   0.010  0.00  0.00    +0.043 C 
ATOM      8  C   UNL     1       0.002  -0.004   0.002  0.00  0.00    -0.019 C 
ATOM      9  C   UNL     1       0.008  -0.781  -1.062  0.00  0.00    +0.097 C 
ATOM     10  O   UNL     1       0.023  -2.103  -0.764  0.00  0.00    -0.477 OA
ATOM     11  C   UNL     1       0.461  -2.247   0.598  0.00  0.00    +0.259 C 
ATOM     12  C   UNL     1       0.026  -0.917   1.224  0.00  0.00    +0.160 C 
ATOM     13  C   UNL     1      -1.363  -0.999   1.779  0.00  0.00    +0.229 C 
ATOM     14  O   UNL     1      -1.882   0.021   2.179  0.00  0.00    -0.275 OA
ATOM     15  N   UNL     1      -2.060  -2.133   1.857  0.00  0.00    -0.287 N 
ATOM     16  C   UNL     1      -1.558  -3.407   1.368  0.00  0.00    +0.195 C 
ATOM     17  N   UNL     1      -0.125  -3.404   1.232  0.00  0.00    -0.265 NA
ATOM     18  C   UNL     1      -0.000  -0.251  -2.472  0.00  0.00    +0.085 C 
ATOM     19  H   UNL     1       0.192  -4.256   0.794  0.00  0.00    +0.127 HD
ENDBRANCH   6  15
ENDBRANCH   5   6
ENDBRANCH   1   5
BRANCH   3  20
ATOM     20  C   UNL     1      -8.224  -1.500   1.852  0.00  0.00    +0.108 C 
BRANCH  20  21
ATOM     21  C   UNL     1      -9.270  -1.218   0.772  0.00  0.00    +0.052 C 
BRANCH  21  22
ATOM     22  C   UNL     1     -10.641  -1.178   1.397  0.00  0.00    -0.040 C 
ATOM     23  C   UNL     1     -11.312  -0.081   1.816  0.00  0.00    +0.000 A 
ATOM     24  C   UNL     1     -10.979   1.349   1.815  0.00  0.00    +0.030 A 
ATOM     25  C   UNL     1     -11.875   2.232   2.314  0.00  0.00    +0.042 A 
ATOM     26  C   UNL     1     -13.111   1.815   2.831  0.00  0.00    +0.022 A 
ATOM     27  C   UNL     1     -13.487   0.519   2.866  0.00  0.00    +0.027 A 
ATOM     28  C   UNL     1     -12.622  -0.494   2.367  0.00  0.00    +0.043 A 
ATOM     29  N   UNL     1     -12.756  -1.796   2.292  0.00  0.00    -0.380 N 
ATOM     30  C   UNL     1     -11.547  -2.356   1.678  0.00  0.00    +0.144 C 
ATOM     31 CL   UNL     1     -11.485   3.923   2.314  0.00  0.00    -0.084 Cl
ATOM     32  H   UNL     1     -13.527  -2.304   2.589  0.00  0.00    +0.160 HD
ENDBRANCH  21  22
ENDBRANCH  20  21
ENDBRANCH   3  20
TORSDOF 6
