REMARK  Name = ZINC36571342
REMARK  11 active torsions:
REMARK  status: ('A' for Active; 'I' for Inactive)
REMARK    1  A    between atoms: C_1  and  C_2
REMARK    2  A    between atoms: C_2  and  C_3
REMARK    3  A    between atoms: C_3  and  N_4
REMARK    4  A    between atoms: N_4  and  C_5
REMARK    5  A    between atoms: C_5  and  C_7
REMARK    6  A    between atoms: C_5  and  C_17
REMARK    7  A    between atoms: C_9  and  N_14
REMARK    8  A    between atoms: N_19  and  C_20
REMARK    9  A    between atoms: C_26  and  C_28
REMARK   10  A    between atoms: C_32  and  O_35
REMARK   11  A    between atoms: C_33  and  O_34
REMARK                            x       y       z     vdW  Elec       q    Type
REMARK                         _______ _______ _______ _____ _____    ______ ____
ROOT
ATOM      1  C   UNL     1      -1.029  -4.791   1.920  0.00  0.00    +0.194 C 
ENDROOT
BRANCH   1   2
ATOM      2  C   UNL     1       0.341  -4.863   1.297  0.00  0.00    +0.002 A 
ATOM      3  C   UNL     1       1.173  -3.759   1.328  0.00  0.00    +0.040 A 
ATOM      4  C   UNL     1       2.430  -3.825   0.756  0.00  0.00    +0.127 A 
ATOM      5  C   UNL     1       2.856  -4.994   0.153  0.00  0.00    +0.034 A 
ATOM      6  C   UNL     1       2.025  -6.098   0.122  0.00  0.00    +0.022 A 
ATOM      7  C   UNL     1       0.769  -6.035   0.699  0.00  0.00    +0.047 A 
ATOM      8 CL   UNL     1      -0.273  -7.423   0.667  0.00  0.00    -0.083 Cl
BRANCH   4   9
ATOM      9  N   UNL     1       3.320  -2.643   0.789  0.00  0.00    +0.056 N 
ATOM     10  O   UNL     1       2.987  -1.652   1.396  0.00  0.00    -0.126 OA
ATOM     11  O   UNL     1       4.380  -2.668   0.208  0.00  0.00    -0.126 OA
ENDBRANCH   4   9
ENDBRANCH   1   2
BRANCH   1  12
ATOM     12  C   UNL     1      -1.051  -5.615   3.182  0.00  0.00    +0.238 C 
ATOM     13  O   UNL     1      -1.883  -5.395   4.036  0.00  0.00    -0.273 OA
ATOM     14  N   UNL     1      -0.146  -6.598   3.360  0.00  0.00    -0.311 N 
ATOM     15  H   UNL     1       0.519  -6.775   2.677  0.00  0.00    +0.149 HD
BRANCH  14  16
ATOM     16  C   UNL     1      -0.168  -7.400   4.586  0.00  0.00    +0.073 C 
ATOM     17  C   UNL     1       0.619  -6.677   5.682  0.00  0.00    +0.022 C 
ATOM     18  C   UNL     1       0.596  -7.514   6.962  0.00  0.00    +0.002 C 
ATOM     19  C   UNL     1       1.235  -8.878   6.691  0.00  0.00    +0.000 C 
ATOM     20  C   UNL     1       0.448  -9.601   5.596  0.00  0.00    +0.002 C 
ATOM     21  C   UNL     1       0.471  -8.764   4.315  0.00  0.00    +0.022 C 
ENDBRANCH  14  16
ENDBRANCH   1  12
BRANCH   1  22
ATOM     22  N   UNL     1      -1.347  -3.397   2.242  0.00  0.00    -0.282 N 
ATOM     23  C   UNL     1      -1.105  -2.426   1.340  0.00  0.00    +0.251 C 
ATOM     24  O   UNL     1      -1.360  -1.268   1.611  0.00  0.00    -0.270 OA
BRANCH  23  25
ATOM     25  C   UNL     1      -0.532  -2.766   0.024  0.00  0.00    +0.082 A 
ATOM     26  C   UNL     1      -0.658  -4.063  -0.482  0.00  0.00    +0.017 A 
ATOM     27  C   UNL     1      -0.121  -4.378  -1.712  0.00  0.00    +0.005 A 
ATOM     28  C   UNL     1       0.544  -3.414  -2.452  0.00  0.00    +0.049 A 
ATOM     29  C   UNL     1       0.678  -2.126  -1.964  0.00  0.00    +0.159 A 
ATOM     30  C   UNL     1       0.136  -1.791  -0.726  0.00  0.00    +0.171 A 
BRANCH  30  31
ATOM     31  O   UNL     1       0.260  -0.528  -0.246  0.00  0.00    -0.503 OA
ATOM     32  H   UNL     1       1.057  -0.384   0.282  0.00  0.00    +0.292 HD
ENDBRANCH  30  31
BRANCH  29  33
ATOM     33  O   UNL     1       1.333  -1.185  -2.696  0.00  0.00    -0.503 OA
ATOM     34  H   UNL     1       0.762  -0.687  -3.297  0.00  0.00    +0.292 HD
ENDBRANCH  29  33
ENDBRANCH  23  25
BRANCH  22  35
ATOM     35  C   UNL     1      -1.927  -3.061   3.545  0.00  0.00    +0.109 C 
BRANCH  35  37
ATOM     36  C   UNL     1      -4.051  -2.891   4.849  0.00  0.00    +0.005 C 
ATOM     37  C   UNL     1      -3.443  -3.260   3.495  0.00  0.00    +0.016 C 
ENDBRANCH  35  37
ENDBRANCH  22  35
ENDBRANCH   1  22
TORSDOF 10
