REMARK  Name = ZINC12407415
REMARK  4 active torsions:
REMARK  status: ('A' for Active; 'I' for Inactive)
REMARK    1  A    between atoms: C_4  and  N_7
REMARK    2  A    between atoms: C_22  and  C_24
REMARK    3  A    between atoms: C_24  and  C_25
REMARK    4  A    between atoms: N_27  and  C_28
REMARK                            x       y       z     vdW  Elec       q    Type
REMARK                         _______ _______ _______ _____ _____    ______ ____
ROOT
ATOM      1  N   UNL     1       1.377   7.932   2.953  0.00  0.00    -0.269 N 
ATOM      2  C   UNL     1       1.417   7.736   1.620  0.00  0.00    +0.307 C 
ATOM      3  O   UNL     1       0.797   6.816   1.123  0.00  0.00    -0.252 OA
ATOM      4  N   UNL     1       2.143   8.561   0.839  0.00  0.00    -0.269 N 
ATOM      5  C   UNL     1       2.874   9.704   1.397  0.00  0.00    +0.099 C 
ATOM      6  C   UNL     1       2.667   9.820   2.905  0.00  0.00    +0.024 C 
ATOM      7  C   UNL     1       3.449  11.036   3.414  0.00  0.00    +0.002 C 
ATOM      8  C   UNL     1       4.936  10.879   3.096  0.00  0.00    +0.002 C 
ATOM      9  C   UNL     1       5.138  10.720   1.585  0.00  0.00    +0.024 C 
ATOM     10  C   UNL     1       4.363   9.494   1.114  0.00  0.00    +0.093 C 
ATOM     11  N   UNL     1       4.577   9.216  -0.294  0.00  0.00    -0.309 N 
ATOM     12  C   UNL     1       3.646   8.638  -1.071  0.00  0.00    +0.234 C 
ATOM     13  O   UNL     1       3.954   8.335  -2.204  0.00  0.00    -0.274 OA
ATOM     14  C   UNL     1       2.241   8.358  -0.616  0.00  0.00    +0.172 C 
ATOM     15  H   UNL     1       1.734   8.750   3.334  0.00  0.00    +0.156 HD
ATOM     16  H   UNL     1       5.436   9.445  -0.684  0.00  0.00    +0.149 HD
ENDROOT
BRANCH   1  20
ATOM     17  C   UNL     1      -0.280   5.027   5.437  0.00  0.00    +0.000 A 
ATOM     18  C   UNL     1      -0.511   6.366   5.692  0.00  0.00    +0.002 A 
ATOM     19  C   UNL     1       0.037   7.332   4.871  0.00  0.00    +0.023 A 
ATOM     20  C   UNL     1       0.821   6.956   3.788  0.00  0.00    +0.035 A 
ATOM     21  C   UNL     1       1.046   5.610   3.531  0.00  0.00    +0.023 A 
ATOM     22  C   UNL     1       0.500   4.650   4.359  0.00  0.00    +0.002 A 
ENDBRANCH   1  20
BRANCH  14  23
ATOM     23  C   UNL     1       1.874   6.912  -0.956  0.00  0.00    +0.128 C 
BRANCH  23  24
ATOM     24  C   UNL     1       0.374   6.772  -1.002  0.00  0.00    +0.219 C 
ATOM     25  O   UNL     1      -0.331   7.739  -0.805  0.00  0.00    -0.275 OA
ATOM     26  N   UNL     1      -0.183   5.573  -1.261  0.00  0.00    -0.285 N 
ATOM     27  H   UNL     1       0.378   4.786  -1.347  0.00  0.00    +0.155 HD
BRANCH  26  28
ATOM     28  C   UNL     1      -1.570   5.462  -1.406  0.00  0.00    +0.036 A 
ATOM     29  C   UNL     1      -2.412   6.320  -0.711  0.00  0.00    +0.043 A 
ATOM     30  C   UNL     1      -3.783   6.209  -0.856  0.00  0.00    +0.044 A 
ATOM     31  C   UNL     1      -4.315   5.247  -1.696  0.00  0.00    +0.040 A 
ATOM     32  C   UNL     1      -3.478   4.386  -2.385  0.00  0.00    +0.044 A 
ATOM     33  C   UNL     1      -2.107   4.494  -2.244  0.00  0.00    +0.043 A 
ATOM     34 CL   UNL     1      -4.150   3.176  -3.433  0.00  0.00    -0.083 Cl
ATOM     35 CL   UNL     1      -4.836   7.281   0.012  0.00  0.00    -0.083 Cl
ENDBRANCH  26  28
ENDBRANCH  23  24
ENDBRANCH  14  23
TORSDOF 4
