REMARK  Name = ZINC38971480
REMARK  10 active torsions:
REMARK  status: ('A' for Active; 'I' for Inactive)
REMARK    1  A    between atoms: C_1  and  C_2
REMARK    2  A    between atoms: C_2  and  O_3
REMARK    3  A    between atoms: O_3  and  C_4
REMARK    4  A    between atoms: C_4  and  C_6
REMARK    5  A    between atoms: C_9  and  N_12
REMARK    6  A    between atoms: N_12  and  C_13
REMARK    7  A    between atoms: N_16  and  S_17
REMARK    8  A    between atoms: S_17  and  C_20
REMARK    9  A    between atoms: C_23  and  C_27
REMARK   10  A    between atoms: C_24  and  C_26
REMARK                            x       y       z     vdW  Elec       q    Type
REMARK                         _______ _______ _______ _____ _____    ______ ____
ROOT
ATOM      1  C   UNL     1       3.569  -5.336  -6.002  0.00  0.00    +0.237 C 
ATOM      2  C   UNL     1       3.215  -5.732  -7.418  0.00  0.00    +0.192 C 
ATOM      3  N   UNL     1       2.030  -5.488  -7.895  0.00  0.00    -0.110 NA
ATOM      4  N   UNL     1       4.143  -6.338  -8.176  0.00  0.00    -0.226 NA
ATOM      5  C   UNL     1       5.350  -6.595  -7.716  0.00  0.00    +0.089 A 
ATOM      6  C   UNL     1       6.305  -7.237  -8.545  0.00  0.00    +0.030 A 
ATOM      7  C   UNL     1       7.544  -7.504  -8.079  0.00  0.00    +0.002 A 
ATOM      8  C   UNL     1       7.954  -7.171  -6.777  0.00  0.00    +0.002 A 
ATOM      9  C   UNL     1       7.123  -6.558  -5.906  0.00  0.00    +0.027 A 
ATOM     10  C   UNL     1       5.756  -6.232  -6.336  0.00  0.00    +0.063 A 
ATOM     11  N   UNL     1       4.927  -5.639  -5.524  0.00  0.00    -0.359 N 
ATOM     12  H   UNL     1       5.200  -5.404  -4.623  0.00  0.00    +0.162 HD
ENDROOT
BRANCH   3  13
ATOM     13  S   UNL     1       1.656  -5.926  -9.447  0.00  0.00    +0.100 S 
ATOM     14  O   UNL     1       2.464  -5.128 -10.301  0.00  0.00    -0.146 OA
ATOM     15  O   UNL     1       1.680  -7.346  -9.485  0.00  0.00    -0.146 OA
BRANCH  13  16
ATOM     16  C   UNL     1      -0.013  -5.442  -9.737  0.00  0.00    +0.113 A 
ATOM     17  C   UNL     1      -1.046  -6.317  -9.453  0.00  0.00    +0.029 A 
ATOM     18  C   UNL     1      -2.355  -5.938  -9.680  0.00  0.00    +0.005 A 
ATOM     19  C   UNL     1      -2.632  -4.683 -10.191  0.00  0.00    -0.047 A 
ATOM     20  C   UNL     1      -1.601  -3.808 -10.474  0.00  0.00    -0.046 A 
ATOM     21  C   UNL     1      -0.291  -4.186 -10.243  0.00  0.00    +0.032 A 
ATOM     22  C   UNL     1      -1.903  -2.441 -11.031  0.00  0.00    +0.044 C 
ATOM     23  C   UNL     1      -4.060  -4.270 -10.440  0.00  0.00    +0.044 C 
ENDBRANCH  13  16
ENDBRANCH   3  13
BRANCH   1  24
ATOM     24  N   UNL     1       3.363  -3.891  -5.877  0.00  0.00    -0.318 N 
ATOM     25  H   UNL     1       3.761  -3.287  -6.523  0.00  0.00    +0.148 HD
BRANCH  24  29
ATOM     26  C   UNL     1       1.075  -2.380  -2.753  0.00  0.00    +0.059 A 
ATOM     27  C   UNL     1       1.422  -3.735  -2.776  0.00  0.00    +0.017 A 
ATOM     28  C   UNL     1       2.176  -4.230  -3.808  0.00  0.00    +0.024 A 
ATOM     29  C   UNL     1       2.597  -3.386  -4.832  0.00  0.00    +0.029 A 
ATOM     30  C   UNL     1       2.253  -2.037  -4.813  0.00  0.00    +0.024 A 
ATOM     31  C   UNL     1       1.494  -1.536  -3.786  0.00  0.00    +0.017 A 
BRANCH  26  32
ATOM     32  C   UNL     1       0.263  -1.845  -1.646  0.00  0.00    +0.339 C 
ATOM     33  O   UNL     1      -0.042  -0.669  -1.629  0.00  0.00    -0.245 OA
BRANCH  32  34
ATOM     34  O   UNL     1      -0.141  -2.659  -0.651  0.00  0.00    -0.461 OA
BRANCH  34  36
ATOM     35  C   UNL     1      -1.286  -3.144   1.422  0.00  0.00    +0.048 C 
ATOM     36  C   UNL     1      -0.924  -2.073   0.391  0.00  0.00    +0.229 C 
ENDBRANCH  34  36
ENDBRANCH  32  34
ENDBRANCH  26  32
ENDBRANCH  24  29
ENDBRANCH   1  24
TORSDOF 7
