REMARK  Name = ZINC63810168
REMARK  8 active torsions:
REMARK  status: ('A' for Active; 'I' for Inactive)
REMARK    1  A    between atoms: C_1  and  C_2
REMARK    2  A    between atoms: N_6  and  C_8
REMARK    3  A    between atoms: C_8  and  C_9
REMARK    4  A    between atoms: C_8  and  C_10
REMARK    5  A    between atoms: C_10  and  N_11
REMARK    6  A    between atoms: C_12  and  C_14
REMARK    7  A    between atoms: C_18  and  N_21
REMARK    8  A    between atoms: C_19  and  N_20
REMARK                            x       y       z     vdW  Elec       q    Type
REMARK                         _______ _______ _______ _____ _____    ______ ____
ROOT
ATOM      1  N   UNL     1       0.754  -0.375   3.528  0.00  0.00    -0.313 N 
ATOM      2  C   UNL     1       0.227   0.365   4.523  0.00  0.00    +0.246 C 
ATOM      3  O   UNL     1      -0.085  -0.163   5.574  0.00  0.00    -0.270 OA
ATOM      4  H   UNL     1       1.003   0.045   2.690  0.00  0.00    +0.149 HD
ENDROOT
BRANCH   2   5
ATOM      5  C   UNL     1       0.029   1.814   4.339  0.00  0.00    +0.062 A 
ATOM      6  C   UNL     1       0.511   2.449   3.191  0.00  0.00    +0.053 A 
ATOM      7  C   UNL     1       0.322   3.805   3.025  0.00  0.00    +0.126 A 
ATOM      8  C   UNL     1      -0.344   4.543   3.993  0.00  0.00    +0.073 A 
ATOM      9  C   UNL     1      -0.824   3.929   5.132  0.00  0.00    +0.150 A 
ATOM     10  C   UNL     1      -0.649   2.563   5.313  0.00  0.00    +0.068 A 
ATOM     11  F   UNL     1       0.787   4.418   1.914  0.00  0.00    -0.205 F 
BRANCH  10  12
ATOM     12  N   UNL     1      -1.138   1.942   6.456  0.00  0.00    -0.356 N 
ATOM     13  H   UNL     1      -1.229   2.445   7.280  0.00  0.00    +0.142 HD
ATOM     14  H   UNL     1      -1.387   1.005   6.430  0.00  0.00    +0.142 HD
ENDBRANCH  10  12
BRANCH   9  15
ATOM     15  N   UNL     1      -1.532   4.726   6.159  0.00  0.00    +0.058 N 
ATOM     16  O   UNL     1      -1.764   5.896   5.962  0.00  0.00    -0.126 OA
ATOM     17  O   UNL     1      -1.878   4.207   7.194  0.00  0.00    -0.126 OA
ENDBRANCH   9  15
ENDBRANCH   2   5
BRANCH   1  18
ATOM     18  C   UNL     1       0.951  -1.815   3.711  0.00  0.00    +0.089 C 
BRANCH  18  19
ATOM     19  C   UNL     1       1.664  -2.393   2.486  0.00  0.00    -0.054 C 
ATOM     20  C   UNL     1       1.807  -3.908   2.646  0.00  0.00    -0.012 C 
BRANCH  19  26
ATOM     21  C   UNL     1       1.641  -2.593  -2.405  0.00  0.00    +0.005 C 
ATOM     22  C   UNL     1       0.855  -2.147  -1.170  0.00  0.00    -0.031 C 
ATOM     23  C   UNL     1      -0.508  -2.845  -1.152  0.00  0.00    -0.001 C 
ATOM     24  C   UNL     1      -1.254  -2.453   0.127  0.00  0.00    -0.018 C 
ATOM     25  C   UNL     1      -0.399  -2.818   1.342  0.00  0.00    -0.078 C 
ATOM     26  N   UNL     1       0.879  -2.099   1.280  0.00  0.00    +0.383 N 
ATOM     27  C   UNL     1       1.632  -2.524   0.093  0.00  0.00    -0.075 C 
ATOM     28  H   UNL     1       0.704  -1.107   1.228  0.00  0.00    -0.081 HD
ENDBRANCH  19  26
ENDBRANCH  18  19
ENDBRANCH   1  18
TORSDOF 6
