REMARK  Name = ZINC59105773
REMARK  8 active torsions:
REMARK  status: ('A' for Active; 'I' for Inactive)
REMARK    1  A    between atoms: C_1  and  C_2
REMARK    2  A    between atoms: C_2  and  O_3
REMARK    3  A    between atoms: O_3  and  C_4
REMARK    4  A    between atoms: C_6  and  C_19
REMARK    5  A    between atoms: C_9  and  O_10
REMARK    6  A    between atoms: O_10  and  C_11
REMARK    7  A    between atoms: C_11  and  C_12
REMARK    8  A    between atoms: N_25  and  C_26
REMARK                            x       y       z     vdW  Elec       q    Type
REMARK                         _______ _______ _______ _____ _____    ______ ____
ROOT
ATOM      1  C   UNL     1      -1.599  -1.923  -0.157  0.00  0.00    +0.162 A 
ATOM      2  C   UNL     1      -0.477  -2.725  -0.232  0.00  0.00    +0.057 A 
ATOM      3  C   UNL     1      -0.577  -4.091   0.059  0.00  0.00    -0.020 A 
ATOM      4  C   UNL     1      -1.814  -4.636   0.425  0.00  0.00    +0.012 A 
ATOM      5  C   UNL     1      -2.927  -3.828   0.496  0.00  0.00    +0.050 A 
ATOM      6  C   UNL     1      -2.826  -2.473   0.213  0.00  0.00    +0.162 A 
ENDROOT
BRANCH   3   7
ATOM      7  C   UNL     1       0.612  -4.949  -0.018  0.00  0.00    +0.028 C 
ATOM      8  C   UNL     1       0.510  -6.206  -0.520  0.00  0.00    +0.078 C 
ATOM      9  C   UNL     1      -0.631  -6.855  -1.195  0.00  0.00    +0.256 C 
ATOM     10  O   UNL     1      -1.680  -6.266  -1.379  0.00  0.00    -0.269 OA
ATOM     11  N   UNL     1      -0.461  -8.105  -1.592  0.00  0.00    -0.260 N 
ATOM     12  C   UNL     1       0.735  -8.755  -1.375  0.00  0.00    +0.166 C 
ATOM     13  N   UNL     1       1.068  -9.983  -1.701  0.00  0.00    -0.226 NA
ATOM     14  S   UNL     1       1.723  -7.518  -0.549  0.00  0.00    -0.049 S 
ATOM     15  H   UNL     1      -1.186  -8.569  -2.039  0.00  0.00    +0.157 HD
BRANCH  13  16
ATOM     16  C   UNL     1       2.317 -10.457  -1.398  0.00  0.00    +0.067 A 
ATOM     17  C   UNL     1       3.443  -9.667  -1.638  0.00  0.00    +0.030 A 
ATOM     18  C   UNL     1       4.698 -10.149  -1.331  0.00  0.00    +0.040 A 
ATOM     19  C   UNL     1       4.843 -11.415  -0.785  0.00  0.00    +0.124 A 
ATOM     20  C   UNL     1       3.729 -12.203  -0.545  0.00  0.00    +0.040 A 
ATOM     21  C   UNL     1       2.468 -11.729  -0.843  0.00  0.00    +0.030 A 
ATOM     22  F   UNL     1       6.075 -11.882  -0.487  0.00  0.00    -0.205 F 
ENDBRANCH  13  16
ENDBRANCH   3   7
BRANCH   1  23
ATOM     23  O   UNL     1      -1.506  -0.596  -0.439  0.00  0.00    -0.489 OA
BRANCH  23  25
ATOM     24  C   UNL     1      -0.310   1.401  -1.087  0.00  0.00    +0.048 C 
ATOM     25  C   UNL     1      -0.218  -0.100  -0.811  0.00  0.00    +0.226 C 
ENDBRANCH  23  25
ENDBRANCH   1  23
BRANCH   6  26
ATOM     26  O   UNL     1      -3.927  -1.680   0.290  0.00  0.00    -0.484 OA
BRANCH  26  27
ATOM     27  C   UNL     1      -5.152  -2.307   0.675  0.00  0.00    +0.264 C 
BRANCH  27  28
ATOM     28  C   UNL     1      -6.254  -1.280   0.706  0.00  0.00    -0.010 A 
ATOM     29  C   UNL     1      -6.511  -0.578   1.869  0.00  0.00    +0.010 A 
ATOM     30  C   UNL     1      -7.521   0.365   1.899  0.00  0.00    +0.039 A 
ATOM     31  C   UNL     1      -8.276   0.606   0.764  0.00  0.00    +0.123 A 
ATOM     32  C   UNL     1      -8.018  -0.098  -0.400  0.00  0.00    +0.039 A 
ATOM     33  C   UNL     1      -7.004  -1.036  -0.429  0.00  0.00    +0.010 A 
ATOM     34  F   UNL     1      -9.264   1.527   0.792  0.00  0.00    -0.205 F 
ENDBRANCH  27  28
ENDBRANCH  26  27
ENDBRANCH   6  26
TORSDOF 7
