REMARK  Name = ZINC67292362
REMARK  8 active torsions:
REMARK  status: ('A' for Active; 'I' for Inactive)
REMARK    1  A    between atoms: C_1  and  C_2
REMARK    2  A    between atoms: C_2  and  O_3
REMARK    3  A    between atoms: O_3  and  C_4
REMARK    4  A    between atoms: C_4  and  C_6
REMARK    5  A    between atoms: C_9  and  N_12
REMARK    6  A    between atoms: C_14  and  C_24
REMARK    7  A    between atoms: N_26  and  C_27
REMARK    8  A    between atoms: C_27  and  C_28
REMARK                            x       y       z     vdW  Elec       q    Type
REMARK                         _______ _______ _______ _____ _____    ______ ____
ROOT
ATOM      1  N   UNL     1       3.461  -3.935   5.753  0.00  0.00    -0.325 N 
ATOM      2  C   UNL     1       2.934  -4.948   6.412  0.00  0.00    +0.212 A 
ATOM      3  C   UNL     1       3.664  -5.596   7.518  0.00  0.00    +0.097 A 
ATOM      4  C   UNL     1       2.902  -6.219   8.500  0.00  0.00    +0.030 A 
ATOM      5  C   UNL     1       1.446  -6.176   8.349  0.00  0.00    +0.019 A 
ATOM      6  C   UNL     1       0.605  -6.538   9.408  0.00  0.00    +0.026 A 
ATOM      7  C   UNL     1      -0.761  -6.483   9.241  0.00  0.00    +0.019 A 
ATOM      8  C   UNL     1      -1.305  -6.073   8.030  0.00  0.00    +0.019 A 
ATOM      9  C   UNL     1      -0.488  -5.716   6.977  0.00  0.00    +0.048 A 
ATOM     10  C   UNL     1       0.891  -5.765   7.122  0.00  0.00    +0.137 A 
ATOM     11  O   UNL     1       1.703  -5.422   6.097  0.00  0.00    -0.439 OA
ATOM     12 BR   UNL     1      -1.903  -6.969  10.667  0.00  0.00    -0.050 Br
ATOM     13  H   UNL     1       4.302  -3.551   6.046  0.00  0.00    +0.169 HD
ENDROOT
BRANCH   1  17
ATOM     14  C   UNL     1       1.531  -2.397   2.446  0.00  0.00    +0.059 A 
ATOM     15  C   UNL     1       2.059  -1.533   3.413  0.00  0.00    +0.017 A 
ATOM     16  C   UNL     1       2.697  -2.041   4.506  0.00  0.00    +0.026 A 
ATOM     17  C   UNL     1       2.823  -3.428   4.662  0.00  0.00    +0.042 A 
ATOM     18  C   UNL     1       2.294  -4.292   3.695  0.00  0.00    +0.026 A 
ATOM     19  C   UNL     1       1.652  -3.783   2.604  0.00  0.00    +0.017 A 
BRANCH  14  20
ATOM     20  C   UNL     1       0.843  -1.849   1.266  0.00  0.00    +0.339 C 
ATOM     21  O   UNL     1       0.380  -2.599   0.429  0.00  0.00    -0.245 OA
BRANCH  20  22
ATOM     22  O   UNL     1       0.727  -0.515   1.113  0.00  0.00    -0.461 OA
BRANCH  22  24
ATOM     23  C   UNL     1       0.014   1.477  -0.055  0.00  0.00    +0.048 C 
ATOM     24  C   UNL     1       0.047  -0.052  -0.056  0.00  0.00    +0.229 C 
ENDBRANCH  22  24
ENDBRANCH  20  22
ENDBRANCH  14  20
ENDBRANCH   1  17
BRANCH   3  25
ATOM     25  C   UNL     1       5.135  -5.584   7.580  0.00  0.00    +0.249 C 
ATOM     26  O   UNL     1       5.773  -4.958   6.755  0.00  0.00    -0.270 OA
ATOM     27  N   UNL     1       5.775  -6.268   8.550  0.00  0.00    -0.309 N 
ATOM     28  H   UNL     1       5.271  -6.827   9.162  0.00  0.00    +0.149 HD
BRANCH  27  29
ATOM     29  C   UNL     1       7.231  -6.166   8.679  0.00  0.00    +0.136 C 
BRANCH  29  30
ATOM     30  C   UNL     1       7.700  -7.033   9.849  0.00  0.00    +0.135 C 
ATOM     31  C   UNL     1       9.216  -6.838  10.070  0.00  0.00    +0.035 C 
ATOM     32  C   UNL     1       9.687  -8.279  10.408  0.00  0.00    +0.031 C 
ATOM     33  C   UNL     1       8.734  -9.116   9.518  0.00  0.00    +0.160 C 
ATOM     34  O   UNL     1       7.479  -8.415   9.549  0.00  0.00    -0.375 OA
ENDBRANCH  29  30
ENDBRANCH  27  29
ENDBRANCH   3  25
TORSDOF 7
