REMARK  Name = ZINC00504641
REMARK  4 active torsions:
REMARK  status: ('A' for Active; 'I' for Inactive)
REMARK    1  A    between atoms: C_3  and  O_9
REMARK    2  A    between atoms: O_9  and  C_10
REMARK    3  A    between atoms: C_10  and  C_11
REMARK    4  A    between atoms: N_13  and  N_14
REMARK                            x       y       z     vdW  Elec       q    Type
REMARK                         _______ _______ _______ _____ _____    ______ ____
ROOT
ATOM      1  C   UNL     1       2.312  -0.304  -0.023  0.00  0.00    +0.326 C 
ENDROOT
BRANCH   1   2
ATOM      2  C   UNL     1       3.713  -0.860  -0.040  0.00  0.00    +0.270 C 
ATOM      3  O   UNL     1       4.664  -0.107  -0.044  0.00  0.00    -0.270 OA
ATOM      4  N   UNL     1       3.909  -2.193  -0.049  0.00  0.00    -0.204 N 
ATOM      5  H   UNL     1       3.148  -2.795  -0.045  0.00  0.00    +0.177 HD
BRANCH   4   6
ATOM      6  N   UNL     1       5.211  -2.709  -0.065  0.00  0.00    -0.189 NA
ATOM      7  C   UNL     1       5.397  -3.976  -0.074  0.00  0.00    +0.037 C 
ATOM      8  C   UNL     1       4.321  -5.042  -0.063  0.00  0.00    +0.052 C 
ATOM      9  C   UNL     1       5.042  -6.405  -0.074  0.00  0.00    +0.006 C 
ATOM     10  C   UNL     1       6.442  -6.085   0.509  0.00  0.00    +0.006 C 
ATOM     11  C   UNL     1       6.739  -4.688  -0.091  0.00  0.00    +0.052 C 
ENDBRANCH   4   6
ENDBRANCH   1   2
BRANCH   1  12
ATOM     12  O   UNL     1       2.366   1.123  -0.015  0.00  0.00    -0.481 OA
BRANCH  12  15
ATOM     13  C   UNL     1      -1.218   1.751   0.017  0.00  0.00    +0.019 A 
ATOM     14  C   UNL     1      -0.013   1.076   0.008  0.00  0.00    +0.048 A 
ATOM     15  C   UNL     1       1.179   1.786   0.000  0.00  0.00    +0.139 A 
ATOM     16  C   UNL     1       1.157   3.174   0.008  0.00  0.00    +0.084 A 
ATOM     17  C   UNL     1      -0.051   3.845   0.023  0.00  0.00    +0.039 A 
ATOM     18  C   UNL     1      -1.238   3.134   0.031  0.00  0.00    +0.019 A 
ATOM     19 BR   UNL     1      -2.890   4.054   0.051  0.00  0.00    -0.050 Br
ATOM     20 CL   UNL     1       2.646   4.066  -0.002  0.00  0.00    -0.080 Cl
ENDBRANCH  12  15
ENDBRANCH   1  12
TORSDOF 4
