REMARK  Name = ZINC08949985
REMARK  11 active torsions:
REMARK  status: ('A' for Active; 'I' for Inactive)
REMARK    1  A    between atoms: C_1  and  C_2
REMARK    2  A    between atoms: C_2  and  C_3
REMARK    3  A    between atoms: C_3  and  C_4
REMARK    4  A    between atoms: C_4  and  O_5
REMARK    5  A    between atoms: O_5  and  C_6
REMARK    6  A    between atoms: C_6  and  C_8
REMARK    7  A    between atoms: C_11  and  N_14
REMARK    8  A    between atoms: C_15  and  C_17
REMARK    9  A    between atoms: C_17  and  S_18
REMARK   10  A    between atoms: S_18  and  C_19
REMARK   11  A    between atoms: C_31  and  C_35
REMARK                            x       y       z     vdW  Elec       q    Type
REMARK                         _______ _______ _______ _____ _____    ______ ____
ROOT
ATOM      1  C   UNL     1       2.277   5.674   0.226  0.00  0.00    +0.173 C 
ENDROOT
BRANCH   1   3
ATOM      2  N   UNL     1       1.155   3.480   0.010  0.00  0.00    -0.285 N 
ATOM      3  C   UNL     1       2.308   4.172   0.104  0.00  0.00    +0.227 C 
ATOM      4  O   UNL     1       3.370   3.587   0.091  0.00  0.00    -0.275 OA
ATOM      5  H   UNL     1       0.310   3.951  -0.057  0.00  0.00    +0.155 HD
BRANCH   2   9
ATOM      6  C   UNL     1       1.222  -0.685   0.004  0.00  0.00    +0.059 A 
ATOM      7  C   UNL     1       0.259   0.002  -0.742  0.00  0.00    +0.017 A 
ATOM      8  C   UNL     1       0.240   1.378  -0.738  0.00  0.00    +0.024 A 
ATOM      9  C   UNL     1       1.177   2.086   0.008  0.00  0.00    +0.033 A 
ATOM     10  C   UNL     1       2.137   1.406   0.752  0.00  0.00    +0.024 A 
ATOM     11  C   UNL     1       2.162   0.030   0.752  0.00  0.00    +0.017 A 
BRANCH   6  12
ATOM     12  C   UNL     1       1.245  -2.159   0.003  0.00  0.00    +0.339 C 
ATOM     13  O   UNL     1       0.427  -2.779  -0.648  0.00  0.00    -0.245 OA
BRANCH  12  14
ATOM     14  O   UNL     1       2.173  -2.819   0.723  0.00  0.00    -0.461 OA
BRANCH  14  15
ATOM     15  C   UNL     1       2.136  -4.270   0.674  0.00  0.00    +0.232 C 
BRANCH  15  16
ATOM     16  C   UNL     1       3.257  -4.838   1.546  0.00  0.00    +0.041 C 
BRANCH  16  18
ATOM     17  C   UNL     1       4.340  -6.935   2.368  0.00  0.00    +0.004 C 
ATOM     18  C   UNL     1       3.219  -6.367   1.495  0.00  0.00    -0.000 C 
ENDBRANCH  16  18
ENDBRANCH  15  16
ENDBRANCH  14  15
ENDBRANCH  12  14
ENDBRANCH   6  12
ENDBRANCH   2   9
ENDBRANCH   1   3
BRANCH   1  19
ATOM     19  S   UNL     1       3.970   6.305   0.333  0.00  0.00    -0.078 S 
BRANCH  19  20
ATOM     20  C   UNL     1       3.644   8.032   0.464  0.00  0.00    +0.170 A 
ATOM     21  N   UNL     1       4.686   8.908   0.570  0.00  0.00    -0.301 N 
ATOM     22  H   UNL     1       5.595   8.568   0.571  0.00  0.00    +0.171 HD
ATOM     23  C   UNL     1       4.477  10.233   0.672  0.00  0.00    +0.261 A 
ATOM     24  O   UNL     1       5.419  11.002   0.765  0.00  0.00    -0.267 OA
ATOM     25  C   UNL     1       3.134  10.728   0.669  0.00  0.00    +0.075 A 
ATOM     26  C   UNL     1       2.678  12.116   0.769  0.00  0.00    -0.023 A 
ATOM     27  C   UNL     1       1.347  12.325   0.742  0.00  0.00    -0.004 A 
ATOM     28  S   UNL     1       0.629  10.712   0.585  0.00  0.00    -0.073 S 
ATOM     29  C   UNL     1       2.125   9.757   0.556  0.00  0.00    +0.117 A 
ATOM     30  N   UNL     1       2.399   8.462   0.453  0.00  0.00    -0.216 NA
ATOM     31  C   UNL     1       0.632  13.640   0.829  0.00  0.00    +0.046 C 
ATOM     32  C   UNL     1       1.626  14.699   1.328  0.00  0.00    -0.009 C 
ATOM     33  C   UNL     1       2.921  14.576   0.519  0.00  0.00    +0.008 C 
ATOM     34  C   UNL     1       3.649  13.286   0.897  0.00  0.00    +0.037 C 
ATOM     35  C   UNL     1       1.028  16.094   1.137  0.00  0.00    +0.008 C 
ENDBRANCH  19  20
ENDBRANCH   1  19
TORSDOF 9
