REMARK  Name = ZINC40983802
REMARK  10 active torsions:
REMARK  status: ('A' for Active; 'I' for Inactive)
REMARK    1  A    between atoms: C_1  and  C_2
REMARK    2  A    between atoms: C_2  and  O_3
REMARK    3  A    between atoms: O_3  and  C_4
REMARK    4  A    between atoms: C_7  and  C_10
REMARK    5  A    between atoms: C_12  and  C_16
REMARK    6  A    between atoms: C_13  and  C_15
REMARK    7  A    between atoms: C_16  and  N_17
REMARK    8  A    between atoms: C_20  and  C_23
REMARK    9  A    between atoms: N_28  and  C_31
REMARK   10  A    between atoms: C_34  and  C_37
REMARK                            x       y       z     vdW  Elec       q    Type
REMARK                         _______ _______ _______ _____ _____    ______ ____
ROOT
ATOM      1  N   UNL     1      -4.242  -9.478  -1.421  0.00  0.00    +0.383 N 
ATOM      2  C   UNL     1      -3.068 -10.030  -2.107  0.00  0.00    -0.078 C 
ATOM      3  C   UNL     1      -3.414 -10.313  -3.570  0.00  0.00    -0.006 C 
ATOM      4  C   UNL     1      -4.564 -11.322  -3.632  0.00  0.00    +0.072 C 
ATOM      5  C   UNL     1      -5.758 -10.768  -2.850  0.00  0.00    -0.006 C 
ATOM      6  C   UNL     1      -5.326 -10.469  -1.413  0.00  0.00    -0.078 C 
ATOM      7  H   UNL     1      -4.551  -8.647  -1.902  0.00  0.00    -0.081 HD
ENDROOT
BRANCH   4   8
ATOM      8  C   UNL     1      -4.962 -11.546  -5.068  0.00  0.00    +0.219 C 
ATOM      9  O   UNL     1      -4.908 -10.631  -5.862  0.00  0.00    -0.275 OA
ATOM     10  N   UNL     1      -5.379 -12.763  -5.470  0.00  0.00    -0.298 N 
ATOM     11  C   UNL     1      -5.572 -13.847  -4.496  0.00  0.00    +0.126 C 
ATOM     12  C   UNL     1      -7.004 -14.378  -4.631  0.00  0.00    +0.124 C 
ATOM     13  N   UNL     1      -7.274 -14.645  -6.051  0.00  0.00    -0.327 N 
ATOM     14  C   UNL     1      -7.081 -13.561  -7.025  0.00  0.00    +0.124 C 
ATOM     15  C   UNL     1      -5.654 -13.028  -6.889  0.00  0.00    +0.126 C 
BRANCH  13  16
ATOM     16  C   UNL     1      -7.705 -15.906  -6.468  0.00  0.00    +0.030 A 
ATOM     17  C   UNL     1      -8.000 -16.887  -5.529  0.00  0.00    +0.023 A 
ATOM     18  C   UNL     1      -8.427 -18.133  -5.944  0.00  0.00    +0.005 A 
ATOM     19  C   UNL     1      -8.561 -18.405  -7.293  0.00  0.00    -0.050 A 
ATOM     20  C   UNL     1      -8.269 -17.431  -8.231  0.00  0.00    +0.005 A 
ATOM     21  C   UNL     1      -7.847 -16.181  -7.822  0.00  0.00    +0.023 A 
ATOM     22  C   UNL     1      -9.026 -19.766  -7.742  0.00  0.00    +0.044 C 
ENDBRANCH  13  16
ENDBRANCH   4   8
BRANCH   1  23
ATOM     23  C   UNL     1      -3.883  -9.136  -0.038  0.00  0.00    -0.019 C 
BRANCH  23  26
ATOM     24  C   UNL     1      -1.976  -6.064  -0.035  0.00  0.00    +0.228 A 
ATOM     25  N   UNL     1      -3.116  -6.715  -0.022  0.00  0.00    -0.216 NA
ATOM     26  C   UNL     1      -2.858  -8.032  -0.043  0.00  0.00    +0.066 A 
ATOM     27  C   UNL     1      -1.523  -8.190  -0.070  0.00  0.00    +0.124 A 
ATOM     28  O   UNL     1      -0.973  -6.959  -0.071  0.00  0.00    -0.440 OA
ATOM     29  C   UNL     1      -0.780  -9.501  -0.099  0.00  0.00    +0.088 C 
BRANCH  24  33
ATOM     30  C   UNL     1      -1.529  -1.840   0.008  0.00  0.00    +0.121 A 
ATOM     31  C   UNL     1      -0.405  -2.655  -0.028  0.00  0.00    +0.046 A 
ATOM     32  C   UNL     1      -0.545  -4.026  -0.042  0.00  0.00    +0.017 A 
ATOM     33  C   UNL     1      -1.820  -4.595  -0.019  0.00  0.00    +0.037 A 
ATOM     34  C   UNL     1      -2.948  -3.772   0.017  0.00  0.00    +0.017 A 
ATOM     35  C   UNL     1      -2.798  -2.402   0.036  0.00  0.00    +0.046 A 
BRANCH  30  36
ATOM     36  O   UNL     1      -1.386  -0.489   0.021  0.00  0.00    -0.492 OA
BRANCH  36  38
ATOM     37  C   UNL     1      -0.091   1.552   0.012  0.00  0.00    +0.048 C 
ATOM     38  C   UNL     1      -0.052   0.023  -0.009  0.00  0.00    +0.225 C 
ENDBRANCH  36  38
ENDBRANCH  30  36
ENDBRANCH  24  33
ENDBRANCH  23  26
ENDBRANCH   1  23
TORSDOF 7
