REMARK  Name = ZINC33811973
REMARK  14 active torsions:
REMARK  status: ('A' for Active; 'I' for Inactive)
REMARK    1  A    between atoms: C_1  and  C_2
REMARK    2  A    between atoms: C_2  and  C_3
REMARK    3  A    between atoms: C_3  and  C_4
REMARK    4  A    between atoms: C_4  and  C_5
REMARK    5  A    between atoms: C_5  and  C_7
REMARK    6  A    between atoms: C_5  and  C_9
REMARK    7  A    between atoms: C_7  and  C_8
REMARK    8  A    between atoms: C_9  and  N_10
REMARK    9  A    between atoms: C_14  and  C_15
REMARK   10  A    between atoms: C_16  and  C_32
REMARK   11  A    between atoms: C_17  and  C_30
REMARK   12  A    between atoms: N_20  and  C_29
REMARK   13  A    between atoms: C_21  and  N_22
REMARK   14  A    between atoms: N_25  and  C_28
REMARK                            x       y       z     vdW  Elec       q    Type
REMARK                         _______ _______ _______ _____ _____    ______ ____
ROOT
ATOM      1  C   UNL     1      -6.860   0.493  -0.150  0.00  0.00    +0.019 A 
ATOM      2  C   UNL     1      -6.756  -0.607   0.717  0.00  0.00    -0.017 A 
ATOM      3  C   UNL     1      -7.886  -1.385   0.955  0.00  0.00    +0.120 A 
ATOM      4  C   UNL     1      -9.106  -1.057   0.310  0.00  0.00    +0.270 A 
ATOM      5  O   UNL     1     -10.097  -1.738   0.511  0.00  0.00    -0.266 OA
ATOM      6  N   UNL     1      -9.178  -0.002  -0.520  0.00  0.00    -0.298 N 
ATOM      7  C   UNL     1      -8.091   0.775  -0.764  0.00  0.00    +0.111 A 
ATOM      8  C   UNL     1     -10.450   0.315  -1.173  0.00  0.00    +0.154 C 
ATOM      9  C   UNL     1      -5.446  -0.936   1.384  0.00  0.00    +0.046 C 
ENDROOT
BRANCH   1  14
ATOM     10  N   UNL     1      -3.679   3.563   1.679  0.00  0.00    -0.255 N 
ATOM     11  C   UNL     1      -3.986   2.909   0.573  0.00  0.00    +0.258 C 
ATOM     12  O   UNL     1      -3.284   2.989  -0.419  0.00  0.00    -0.269 OA
ATOM     13  C   UNL     1      -5.164   2.101   0.577  0.00  0.00    +0.077 C 
ATOM     14  C   UNL     1      -5.692   1.335  -0.417  0.00  0.00    +0.032 C 
ATOM     15  S   UNL     1      -5.759   2.374   2.240  0.00  0.00    -0.061 S 
ATOM     16  C   UNL     1      -4.461   3.478   2.778  0.00  0.00    +0.121 C 
ATOM     17  S   UNL     1      -4.260   4.235   4.300  0.00  0.00    -0.027 S 
BRANCH  10  18
ATOM     18  C   UNL     1      -2.475   4.397   1.713  0.00  0.00    +0.118 C 
BRANCH  18  19
ATOM     19  C   UNL     1      -1.286   3.558   2.185  0.00  0.00    +0.007 C 
BRANCH  19  20
ATOM     20  C   UNL     1      -0.992   2.466   1.155  0.00  0.00    +0.002 C 
ATOM     21  C   UNL     1       0.122   1.558   1.679  0.00  0.00    +0.004 C 
ENDBRANCH  19  20
BRANCH  19  22
ATOM     22  C   UNL     1      -0.058   4.457   2.341  0.00  0.00    +0.005 C 
BRANCH  22  23
ATOM     23  C   UNL     1      -0.295   5.453   3.477  0.00  0.00    +0.000 C 
BRANCH  23  25
ATOM     24  C   UNL     1       0.656   7.409   4.708  0.00  0.00    +0.004 C 
ATOM     25  C   UNL     1       0.893   6.412   3.571  0.00  0.00    -0.003 C 
ENDBRANCH  23  25
ENDBRANCH  22  23
ENDBRANCH  19  22
ENDBRANCH  18  19
ENDBRANCH  10  18
ENDBRANCH   1  14
BRANCH   7  26
ATOM     26  N   UNL     1      -8.197   1.839  -1.612  0.00  0.00    -0.320 N 
ATOM     27  C   UNL     1      -7.380   1.635  -2.817  0.00  0.00    +0.088 C 
ATOM     28  C   UNL     1      -7.587   2.811  -3.775  0.00  0.00    -0.060 C 
ATOM     29  N   UNL     1      -7.220   4.062  -3.098  0.00  0.00    +0.380 N 
ATOM     30  C   UNL     1      -8.037   4.266  -1.894  0.00  0.00    -0.060 C 
ATOM     31  C   UNL     1      -7.829   3.091  -0.935  0.00  0.00    +0.088 C 
ATOM     32  C   UNL     1      -7.333   5.207  -4.011  0.00  0.00    -0.096 C 
ATOM     33  H   UNL     1      -6.168   3.983  -2.786  0.00  0.00    -0.082 HD
ENDBRANCH   7  26
BRANCH   3  34
ATOM     34  C   UNL     1      -7.815  -2.510   1.839  0.00  0.00    +0.105 C 
ATOM     35  N   UNL     1      -7.759  -3.402   2.540  0.00  0.00    -0.191 NA
ENDBRANCH   3  34
TORSDOF 9
