REMARK  Name = ZINC63375795
REMARK  5 active torsions:
REMARK  status: ('A' for Active; 'I' for Inactive)
REMARK    1  A    between atoms: C_1  and  C_2
REMARK    2  A    between atoms: C_4  and  C_34
REMARK    3  A    between atoms: C_6  and  N_8
REMARK    4  A    between atoms: C_9  and  O_33
REMARK    5  A    between atoms: C_11  and  C_18
REMARK                            x       y       z     vdW  Elec       q    Type
REMARK                         _______ _______ _______ _____ _____    ______ ____
ROOT
ATOM      1  N   UNL     1      -0.189  -2.872   2.483  0.00  0.00    -0.255 N 
ATOM      2  C   UNL     1       0.153  -2.067   3.657  0.00  0.00    +0.222 C 
ATOM      3  C   UNL     1      -0.492  -2.679   4.903  0.00  0.00    +0.142 C 
ATOM      4  C   UNL     1      -0.243  -4.166   4.909  0.00  0.00    +0.227 C 
ATOM      5  O   UNL     1      -0.079  -4.749   5.960  0.00  0.00    -0.275 OA
ATOM      6  N   UNL     1      -0.203  -4.846   3.749  0.00  0.00    -0.267 N 
ATOM      7  C   UNL     1      -0.299  -4.208   2.571  0.00  0.00    +0.145 C 
ATOM      8  S   UNL     1      -0.563  -5.120   1.147  0.00  0.00    -0.018 S 
ATOM      9  H   UNL     1      -0.107  -5.811   3.764  0.00  0.00    +0.157 HD
ENDROOT
BRANCH   3  10
ATOM     10  C   UNL     1      -1.998  -2.411   4.883  0.00  0.00    +0.096 C 
ATOM     11  C   UNL     1      -2.630  -2.924   6.179  0.00  0.00    +0.124 C 
ATOM     12  C   UNL     1      -4.137  -2.776   6.006  0.00  0.00    -0.036 C 
ATOM     13  C   UNL     1      -4.567  -2.074   7.044  0.00  0.00    -0.001 A 
ATOM     14  C   UNL     1      -5.920  -1.685   7.474  0.00  0.00    +0.010 A 
ATOM     15  C   UNL     1      -5.998  -0.935   8.605  0.00  0.00    +0.001 A 
ATOM     16  C   UNL     1      -4.879  -0.538   9.343  0.00  0.00    +0.002 A 
ATOM     17  C   UNL     1      -3.598  -0.854   9.025  0.00  0.00    +0.026 A 
ATOM     18  C   UNL     1      -3.389  -1.645   7.858  0.00  0.00    +0.043 A 
ATOM     19  N   UNL     1      -2.269  -2.113   7.341  0.00  0.00    -0.376 N 
ATOM     20  C   UNL     1      -4.848  -3.296   4.779  0.00  0.00    +0.048 C 
ATOM     21  C   UNL     1      -4.032  -2.805   3.570  0.00  0.00    +0.085 C 
ATOM     22  N   UNL     1      -2.614  -3.125   3.753  0.00  0.00    -0.310 NA
ATOM     23  H   UNL     1      -2.094  -2.971   2.902  0.00  0.00    +0.122 HD
ATOM     24  H   UNL     1      -1.368  -1.950   7.661  0.00  0.00    +0.160 HD
ENDBRANCH   3  10
BRANCH   1  30
ATOM     25  C   UNL     1       1.556  -0.305  -1.329  0.00  0.00    +0.044 C 
ATOM     26  C   UNL     1       0.419  -0.989  -0.615  0.00  0.00    -0.048 A 
ATOM     27  C   UNL     1      -0.845  -0.993  -1.176  0.00  0.00    +0.006 A 
ATOM     28  C   UNL     1      -1.892  -1.620  -0.525  0.00  0.00    -0.048 A 
ATOM     29  C   UNL     1      -1.678  -2.244   0.689  0.00  0.00    +0.027 A 
ATOM     30  C   UNL     1      -0.409  -2.242   1.254  0.00  0.00    +0.038 A 
ATOM     31  C   UNL     1       0.641  -1.616   0.595  0.00  0.00    +0.027 A 
ATOM     32  C   UNL     1      -3.268  -1.621  -1.139  0.00  0.00    +0.044 C 
ENDBRANCH   1  30
BRANCH   2  33
ATOM     33  O   UNL     1      -0.331  -0.734   3.477  0.00  0.00    -0.373 OA
ATOM     34  H   UNL     1       0.105  -0.251   2.762  0.00  0.00    +0.212 HD
ENDBRANCH   2  33
TORSDOF 3
