REMARK  Name = ZINC02675531
REMARK  7 active torsions:
REMARK  status: ('A' for Active; 'I' for Inactive)
REMARK    1  A    between atoms: C_3  and  O_9
REMARK    2  A    between atoms: O_9  and  C_10
REMARK    3  A    between atoms: C_10  and  C_11
REMARK    4  A    between atoms: C_11  and  C_12
REMARK    5  A    between atoms: C_12  and  C_13
REMARK    6  A    between atoms: N_15  and  N_16
REMARK    7  A    between atoms: N_16  and  C_17
REMARK                            x       y       z     vdW  Elec       q    Type
REMARK                         _______ _______ _______ _____ _____    ______ ____
ROOT
ATOM      1  C   UNL     1       6.138   6.276   0.186  0.00  0.00    +0.229 C 
ATOM      2  O   UNL     1       7.074   5.540  -0.043  0.00  0.00    -0.274 OA
ATOM      3  N   UNL     1       6.319   7.611   0.209  0.00  0.00    -0.236 N 
ATOM      4  H   UNL     1       5.570   8.199   0.392  0.00  0.00    +0.173 HD
ENDROOT
BRANCH   3   5
ATOM      5  N   UNL     1       7.591   8.149  -0.030  0.00  0.00    -0.259 N 
ATOM      6  H   UNL     1       8.356   7.561  -0.126  0.00  0.00    +0.170 HD
BRANCH   5   7
ATOM      7  C   UNL     1       7.749   9.471  -0.126  0.00  0.00    +0.116 C 
ATOM      8  C   UNL     1       6.737  10.463  -0.127  0.00  0.00    +0.026 A 
ATOM      9  C   UNL     1       5.340  10.407  -0.037  0.00  0.00    +0.032 A 
ATOM     10  C   UNL     1       4.605  11.578  -0.068  0.00  0.00    +0.043 A 
ATOM     11  C   UNL     1       5.244  12.802  -0.188  0.00  0.00    +0.037 A 
ATOM     12  C   UNL     1       6.626  12.876  -0.278  0.00  0.00    +0.041 A 
ATOM     13  C   UNL     1       7.393  11.714  -0.249  0.00  0.00    +0.057 A 
ATOM     14  N   UNL     1       8.741  11.516  -0.320  0.00  0.00    -0.279 N 
ATOM     15  C   UNL     1       9.040  10.232  -0.249  0.00  0.00    +0.264 C 
ATOM     16  O   UNL     1      10.159   9.752  -0.280  0.00  0.00    -0.268 OA
ATOM     17 BR   UNL     1       7.471  14.560  -0.441  0.00  0.00    -0.048 Br
ATOM     18 CL   UNL     1       2.874  11.514   0.043  0.00  0.00    -0.083 Cl
ATOM     19  H   UNL     1       9.395  12.227  -0.407  0.00  0.00    +0.155 HD
ENDBRANCH   5   7
ENDBRANCH   3   5
BRANCH   1  20
ATOM     20  C   UNL     1       4.770   5.697   0.443  0.00  0.00    +0.100 C 
BRANCH  20  21
ATOM     21  C   UNL     1       4.838   4.171   0.359  0.00  0.00    +0.050 C 
BRANCH  21  22
ATOM     22  C   UNL     1       3.450   3.583   0.620  0.00  0.00    +0.229 C 
BRANCH  22  23
ATOM     23  O   UNL     1       3.513   2.158   0.541  0.00  0.00    -0.490 OA
BRANCH  23  26
ATOM     24  C   UNL     1       0.009   1.470   1.237  0.00  0.00    +0.023 A 
ATOM     25  C   UNL     1       1.185   2.164   1.026  0.00  0.00    +0.048 A 
ATOM     26  C   UNL     1       2.356   1.476   0.751  0.00  0.00    +0.139 A 
ATOM     27  C   UNL     1       2.345   0.089   0.689  0.00  0.00    +0.084 A 
ATOM     28  C   UNL     1       1.167  -0.602   0.901  0.00  0.00    +0.043 A 
ATOM     29  C   UNL     1      -0.000   0.088   1.175  0.00  0.00    +0.043 A 
ATOM     30 CL   UNL     1      -1.479  -0.782   1.442  0.00  0.00    -0.083 Cl
ATOM     31 CL   UNL     1       3.810  -0.777   0.344  0.00  0.00    -0.080 Cl
ENDBRANCH  23  26
ENDBRANCH  22  23
ENDBRANCH  21  22
ENDBRANCH  20  21
ENDBRANCH   1  20
TORSDOF 7
