REMARK  Name = ZINC09177949
REMARK  14 active torsions:
REMARK  status: ('A' for Active; 'I' for Inactive)
REMARK    1  A    between atoms: C_1  and  C_2
REMARK    2  A    between atoms: C_2  and  N_64
REMARK    3  A    between atoms: C_3  and  C_4
REMARK    4  A    between atoms: C_3  and  N_64
REMARK    5  A    between atoms: C_5  and  C_6
REMARK    6  A    between atoms: C_5  and  N_64
REMARK    7  A    between atoms: C_6  and  N_7
REMARK    8  A    between atoms: C_8  and  C_24
REMARK    9  A    between atoms: C_11  and  C_12
REMARK   10  A    between atoms: C_11  and  O_19
REMARK   11  A    between atoms: C_27  and  O_30
REMARK   12  A    between atoms: O_30  and  C_31
REMARK   13  A    between atoms: C_31  and  C_32
REMARK   14  A    between atoms: C_31  and  C_33
REMARK                            x       y       z     vdW  Elec       q    Type
REMARK                         _______ _______ _______ _____ _____    ______ ____
ROOT
ATOM      1  N   UNL     1      -0.603   1.692   5.410  0.00  0.00    -0.285 N 
ATOM      2  C   UNL     1      -1.024   0.833   6.521  0.00  0.00    +0.144 C 
ATOM      3  C   UNL     1      -1.460   1.752   7.638  0.00  0.00    +0.071 C 
ATOM      4  C   UNL     1      -1.935   1.381   8.880  0.00  0.00    +0.133 C 
ATOM      5  C   UNL     1      -1.285   3.060   7.158  0.00  0.00    +0.249 C 
ATOM      6  O   UNL     1      -1.528   4.084   7.771  0.00  0.00    -0.282 OA
ATOM      7  C   UNL     1      -0.746   2.978   5.774  0.00  0.00    +0.288 C 
ATOM      8  O   UNL     1      -0.477   3.932   5.074  0.00  0.00    -0.266 OA
ENDROOT
BRANCH   4   9
ATOM      9  C   UNL     1      -2.178   2.404   9.911  0.00  0.00    +0.017 A 
ATOM     10  C   UNL     1      -1.180   3.331  10.230  0.00  0.00    +0.013 A 
ATOM     11  C   UNL     1      -1.416   4.288  11.193  0.00  0.00    +0.021 A 
ATOM     12  C   UNL     1      -2.635   4.327  11.852  0.00  0.00    +0.041 A 
ATOM     13  C   UNL     1      -3.626   3.409  11.545  0.00  0.00    +0.021 A 
ATOM     14  C   UNL     1      -3.405   2.449  10.581  0.00  0.00    +0.013 A 
ATOM     15 CL   UNL     1      -2.920   5.532  13.069  0.00  0.00    -0.084 Cl
ENDBRANCH   4   9
BRANCH   2  16
ATOM     16  C   UNL     1       0.130  -0.022   6.977  0.00  0.00    -0.022 A 
ATOM     17  C   UNL     1       1.403   0.514   7.043  0.00  0.00    +0.009 A 
ATOM     18  C   UNL     1       2.462  -0.266   7.466  0.00  0.00    +0.046 A 
ATOM     19  C   UNL     1       2.249  -1.592   7.815  0.00  0.00    +0.121 A 
ATOM     20  C   UNL     1       0.972  -2.130   7.742  0.00  0.00    +0.046 A 
ATOM     21  C   UNL     1      -0.085  -1.343   7.324  0.00  0.00    +0.009 A 
BRANCH  19  22
ATOM     22  O   UNL     1       3.289  -2.363   8.227  0.00  0.00    -0.489 OA
BRANCH  22  23
ATOM     23  C   UNL     1       2.977  -3.676   8.699  0.00  0.00    +0.167 C 
ATOM     24  C   UNL     1       3.102  -4.675   7.547  0.00  0.00    +0.051 C 
ATOM     25  C   UNL     1       3.950  -4.061   9.815  0.00  0.00    +0.051 C 
ENDBRANCH  22  23
ENDBRANCH  19  22
ENDBRANCH   2  16
BRANCH   4  26
ATOM     26  O   UNL     1      -2.177   0.081   9.149  0.00  0.00    -0.506 OA
ATOM     27  H   UNL     1      -2.514  -0.009  10.086  0.00  0.00    +0.292 HD
ENDBRANCH   4  26
BRANCH   1  28
ATOM     28  C   UNL     1      -0.102   1.224   4.115  0.00  0.00    +0.090 C 
BRANCH  28  29
ATOM     29  C   UNL     1      -1.274   1.052   3.147  0.00  0.00    -0.060 C 
BRANCH  29  30
ATOM     30  N   UNL     1      -0.751   0.600   1.841  0.00  0.00    +0.380 N 
ATOM     31  H   UNL     1       0.003   1.233   1.547  0.00  0.00    -0.082 HD
BRANCH  30  33
ATOM     32  C   UNL     1      -2.052   2.081   0.396  0.00  0.00    -0.017 C 
ATOM     33  C   UNL     1      -1.827   0.631   0.828  0.00  0.00    -0.082 C 
ENDBRANCH  30  33
BRANCH  30  34
ATOM     34  C   UNL     1      -0.208  -0.769   1.960  0.00  0.00    -0.082 C 
ATOM     35  C   UNL     1       0.714  -1.037   0.768  0.00  0.00    -0.017 C 
ENDBRANCH  30  34
ENDBRANCH  29  30
ENDBRANCH  28  29
ENDBRANCH   1  28
TORSDOF 10
