REMARK  Name = ZINC63258836
REMARK  11 active torsions:
REMARK  status: ('A' for Active; 'I' for Inactive)
REMARK    1  A    between atoms: C_1  and  C_2
REMARK    2  A    between atoms: C_6  and  O_8
REMARK    3  A    between atoms: O_8  and  C_9
REMARK    4  A    between atoms: C_9  and  C_10
REMARK    5  A    between atoms: N_12  and  C_13
REMARK    6  A    between atoms: C_13  and  C_15
REMARK    7  A    between atoms: C_13  and  C_25
REMARK    8  A    between atoms: C_15  and  C_16
REMARK    9  A    between atoms: C_25  and  O_27
REMARK   10  A    between atoms: O_27  and  C_28
REMARK   11  A    between atoms: C_28  and  C_29
REMARK                            x       y       z     vdW  Elec       q    Type
REMARK                         _______ _______ _______ _____ _____    ______ ____
ROOT
ATOM      1  C   UNL     1       0.157  -6.578   5.115  0.00  0.00    +0.186 C 
ENDROOT
BRANCH   1   4
ATOM      2  C   UNL     1       0.329  -4.521   3.820  0.00  0.00    +0.251 C 
ATOM      3  O   UNL     1       0.316  -3.899   4.861  0.00  0.00    -0.272 OA
ATOM      4  N   UNL     1       0.254  -5.867   3.838  0.00  0.00    -0.299 N 
ATOM      5  H   UNL     1       0.264  -6.364   3.005  0.00  0.00    +0.150 HD
BRANCH   2   6
ATOM      6  C   UNL     1       0.429  -3.789   2.506  0.00  0.00    +0.324 C 
BRANCH   6   7
ATOM      7  O   UNL     1       0.496  -2.383   2.748  0.00  0.00    -0.483 OA
BRANCH   7  13
ATOM      8  C   UNL     1       0.829   2.118   0.890  0.00  0.00    +0.044 C 
ATOM      9  C   UNL     1       0.755   0.624   0.715  0.00  0.00    -0.047 A 
ATOM     10  C   UNL     1       0.782   0.074  -0.554  0.00  0.00    +0.003 A 
ATOM     11  C   UNL     1       0.714  -1.297  -0.718  0.00  0.00    +0.004 A 
ATOM     12  C   UNL     1       0.618  -2.122   0.387  0.00  0.00    +0.045 A 
ATOM     13  C   UNL     1       0.591  -1.573   1.660  0.00  0.00    +0.121 A 
ATOM     14  C   UNL     1       0.665  -0.197   1.822  0.00  0.00    +0.049 A 
ENDBRANCH   7  13
ENDBRANCH   6   7
ENDBRANCH   2   6
ENDBRANCH   1   4
BRANCH   1  15
ATOM     15  C   UNL     1      -0.587  -7.873   4.913  0.00  0.00    +0.328 C 
ATOM     16  O   UNL     1      -0.993  -8.171   3.815  0.00  0.00    -0.249 OA
BRANCH  15  17
ATOM     17  O   UNL     1      -0.797  -8.695   5.953  0.00  0.00    -0.459 OA
BRANCH  17  18
ATOM     18  C   UNL     1      -1.509  -9.906   5.690  0.00  0.00    +0.269 C 
BRANCH  18  19
ATOM     19  C   UNL     1      -1.648 -10.695   6.966  0.00  0.00    +0.008 A 
ATOM     20  C   UNL     1      -1.124 -10.199   8.145  0.00  0.00    +0.010 A 
ATOM     21  C   UNL     1      -1.251 -10.922   9.316  0.00  0.00    +0.020 A 
ATOM     22  C   UNL     1      -1.904 -12.142   9.309  0.00  0.00    +0.042 A 
ATOM     23  C   UNL     1      -2.429 -12.638   8.130  0.00  0.00    +0.040 A 
ATOM     24  C   UNL     1      -2.306 -11.912   6.959  0.00  0.00    +0.049 A 
ATOM     25 CL   UNL     1      -2.970 -12.531   5.479  0.00  0.00    -0.083 Cl
ATOM     26 CL   UNL     1      -2.064 -13.050  10.780  0.00  0.00    -0.083 Cl
ENDBRANCH  18  19
ENDBRANCH  17  18
ENDBRANCH  15  17
ENDBRANCH   1  15
BRANCH   1  27
ATOM     27  C   UNL     1       1.562  -6.873   5.643  0.00  0.00    +0.067 C 
BRANCH  27  28
ATOM     28  C   UNL     1       2.314  -7.702   4.633  0.00  0.00    -0.039 C 
ATOM     29  C   UNL     1       3.155  -7.250   3.675  0.00  0.00    -0.001 A 
ATOM     30  C   UNL     1       3.604  -5.904   3.300  0.00  0.00    +0.010 A 
ATOM     31  C   UNL     1       4.472  -5.765   2.272  0.00  0.00    +0.001 A 
ATOM     32  C   UNL     1       4.951  -6.872   1.557  0.00  0.00    +0.002 A 
ATOM     33  C   UNL     1       4.584  -8.139   1.842  0.00  0.00    +0.026 A 
ATOM     34  C   UNL     1       3.676  -8.402   2.905  0.00  0.00    +0.043 A 
ATOM     35  N   UNL     1       3.176  -9.522   3.368  0.00  0.00    -0.380 N 
ATOM     36  C   UNL     1       2.285  -9.207   4.491  0.00  0.00    +0.144 C 
ATOM     37  H   UNL     1       3.366 -10.410   3.029  0.00  0.00    +0.160 HD
ENDBRANCH  27  28
ENDBRANCH   1  27
TORSDOF 10
