REMARK  Name = ZINC09972045
REMARK  11 active torsions:
REMARK  status: ('A' for Active; 'I' for Inactive)
REMARK    1  A    between atoms: C_1  and  C_2
REMARK    2  A    between atoms: C_5  and  N_9
REMARK    3  A    between atoms: C_10  and  C_12
REMARK    4  A    between atoms: C_12  and  S_13
REMARK    5  A    between atoms: S_13  and  C_14
REMARK    6  A    between atoms: C_17  and  C_28
REMARK    7  A    between atoms: N_18  and  C_19
REMARK    8  A    between atoms: C_20  and  C_27
REMARK    9  A    between atoms: C_22  and  C_26
REMARK   10  A    between atoms: C_24  and  C_25
REMARK   11  A    between atoms: N_32  and  C_33
REMARK                            x       y       z     vdW  Elec       q    Type
REMARK                         _______ _______ _______ _____ _____    ______ ____
ROOT
ATOM      1  C   UNL     1      -0.032  -6.892  -0.016  0.00  0.00    +0.197 A 
ATOM      2  N   UNL     1      -1.277  -6.491   0.108  0.00  0.00    -0.122 NA
ATOM      3  N   UNL     1      -1.328  -5.207   0.145  0.00  0.00    -0.126 NA
ATOM      4  C   UNL     1      -0.116  -4.705   0.045  0.00  0.00    +0.186 A 
ATOM      5  N   UNL     1       0.753  -5.771  -0.068  0.00  0.00    -0.269 N 
ENDROOT
BRANCH   5   6
ATOM      6  C   UNL     1       2.147  -5.718  -0.203  0.00  0.00    +0.056 A 
ATOM      7  C   UNL     1       2.726  -5.763  -1.464  0.00  0.00    -0.026 A 
ATOM      8  C   UNL     1       4.099  -5.705  -1.595  0.00  0.00    +0.008 A 
ATOM      9  C   UNL     1       4.899  -5.612  -0.470  0.00  0.00    -0.050 A 
ATOM     10  C   UNL     1       4.326  -5.572   0.787  0.00  0.00    +0.008 A 
ATOM     11  C   UNL     1       2.952  -5.625   0.924  0.00  0.00    -0.026 A 
ATOM     12  C   UNL     1       2.329  -5.581   2.295  0.00  0.00    +0.046 C 
ATOM     13  C   UNL     1       6.398  -5.555  -0.616  0.00  0.00    +0.044 C 
ATOM     14  C   UNL     1       1.855  -5.870  -2.690  0.00  0.00    +0.046 C 
ENDBRANCH   5   6
BRANCH   4  15
ATOM     15  C   UNL     1       0.243  -3.279   0.047  0.00  0.00    +0.088 A 
ATOM     16  C   UNL     1       1.512  -2.779   0.040  0.00  0.00    +0.046 A 
ATOM     17  C   UNL     1       1.416  -1.391   0.045  0.00  0.00    +0.038 A 
ATOM     18  C   UNL     1       0.068  -1.026   0.056  0.00  0.00    +0.056 A 
ATOM     19  N   UNL     1      -0.644  -2.229   0.057  0.00  0.00    -0.340 N 
ATOM     20  C   UNL     1      -2.104  -2.351   0.068  0.00  0.00    +0.149 C 
ATOM     21  C   UNL     1      -0.193   0.352   0.063  0.00  0.00    +0.034 A 
ATOM     22  C   UNL     1       0.828   1.234   0.059  0.00  0.00    +0.048 A 
ATOM     23  S   UNL     1       2.261   0.170   0.044  0.00  0.00    -0.095 S 
ENDBRANCH   4  15
BRANCH   1  24
ATOM     24  S   UNL     1       0.523  -8.562  -0.109  0.00  0.00    -0.076 S 
BRANCH  24  25
ATOM     25  C   UNL     1      -1.062  -9.427   0.017  0.00  0.00    +0.173 C 
BRANCH  25  27
ATOM     26  N   UNL     1      -1.871 -11.765   0.035  0.00  0.00    -0.285 N 
ATOM     27  C   UNL     1      -0.828 -10.915  -0.041  0.00  0.00    +0.227 C 
ATOM     28  O   UNL     1       0.300 -11.347  -0.156  0.00  0.00    -0.275 OA
ATOM     29  H   UNL     1      -2.777 -11.420   0.047  0.00  0.00    +0.155 HD
BRANCH  26  34
ATOM     30  C   UNL     1      -0.964 -17.361   0.279  0.00  0.00    +0.047 C 
ATOM     31  C   UNL     1      -1.204 -15.875   0.215  0.00  0.00    -0.015 A 
ATOM     32  C   UNL     1      -2.308 -15.383  -0.457  0.00  0.00    +0.008 A 
ATOM     33  C   UNL     1      -2.535 -14.022  -0.512  0.00  0.00    +0.024 A 
ATOM     34  C   UNL     1      -1.646 -13.145   0.096  0.00  0.00    +0.036 A 
ATOM     35  C   UNL     1      -0.538 -13.639   0.770  0.00  0.00    +0.062 A 
ATOM     36  C   UNL     1      -0.319 -15.004   0.829  0.00  0.00    +0.128 A 
ATOM     37  F   UNL     1       0.759 -15.488   1.484  0.00  0.00    -0.205 F 
ENDBRANCH  26  34
ENDBRANCH  25  27
ENDBRANCH  24  25
ENDBRANCH   1  24
TORSDOF 6
