REMARK  Name = ZINC59087428
REMARK  14 active torsions:
REMARK  status: ('A' for Active; 'I' for Inactive)
REMARK    1  A    between atoms: C_1  and  C_2
REMARK    2  A    between atoms: C_2  and  O_3
REMARK    3  A    between atoms: O_3  and  C_4
REMARK    4  A    between atoms: C_9  and  C_10
REMARK    5  A    between atoms: C_10  and  N_11
REMARK    6  A    between atoms: N_11  and  C_12
REMARK    7  A    between atoms: N_11  and  C_22
REMARK    8  A    between atoms: C_14  and  C_20
REMARK    9  A    between atoms: C_14  and  C_21
REMARK   10  A    between atoms: C_16  and  C_18
REMARK   11  A    between atoms: C_16  and  C_19
REMARK   12  A    between atoms: C_22  and  N_24
REMARK   13  A    between atoms: N_24  and  C_25
REMARK   14  A    between atoms: C_28  and  C_31
REMARK                            x       y       z     vdW  Elec       q    Type
REMARK                         _______ _______ _______ _____ _____    ______ ____
ROOT
ATOM      1  N   UNL     1      -4.626  -0.691  -1.126  0.00  0.00    -0.305 N 
ENDROOT
BRANCH   1   2
ATOM      2  C   UNL     1      -5.224  -1.699  -2.010  0.00  0.00    +0.073 C 
ATOM      3  C   UNL     1      -4.115  -2.400  -2.796  0.00  0.00    +0.009 C 
ATOM      4  C   UNL     1      -4.723  -3.445  -3.731  0.00  0.00    -0.072 C 
ATOM      5  N   UNL     1      -5.747  -2.877  -4.596  0.00  0.00    +0.386 N 
ATOM      6  C   UNL     1      -6.747  -2.017  -3.984  0.00  0.00    -0.072 C 
ATOM      7  C   UNL     1      -6.155  -1.008  -3.006  0.00  0.00    +0.009 C 
ATOM      8  C   UNL     1      -7.847  -2.829  -3.295  0.00  0.00    -0.010 C 
ATOM      9  C   UNL     1      -7.424  -1.213  -5.119  0.00  0.00    -0.010 C 
ATOM     10  C   UNL     1      -5.244  -4.635  -2.925  0.00  0.00    -0.010 C 
ATOM     11  C   UNL     1      -3.584  -3.968  -4.636  0.00  0.00    -0.010 C 
ATOM     12  H   UNL     1      -5.282  -2.352  -5.340  0.00  0.00    -0.084 HD
ATOM     13  H   UNL     1      -6.228  -3.645  -5.070  0.00  0.00    -0.084 HD
ENDBRANCH   1   2
BRANCH   1  14
ATOM     14  C   UNL     1      -3.922   0.332  -1.650  0.00  0.00    +0.138 C 
ATOM     15  S   UNL     1      -3.371   1.599  -0.638  0.00  0.00    -0.018 S 
BRANCH  14  16
ATOM     16  N   UNL     1      -3.652   0.358  -2.970  0.00  0.00    -0.297 N 
ATOM     17  H   UNL     1      -4.027  -0.318  -3.555  0.00  0.00    +0.154 HD
BRANCH  16  18
ATOM     18  C   UNL     1      -2.829   1.360  -3.496  0.00  0.00    +0.033 A 
ATOM     19  C   UNL     1      -1.788   1.877  -2.736  0.00  0.00    +0.023 A 
ATOM     20  C   UNL     1      -0.978   2.865  -3.258  0.00  0.00    +0.005 A 
ATOM     21  C   UNL     1      -1.202   3.341  -4.537  0.00  0.00    -0.050 A 
ATOM     22  C   UNL     1      -2.238   2.829  -5.297  0.00  0.00    +0.005 A 
ATOM     23  C   UNL     1      -3.049   1.836  -4.782  0.00  0.00    +0.023 A 
ATOM     24  C   UNL     1      -0.317   4.421  -5.104  0.00  0.00    +0.044 C 
ENDBRANCH  16  18
ENDBRANCH  14  16
ENDBRANCH   1  14
BRANCH   1  25
ATOM     25  C   UNL     1      -4.795  -0.796   0.326  0.00  0.00    +0.145 C 
BRANCH  25  31
ATOM     26  C   UNL     1      -2.539  -1.441   1.212  0.00  0.00    +0.125 A 
ATOM     27  C   UNL     1      -1.655  -2.383   1.718  0.00  0.00    +0.046 A 
ATOM     28  C   UNL     1      -2.060  -3.694   1.875  0.00  0.00    +0.004 A 
ATOM     29  C   UNL     1      -3.345  -4.069   1.529  0.00  0.00    +0.001 A 
ATOM     30  C   UNL     1      -4.228  -3.132   1.024  0.00  0.00    +0.009 A 
ATOM     31  C   UNL     1      -3.830  -1.818   0.870  0.00  0.00    +0.011 A 
BRANCH  26  32
ATOM     32  O   UNL     1      -2.143  -0.150   1.057  0.00  0.00    -0.492 OA
BRANCH  32  34
ATOM     33  C   UNL     1      -0.540   1.653   1.185  0.00  0.00    +0.048 C 
ATOM     34  C   UNL     1      -0.800   0.166   1.429  0.00  0.00    +0.225 C 
ENDBRANCH  32  34
ENDBRANCH  26  32
ENDBRANCH  25  31
ENDBRANCH   1  25
TORSDOF 8
