REMARK  Name = ZINC36000015
REMARK  4 active torsions:
REMARK  status: ('A' for Active; 'I' for Inactive)
REMARK    1  A    between atoms: C_6  and  N_7
REMARK    2  A    between atoms: C_8  and  C_10
REMARK    3  A    between atoms: C_10  and  C_11
REMARK    4  A    between atoms: C_25  and  C_27
REMARK                            x       y       z     vdW  Elec       q    Type
REMARK                         _______ _______ _______ _____ _____    ______ ____
ROOT
ATOM      1  C   UNL     1      -2.345  -4.330   0.087  0.00  0.00    +0.171 C 
ATOM      2  C   UNL     1      -3.628  -5.107  -0.025  0.00  0.00    +0.234 C 
ATOM      3  O   UNL     1      -4.220  -5.098  -1.084  0.00  0.00    -0.274 OA
ATOM      4  N   UNL     1      -4.146  -5.806   0.990  0.00  0.00    -0.309 N 
ATOM      5  C   UNL     1      -3.493  -5.975   2.276  0.00  0.00    +0.093 C 
ATOM      6  C   UNL     1      -4.505  -6.069   3.409  0.00  0.00    +0.024 C 
ATOM      7  C   UNL     1      -5.220  -4.729   3.591  0.00  0.00    +0.002 C 
ATOM      8  C   UNL     1      -4.182  -3.649   3.910  0.00  0.00    +0.002 C 
ATOM      9  C   UNL     1      -3.204  -3.531   2.741  0.00  0.00    +0.024 C 
ATOM     10  C   UNL     1      -2.494  -4.851   2.541  0.00  0.00    +0.097 C 
ATOM     11  N   UNL     1      -1.657  -4.707   1.331  0.00  0.00    -0.284 N 
ATOM     12  C   UNL     1      -0.325  -4.913   1.365  0.00  0.00    +0.220 C 
ATOM     13  O   UNL     1       0.201  -5.311   2.382  0.00  0.00    -0.275 OA
ATOM     14  H   UNL     1      -5.011  -6.226   0.859  0.00  0.00    +0.149 HD
ENDROOT
BRANCH  12  15
ATOM     15  C   UNL     1       0.509  -4.648   0.138  0.00  0.00    +0.075 C 
ATOM     16  C   UNL     1       1.051  -5.859  -0.623  0.00  0.00    +0.013 C 
ATOM     17  C   UNL     1       1.998  -4.992   0.209  0.00  0.00    +0.013 C 
ENDBRANCH  12  15
BRANCH   1  18
ATOM     18  C   UNL     1      -2.654  -2.832   0.108  0.00  0.00    +0.128 C 
BRANCH  18  20
ATOM     19  N   UNL     1      -2.883  -0.992  -1.529  0.00  0.00    -0.285 N 
ATOM     20  C   UNL     1      -2.695  -2.307  -1.304  0.00  0.00    +0.219 C 
ATOM     21  O   UNL     1      -2.558  -3.069  -2.238  0.00  0.00    -0.275 OA
ATOM     22  H   UNL     1      -2.924  -0.373  -0.783  0.00  0.00    +0.155 HD
BRANCH  19  28
ATOM     23  C   UNL     1      -3.877   0.540  -3.111  0.00  0.00    +0.026 A 
ATOM     24  C   UNL     1      -4.010   1.006  -4.404  0.00  0.00    +0.040 A 
ATOM     25  C   UNL     1      -3.290   0.418  -5.430  0.00  0.00    +0.124 A 
ATOM     26  C   UNL     1      -2.434  -0.638  -5.162  0.00  0.00    +0.040 A 
ATOM     27  C   UNL     1      -2.299  -1.107  -3.870  0.00  0.00    +0.026 A 
ATOM     28  C   UNL     1      -3.020  -0.518  -2.840  0.00  0.00    +0.034 A 
ATOM     29  F   UNL     1      -3.421   0.875  -6.695  0.00  0.00    -0.205 F 
ENDBRANCH  19  28
ENDBRANCH  18  20
ENDBRANCH   1  18
TORSDOF 4
