REMARK  Name = ZINC38966334
REMARK  6 active torsions:
REMARK  status: ('A' for Active; 'I' for Inactive)
REMARK    1  A    between atoms: C_1  and  O_2
REMARK    2  A    between atoms: O_2  and  C_3
REMARK    3  A    between atoms: C_8  and  C_9
REMARK    4  A    between atoms: N_15  and  N_16
REMARK    5  A    between atoms: C_17  and  C_18
REMARK    6  A    between atoms: C_23  and  O_24
REMARK                            x       y       z     vdW  Elec       q    Type
REMARK                         _______ _______ _______ _____ _____    ______ ____
ROOT
ATOM      1  C   UNL     1      -0.095  -2.915   0.045  0.00  0.00    +0.267 C 
ATOM      2  N   UNL     1       0.260  -2.225   1.295  0.00  0.00    -0.189 NA
ATOM      3  N   UNL     1       1.123  -2.894   1.870  0.00  0.00    -0.219 N 
ATOM      4  C   UNL     1       1.469  -4.023   1.196  0.00  0.00    +0.174 C 
ATOM      5  S   UNL     1       2.634  -5.162   1.724  0.00  0.00    -0.015 S 
ATOM      6  N   UNL     1       0.758  -4.118   0.048  0.00  0.00    -0.172 N 
ATOM      7  H   UNL     1       1.516  -2.639   2.720  0.00  0.00    +0.176 HD
ENDROOT
BRANCH   1  13
ATOM      8  C   UNL     1      -0.006  -0.679  -1.086  0.00  0.00    +0.127 A 
ATOM      9  C   UNL     1       0.289   0.119  -2.182  0.00  0.00    +0.046 A 
ATOM     10  C   UNL     1       0.800  -0.451  -3.332  0.00  0.00    +0.004 A 
ATOM     11  C   UNL     1       1.018  -1.815  -3.391  0.00  0.00    +0.001 A 
ATOM     12  C   UNL     1       0.725  -2.612  -2.300  0.00  0.00    +0.011 A 
ATOM     13  C   UNL     1       0.219  -2.046  -1.145  0.00  0.00    +0.039 A 
BRANCH   8  15
ATOM     14  C   UNL     1      -0.715   1.294   0.037  0.00  0.00    +0.277 C 
ATOM     15  O   UNL     1      -0.509  -0.120   0.047  0.00  0.00    -0.495 OA
ENDBRANCH   8  15
ENDBRANCH   1  13
BRANCH   6  16
ATOM     16  N   UNL     1       0.817  -5.129  -0.921  0.00  0.00    -0.183 NA
ATOM     17  C   UNL     1       1.540  -6.187  -0.712  0.00  0.00    +0.142 C 
BRANCH  17  18
ATOM     18  C   UNL     1       1.720  -7.181  -1.784  0.00  0.00    +0.038 A 
ATOM     19  C   UNL     1       2.492  -8.323  -1.561  0.00  0.00    +0.028 A 
ATOM     20  C   UNL     1       2.656  -9.250  -2.570  0.00  0.00    +0.020 A 
ATOM     21  C   UNL     1       2.058  -9.053  -3.804  0.00  0.00    +0.034 A 
ATOM     22  C   UNL     1       1.292  -7.926  -4.037  0.00  0.00    +0.061 A 
ATOM     23  C   UNL     1       1.112  -6.988  -3.032  0.00  0.00    +0.139 A 
ATOM     24 BR   UNL     1       0.481  -7.668  -5.725  0.00  0.00    -0.046 Br
ATOM     25 BR   UNL     1       3.702 -10.796  -2.267  0.00  0.00    -0.050 Br
BRANCH  23  26
ATOM     26  O   UNL     1       0.354  -5.883  -3.258  0.00  0.00    -0.505 OA
ATOM     27  H   UNL     1       0.851  -5.130  -3.606  0.00  0.00    +0.292 HD
ENDBRANCH  23  26
ENDBRANCH  17  18
ENDBRANCH   6  16
TORSDOF 5
