REMARK  Name = ZINC63572150
REMARK  5 active torsions:
REMARK  status: ('A' for Active; 'I' for Inactive)
REMARK    1  A    between atoms: C_1  and  C_2
REMARK    2  A    between atoms: C_7  and  N_8
REMARK    3  A    between atoms: C_24  and  C_26
REMARK    4  A    between atoms: C_29  and  O_32
REMARK    5  A    between atoms: O_32  and  C_33
REMARK                            x       y       z     vdW  Elec       q    Type
REMARK                         _______ _______ _______ _____ _____    ______ ____
ROOT
ATOM      1  N   UNL     1       0.137   0.305   2.506  0.00  0.00    -0.269 N 
ATOM      2  C   UNL     1      -0.004  -0.473   3.597  0.00  0.00    +0.307 C 
ATOM      3  O   UNL     1      -0.052  -1.683   3.479  0.00  0.00    -0.252 OA
ATOM      4  N   UNL     1      -0.090   0.088   4.819  0.00  0.00    -0.276 N 
ATOM      5  C   UNL     1      -0.147   1.548   4.945  0.00  0.00    +0.114 C 
ATOM      6  C   UNL     1       1.016   2.032   5.830  0.00  0.00    +0.052 C 
ATOM      7  C   UNL     1       1.058   1.117   7.028  0.00  0.00    -0.035 C 
ATOM      8  C   UNL     1       1.071   1.376   8.330  0.00  0.00    +0.001 A 
ATOM      9  C   UNL     1       1.161   2.641   9.076  0.00  0.00    +0.030 A 
ATOM     10  C   UNL     1       1.127   2.541  10.432  0.00  0.00    +0.042 A 
ATOM     11  C   UNL     1       1.015   1.323  11.112  0.00  0.00    +0.022 A 
ATOM     12  C   UNL     1       0.935   0.112  10.505  0.00  0.00    +0.027 A 
ATOM     13  C   UNL     1       0.969   0.087   9.081  0.00  0.00    +0.043 A 
ATOM     14  N   UNL     1       0.934  -0.918   8.256  0.00  0.00    -0.375 N 
ATOM     15  C   UNL     1       1.071  -0.401   6.894  0.00  0.00    +0.131 C 
ATOM     16  C   UNL     1      -0.133  -0.771   6.014  0.00  0.00    +0.134 C 
ATOM     17 CL   UNL     1       1.230   3.999  11.369  0.00  0.00    -0.084 Cl
ATOM     18  H   UNL     1       0.241   1.265   2.605  0.00  0.00    +0.156 HD
ATOM     19  H   UNL     1       0.834  -1.851   8.502  0.00  0.00    +0.160 HD
ENDROOT
BRANCH   1  26
ATOM     20  C   UNL     1      -0.828   1.867   0.332  0.00  0.00    +0.045 C 
ATOM     21  C   UNL     1      -0.331   0.457   0.142  0.00  0.00    -0.029 A 
ATOM     22  C   UNL     1      -0.330  -0.112  -1.117  0.00  0.00    +0.005 A 
ATOM     23  C   UNL     1       0.125  -1.405  -1.293  0.00  0.00    +0.000 A 
ATOM     24  C   UNL     1       0.581  -2.134  -0.209  0.00  0.00    +0.002 A 
ATOM     25  C   UNL     1       0.582  -1.571   1.052  0.00  0.00    +0.023 A 
ATOM     26  C   UNL     1       0.131  -0.270   1.231  0.00  0.00    +0.038 A 
ENDBRANCH   1  26
BRANCH  16  27
ATOM     27  C   UNL     1      -1.415  -0.530   6.769  0.00  0.00    -0.024 A 
ATOM     28  C   UNL     1      -2.287  -1.577   7.000  0.00  0.00    +0.009 A 
ATOM     29  C   UNL     1      -3.463  -1.359   7.692  0.00  0.00    +0.046 A 
ATOM     30  C   UNL     1      -3.767  -0.088   8.156  0.00  0.00    +0.120 A 
ATOM     31  C   UNL     1      -2.890   0.961   7.925  0.00  0.00    +0.046 A 
ATOM     32  C   UNL     1      -1.713   0.737   7.236  0.00  0.00    +0.009 A 
BRANCH  30  33
ATOM     33  O   UNL     1      -4.923   0.129   8.837  0.00  0.00    -0.495 OA
ATOM     34  C   UNL     1      -5.171   1.463   9.286  0.00  0.00    +0.277 C 
ENDBRANCH  30  33
ENDBRANCH  16  27
TORSDOF 3
