REMARK  Name = ZINC20395269
REMARK  3 active torsions:
REMARK  status: ('A' for Active; 'I' for Inactive)
REMARK    1  A    between atoms: C_7  and  C_22
REMARK    2  A    between atoms: N_14  and  C_15
REMARK    3  A    between atoms: C_15  and  C_16
REMARK                            x       y       z     vdW  Elec       q    Type
REMARK                         _______ _______ _______ _____ _____    ______ ____
ROOT
ATOM      1  C   UNL     1      -0.016   1.337   0.009  0.00  0.00    +0.033 C 
ATOM      2  C   UNL     1       0.002  -0.004   0.002  0.00  0.00    +0.031 C 
ATOM      3  C   UNL     1      -1.248  -0.784   0.004  0.00  0.00    +0.090 C 
ATOM      4  C   UNL     1      -1.182  -2.119   0.198  0.00  0.00    +0.249 C 
ATOM      5  O   UNL     1      -2.319  -2.853   0.236  0.00  0.00    -0.270 OA
ATOM      6  N   UNL     1       0.041  -2.739   0.356  0.00  0.00    -0.219 N 
ATOM      7  C   UNL     1       0.131  -4.204   0.383  0.00  0.00    +0.183 C 
ATOM      8  N   UNL     1       1.244  -4.603   1.248  0.00  0.00    -0.339 N 
ATOM      9  C   UNL     1       2.247  -3.797   1.469  0.00  0.00    +0.193 C 
ATOM     10  N   UNL     1       2.273  -2.544   0.982  0.00  0.00    -0.186 NA
ATOM     11  C   UNL     1       1.196  -2.007   0.453  0.00  0.00    +0.198 C 
ATOM     12  N   UNL     1       1.214  -0.715  -0.013  0.00  0.00    -0.287 N 
ATOM     13  N   UNL     1       3.311  -4.245   2.226  0.00  0.00    -0.310 N 
ATOM     14  H   UNL     1       2.032  -0.307  -0.339  0.00  0.00    +0.155 HD
ATOM     15  H   UNL     1       3.307  -5.146   2.584  0.00  0.00    +0.149 HD
ATOM     16  H   UNL     1       1.235  -5.480   1.663  0.00  0.00    +0.164 HD
ENDROOT
BRANCH   7  17
ATOM     17  C   UNL     1       0.372  -4.727  -1.034  0.00  0.00    +0.034 C 
ATOM     18  C   UNL     1       0.456  -6.258  -1.012  0.00  0.00    +0.011 C 
ATOM     19  C   UNL     1       0.873  -6.741  -2.403  0.00  0.00    +0.027 C 
ATOM     20  C   UNL     1       0.014  -6.097  -3.452  0.00  0.00    -0.031 C 
ATOM     21  C   UNL     1      -0.708  -5.042  -3.251  0.00  0.00    -0.031 C 
ATOM     22  C   UNL     1      -0.792  -4.316  -1.939  0.00  0.00    +0.034 C 
ENDBRANCH   7  17
BRANCH  13  23
ATOM     23  C   UNL     1       4.448  -3.358   2.487  0.00  0.00    +0.159 C 
BRANCH  23  24
ATOM     24  C   UNL     1       5.466  -4.082   3.329  0.00  0.00    +0.058 A 
ATOM     25  C   UNL     1       6.531  -4.718   2.718  0.00  0.00    +0.025 A 
ATOM     26  C   UNL     1       7.462  -5.381   3.502  0.00  0.00    +0.003 A 
ATOM     27  C   UNL     1       7.287  -5.380   4.878  0.00  0.00    +0.020 A 
ATOM     28  C   UNL     1       6.199  -4.722   5.418  0.00  0.00    +0.111 A 
ATOM     29  N   UNL     1       5.335  -4.097   4.641  0.00  0.00    -0.258 NA
ENDBRANCH  23  24
ENDBRANCH  13  23
TORSDOF 3
