REMARK  Name = ZINC39898709
REMARK  8 active torsions:
REMARK  status: ('A' for Active; 'I' for Inactive)
REMARK    1  A    between atoms: C_1  and  C_2
REMARK    2  A    between atoms: C_2  and  C_3
REMARK    3  A    between atoms: C_2  and  C_4
REMARK    4  A    between atoms: C_7  and  C_10
REMARK    5  A    between atoms: C_13  and  C_24
REMARK    6  A    between atoms: N_20  and  C_21
REMARK    7  A    between atoms: C_21  and  C_22
REMARK    8  A    between atoms: C_29  and  O_30
REMARK                            x       y       z     vdW  Elec       q    Type
REMARK                         _______ _______ _______ _____ _____    ______ ____
ROOT
ATOM      1  C   UNL     1       2.760  -1.925   4.656  0.00  0.00    +0.142 C 
ATOM      2  C   UNL     1       3.117  -3.379   4.513  0.00  0.00    +0.035 A 
ATOM      3  C   UNL     1       3.811  -4.358   3.793  0.00  0.00    +0.102 A 
ATOM      4  N   UNL     1       3.583  -5.516   4.382  0.00  0.00    -0.173 NA
ATOM      5  N   UNL     1       2.815  -5.365   5.401  0.00  0.00    -0.272 N 
ATOM      6  H   UNL     1       2.515  -6.080   5.984  0.00  0.00    +0.189 HD
ATOM      7  C   UNL     1       2.483  -4.047   5.543  0.00  0.00    +0.126 A 
ATOM      8  C   UNL     1       1.733  -3.071   6.341  0.00  0.00    +0.266 C 
ATOM      9  O   UNL     1       1.066  -3.341   7.321  0.00  0.00    -0.268 OA
ATOM     10  N   UNL     1       1.887  -1.833   5.834  0.00  0.00    -0.281 N 
ENDROOT
BRANCH   3  11
ATOM     11  C   UNL     1       4.648  -4.134   2.589  0.00  0.00    +0.045 A 
ATOM     12  C   UNL     1       4.908  -2.839   2.149  0.00  0.00    +0.033 A 
ATOM     13  C   UNL     1       5.688  -2.636   1.027  0.00  0.00    +0.042 A 
ATOM     14  C   UNL     1       6.213  -3.716   0.338  0.00  0.00    +0.023 A 
ATOM     15  C   UNL     1       5.960  -5.005   0.767  0.00  0.00    +0.047 A 
ATOM     16  C   UNL     1       5.184  -5.222   1.895  0.00  0.00    +0.126 A 
ATOM     17 CL   UNL     1       6.012  -1.021   0.478  0.00  0.00    -0.084 Cl
BRANCH  16  18
ATOM     18  O   UNL     1       4.940  -6.489   2.321  0.00  0.00    -0.506 OA
ATOM     19  H   UNL     1       4.147  -6.888   1.936  0.00  0.00    +0.292 HD
ENDBRANCH  16  18
ENDBRANCH   3  11
BRANCH   1  23
ATOM     20  C   UNL     1       0.681  -0.570   1.179  0.00  0.00    -0.045 A 
ATOM     21  C   UNL     1       0.091  -1.493   2.021  0.00  0.00    +0.004 A 
ATOM     22  C   UNL     1       0.763  -1.932   3.147  0.00  0.00    +0.006 A 
ATOM     23  C   UNL     1       2.027  -1.448   3.429  0.00  0.00    -0.022 A 
ATOM     24  C   UNL     1       2.618  -0.525   2.586  0.00  0.00    +0.006 A 
ATOM     25  C   UNL     1       1.947  -0.090   1.458  0.00  0.00    +0.004 A 
BRANCH  20  27
ATOM     26  C   UNL     1      -0.359  -1.285  -0.956  0.00  0.00    +0.012 C 
ATOM     27  C   UNL     1      -0.052  -0.092  -0.048  0.00  0.00    +0.013 C 
ATOM     28  C   UNL     1      -1.361   0.581   0.370  0.00  0.00    +0.012 C 
ENDBRANCH  20  27
ENDBRANCH   1  23
BRANCH  10  29
ATOM     29  C   UNL     1       1.288  -0.606   6.365  0.00  0.00    +0.135 C 
BRANCH  29  30
ATOM     30  C   UNL     1      -0.055  -0.382   5.719  0.00  0.00    -0.016 C 
ATOM     31  C   UNL     1      -1.122  -0.232   6.463  0.00  0.00    +0.005 C 
ENDBRANCH  29  30
ENDBRANCH  10  29
TORSDOF 6
