REMARK  Name = ZINC09452604
REMARK  13 active torsions:
REMARK  status: ('A' for Active; 'I' for Inactive)
REMARK    1  A    between atoms: C_1  and  C_2
REMARK    2  A    between atoms: C_2  and  N_65
REMARK    3  A    between atoms: C_3  and  C_4
REMARK    4  A    between atoms: C_3  and  N_65
REMARK    5  A    between atoms: C_5  and  C_6
REMARK    6  A    between atoms: C_5  and  N_65
REMARK    7  A    between atoms: C_6  and  C_7
REMARK    8  A    between atoms: C_7  and  N_8
REMARK    9  A    between atoms: C_9  and  C_29
REMARK   10  A    between atoms: C_11  and  C_16
REMARK   11  A    between atoms: C_12  and  O_15
REMARK   12  A    between atoms: C_16  and  C_18
REMARK   13  A    between atoms: C_25  and  C_28
REMARK                            x       y       z     vdW  Elec       q    Type
REMARK                         _______ _______ _______ _____ _____    ______ ____
ROOT
ATOM      1  N   UNL     1      -5.198   1.173  -0.039  0.00  0.00    -0.284 N 
ATOM      2  C   UNL     1      -3.769   1.501   0.030  0.00  0.00    +0.144 C 
ATOM      3  C   UNL     1      -3.683   3.009   0.045  0.00  0.00    +0.071 C 
ATOM      4  C   UNL     1      -4.953   3.473  -0.006  0.00  0.00    +0.188 C 
ATOM      5  C   UNL     1      -5.886   2.329  -0.064  0.00  0.00    +0.282 C 
ATOM      6  O   UNL     1      -7.097   2.418  -0.120  0.00  0.00    -0.267 OA
ENDROOT
BRANCH   2   7
ATOM      7  C   UNL     1      -3.051   0.953  -1.176  0.00  0.00    -0.021 A 
ATOM      8  C   UNL     1      -3.624   1.060  -2.429  0.00  0.00    +0.007 A 
ATOM      9  C   UNL     1      -2.964   0.563  -3.537  0.00  0.00    +0.022 A 
ATOM     10  C   UNL     1      -1.734  -0.052  -3.391  0.00  0.00    +0.059 A 
ATOM     11  C   UNL     1      -1.162  -0.164  -2.135  0.00  0.00    +0.060 A 
ATOM     12  C   UNL     1      -1.821   0.339  -1.028  0.00  0.00    +0.027 A 
ATOM     13 CL   UNL     1       0.383  -0.935  -1.950  0.00  0.00    -0.082 Cl
ATOM     14 CL   UNL     1      -0.907  -0.683  -4.781  0.00  0.00    -0.082 Cl
ENDBRANCH   2   7
BRANCH   4  15
ATOM     15  O   UNL     1      -5.312   4.778  -0.007  0.00  0.00    -0.502 OA
ATOM     16  H   UNL     1      -6.308   4.850  -0.050  0.00  0.00    +0.292 HD
ENDBRANCH   4  15
BRANCH   3  17
ATOM     17  C   UNL     1      -2.459   3.815   0.109  0.00  0.00    +0.195 C 
ATOM     18  O   UNL     1      -2.146   4.522  -0.831  0.00  0.00    -0.287 OA
BRANCH  17  19
ATOM     19  C   UNL     1      -1.607   3.769   1.313  0.00  0.00    +0.023 A 
ATOM     20  C   UNL     1      -1.998   3.016   2.425  0.00  0.00    +0.015 A 
ATOM     21  C   UNL     1      -1.205   2.976   3.546  0.00  0.00    +0.046 A 
ATOM     22  C   UNL     1       0.002   3.678   3.585  0.00  0.00    +0.124 A 
ATOM     23  C   UNL     1       0.386   4.426   2.475  0.00  0.00    -0.002 A 
ATOM     24  C   UNL     1      -0.400   4.474   1.350  0.00  0.00    +0.019 A 
ATOM     25  C   UNL     1       1.713   5.076   2.816  0.00  0.00    +0.083 C 
ATOM     26  C   UNL     1       1.766   4.905   4.353  0.00  0.00    +0.175 C 
ATOM     27  O   UNL     1       0.929   3.757   4.576  0.00  0.00    -0.488 OA
ATOM     28  C   UNL     1       1.192   6.138   5.055  0.00  0.00    +0.052 C 
ENDBRANCH  17  19
ENDBRANCH   3  17
BRANCH   1  29
ATOM     29  C   UNL     1      -5.772  -0.174  -0.076  0.00  0.00    +0.107 C 
BRANCH  29  30
ATOM     30  C   UNL     1      -6.040  -0.653   1.353  0.00  0.00    +0.000 C 
BRANCH  30  31
ATOM     31  C   UNL     1      -6.641  -2.060   1.315  0.00  0.00    -0.077 C 
BRANCH  31  32
ATOM     32  N   UNL     1      -6.758  -2.562   2.700  0.00  0.00    +0.379 N 
ATOM     33  H   UNL     1      -5.908  -2.312   3.219  0.00  0.00    -0.082 HD
BRANCH  32  35
ATOM     34  C   UNL     1      -7.894  -2.302   4.851  0.00  0.00    -0.017 C 
ATOM     35  C   UNL     1      -7.925  -1.942   3.364  0.00  0.00    -0.082 C 
ENDBRANCH  32  35
BRANCH  32  36
ATOM     36  C   UNL     1      -6.903  -4.032   2.693  0.00  0.00    -0.082 C 
ATOM     37  C   UNL     1      -5.531  -4.659   2.440  0.00  0.00    -0.017 C 
ENDBRANCH  32  36
ENDBRANCH  31  32
ENDBRANCH  30  31
ENDBRANCH  29  30
ENDBRANCH   1  29
TORSDOF 10
