REMARK  Name = ZINC64789406
REMARK  7 active torsions:
REMARK  status: ('A' for Active; 'I' for Inactive)
REMARK    1  A    between atoms: C_1  and  C_2
REMARK    2  A    between atoms: C_2  and  C_3
REMARK    3  A    between atoms: C_6  and  C_28
REMARK    4  A    between atoms: N_16  and  C_19
REMARK    5  A    between atoms: C_21  and  C_26
REMARK    6  A    between atoms: C_23  and  C_25
REMARK    7  A    between atoms: C_29  and  C_33
REMARK                            x       y       z     vdW  Elec       q    Type
REMARK                         _______ _______ _______ _____ _____    ______ ____
ROOT
ATOM      1  C   UNL     1       3.629  -1.506   0.416  0.00  0.00    +0.232 C 
ATOM      2  O   UNL     1       4.458  -0.836  -0.164  0.00  0.00    -0.274 OA
ATOM      3  N   UNL     1       3.108  -2.597  -0.179  0.00  0.00    -0.214 N 
ATOM      4  C   UNL     1       3.461  -3.084  -1.520  0.00  0.00    +0.139 C 
ATOM      5  C   UNL     1       2.592  -4.340  -1.714  0.00  0.00    +0.082 C 
ATOM      6  C   UNL     1       1.804  -4.452  -0.429  0.00  0.00    +0.041 C 
ATOM      7  N   UNL     1       2.153  -3.443   0.382  0.00  0.00    -0.264 N 
ATOM      8  C   UNL     1       0.879  -5.437  -0.135  0.00  0.00    +0.118 C 
ATOM      9  C   UNL     1       0.573  -6.515  -1.093  0.00  0.00    +0.258 C 
ATOM     10  N   UNL     1      -0.340  -7.442  -0.739  0.00  0.00    -0.235 N 
ATOM     11  C   UNL     1      -0.961  -7.396   0.449  0.00  0.00    +0.320 C 
ATOM     12  O   UNL     1      -1.774  -8.261   0.707  0.00  0.00    -0.251 OA
ATOM     13  N   UNL     1      -0.732  -6.446   1.367  0.00  0.00    -0.190 N 
ATOM     14  C   UNL     1       0.161  -5.458   1.151  0.00  0.00    +0.265 C 
ATOM     15  O   UNL     1       0.364  -4.605   1.994  0.00  0.00    -0.269 OA
ATOM     16  O   UNL     1       1.129  -6.567  -2.174  0.00  0.00    -0.270 OA
ATOM     17  H   UNL     1      -0.553  -8.158  -1.357  0.00  0.00    +0.159 HD
ATOM     18  H   UNL     1       1.778  -3.313   1.267  0.00  0.00    +0.170 HD
ENDROOT
BRANCH  13  19
ATOM     19  C   UNL     1      -1.432  -6.484   2.580  0.00  0.00    +0.046 A 
ATOM     20  C   UNL     1      -2.650  -5.828   2.701  0.00  0.00    +0.027 A 
ATOM     21  C   UNL     1      -3.337  -5.867   3.899  0.00  0.00    -0.048 A 
ATOM     22  C   UNL     1      -2.814  -6.558   4.976  0.00  0.00    +0.006 A 
ATOM     23  C   UNL     1      -1.601  -7.212   4.858  0.00  0.00    -0.048 A 
ATOM     24  C   UNL     1      -0.912  -7.182   3.662  0.00  0.00    +0.027 A 
ATOM     25  C   UNL     1      -1.034  -7.963   6.035  0.00  0.00    +0.044 C 
ATOM     26  C   UNL     1      -4.659  -5.155   4.031  0.00  0.00    +0.044 C 
ENDBRANCH  13  19
BRANCH   4  27
ATOM     27  C   UNL     1       3.130  -2.046  -2.561  0.00  0.00    +0.015 A 
ATOM     28  C   UNL     1       3.862  -1.644  -3.629  0.00  0.00    -0.038 A 
ATOM     29  C   UNL     1       3.353  -0.664  -4.460  0.00  0.00    +0.011 A 
ATOM     30  C   UNL     1       2.136  -0.135  -4.184  0.00  0.00    +0.046 A 
ATOM     31  S   UNL     1       1.669  -1.032  -2.713  0.00  0.00    -0.099 S 
ATOM     32  C   UNL     1       5.212  -2.255  -3.904  0.00  0.00    +0.044 C 
ENDBRANCH   4  27
BRANCH   1  34
ATOM     33  C   UNL     1       3.923   0.147   2.241  0.00  0.00    +0.013 C 
ATOM     34  C   UNL     1       3.183  -1.118   1.802  0.00  0.00    +0.094 C 
ENDBRANCH   1  34
TORSDOF 3
