REMARK  Name = ZINC66392564
REMARK  11 active torsions:
REMARK  status: ('A' for Active; 'I' for Inactive)
REMARK    1  A    between atoms: C_1  and  C_2
REMARK    2  A    between atoms: C_2  and  C_3
REMARK    3  A    between atoms: C_6  and  N_9
REMARK    4  A    between atoms: C_10  and  C_12
REMARK    5  A    between atoms: C_12  and  C_14
REMARK    6  A    between atoms: C_12  and  N_15
REMARK    7  A    between atoms: N_15  and  C_16
REMARK    8  A    between atoms: C_19  and  N_22
REMARK    9  A    between atoms: N_22  and  C_23
REMARK   10  A    between atoms: C_24  and  O_26
REMARK   11  A    between atoms: O_26  and  C_27
REMARK                            x       y       z     vdW  Elec       q    Type
REMARK                         _______ _______ _______ _____ _____    ______ ____
ROOT
ATOM      1  C   UNL     1      -7.470  -2.499  -1.077  0.00  0.00    +0.154 C 
ATOM      2  C   UNL     1      -8.291  -1.458  -0.314  0.00  0.00    +0.038 C 
ENDROOT
BRANCH   1   4
ATOM      3  N   UNL     1      -5.357  -1.940   0.082  0.00  0.00    -0.284 N 
ATOM      4  C   UNL     1      -6.020  -2.089  -1.082  0.00  0.00    +0.237 C 
ATOM      5  O   UNL     1      -5.449  -1.893  -2.134  0.00  0.00    -0.273 OA
ATOM      6  H   UNL     1      -5.795  -2.157   0.920  0.00  0.00    +0.155 HD
BRANCH   3  10
ATOM      7  C   UNL     1      -1.430  -0.551   0.081  0.00  0.00    -0.048 A 
ATOM      8  C   UNL     1      -1.873  -1.367  -0.944  0.00  0.00    +0.005 A 
ATOM      9  C   UNL     1      -3.175  -1.830  -0.946  0.00  0.00    +0.023 A 
ATOM     10  C   UNL     1      -4.038  -1.474   0.082  0.00  0.00    +0.033 A 
ATOM     11  C   UNL     1      -3.589  -0.654   1.109  0.00  0.00    +0.023 A 
ATOM     12  C   UNL     1      -2.285  -0.199   1.108  0.00  0.00    +0.005 A 
BRANCH   7  14
ATOM     13  C   UNL     1       0.885  -1.044   0.822  0.00  0.00    +0.009 C 
ATOM     14  C   UNL     1      -0.009  -0.049   0.080  0.00  0.00    +0.032 C 
ENDBRANCH   7  14
ENDBRANCH   3  10
ENDBRANCH   1   4
BRANCH   1  15
ATOM     15  N   UNL     1      -7.956  -2.591  -2.456  0.00  0.00    -0.333 N 
ATOM     16  H   UNL     1      -7.526  -2.078  -3.157  0.00  0.00    +0.147 HD
BRANCH  15  17
ATOM     17  C   UNL     1      -9.041  -3.420  -2.761  0.00  0.00    +0.028 A 
ATOM     18  C   UNL     1      -9.661  -4.152  -1.756  0.00  0.00    +0.025 A 
ATOM     19  C   UNL     1     -10.732  -4.970  -2.057  0.00  0.00    +0.025 A 
ATOM     20  C   UNL     1     -11.189  -5.061  -3.365  0.00  0.00    +0.039 A 
ATOM     21  C   UNL     1     -10.570  -4.330  -4.370  0.00  0.00    +0.025 A 
ATOM     22  C   UNL     1      -9.502  -3.508  -4.068  0.00  0.00    +0.025 A 
BRANCH  20  23
ATOM     23  N   UNL     1     -12.276  -5.891  -3.671  0.00  0.00    -0.240 N 
ATOM     24  C   UNL     1     -13.456  -5.337  -4.339  0.00  0.00    +0.142 C 
ATOM     25  C   UNL     1     -12.236  -7.200  -3.350  0.00  0.00    +0.407 C 
ATOM     26  O   UNL     1     -11.222  -7.679  -2.882  0.00  0.00    -0.226 OA
BRANCH  25  27
ATOM     27  O   UNL     1     -13.319  -7.975  -3.548  0.00  0.00    -0.453 OA
ATOM     28  C   UNL     1     -13.205  -9.353  -3.185  0.00  0.00    +0.282 C 
ENDBRANCH  25  27
ENDBRANCH  20  23
ENDBRANCH  15  17
ENDBRANCH   1  15
TORSDOF 7
