REMARK  Name = ZINC35105338
REMARK  10 active torsions:
REMARK  status: ('A' for Active; 'I' for Inactive)
REMARK    1  A    between atoms: C_1  and  C_2
REMARK    2  A    between atoms: C_2  and  C_3
REMARK    3  A    between atoms: C_3  and  C_5
REMARK    4  A    between atoms: C_3  and  N_6
REMARK    5  A    between atoms: C_7  and  C_9
REMARK    6  A    between atoms: N_17  and  S_20
REMARK    7  A    between atoms: S_20  and  C_23
REMARK    8  A    between atoms: C_24  and  C_31
REMARK    9  A    between atoms: C_26  and  C_30
REMARK   10  A    between atoms: C_28  and  C_29
REMARK                            x       y       z     vdW  Elec       q    Type
REMARK                         _______ _______ _______ _____ _____    ______ ____
ROOT
ATOM      1  C   UNL     1       4.298   2.003  -2.442  0.00  0.00    +0.028 C 
ATOM      2  C   UNL     1       5.176   1.307  -1.360  0.00  0.00    +0.061 C 
ATOM      3  S   UNL     1       6.835   1.594  -2.128  0.00  0.00    -0.174 S 
ATOM      4  C   UNL     1       6.281   1.569  -3.881  0.00  0.00    -0.016 C 
ATOM      5  N   UNL     1       4.823   1.738  -3.786  0.00  0.00    +0.397 N 
ATOM      6  C   UNL     1       6.922   2.726  -4.635  0.00  0.00    +0.015 C 
ATOM      7  C   UNL     1       6.444   2.715  -6.091  0.00  0.00    +0.109 C 
ATOM      8  N   UNL     1       6.694   1.383  -6.659  0.00  0.00    -0.177 NA
ATOM      9  C   UNL     1       6.157   0.204  -5.965  0.00  0.00    +0.109 C 
ATOM     10  C   UNL     1       6.638   0.230  -4.509  0.00  0.00    +0.015 C 
ATOM     11  H   UNL     1       4.384   0.900  -4.136  0.00  0.00    -0.083 HD
ATOM     12  H   UNL     1       4.556   2.505  -4.385  0.00  0.00    -0.083 HD
ENDROOT
BRANCH   1  14
ATOM     13  N   UNL     1       2.187   1.632  -1.208  0.00  0.00    -0.314 N 
ATOM     14  C   UNL     1       2.888   1.478  -2.348  0.00  0.00    +0.200 C 
ATOM     15  O   UNL     1       2.385   0.918  -3.299  0.00  0.00    -0.278 OA
ATOM     16  H   UNL     1       2.589   2.080  -0.447  0.00  0.00    +0.149 HD
BRANCH  13  17
ATOM     17  C   UNL     1       0.816   1.123  -1.116  0.00  0.00    +0.070 C 
ATOM     18  C   UNL     1       0.847  -0.356  -0.725  0.00  0.00    +0.028 C 
BRANCH  17  20
ATOM     19  C   UNL     1      -0.091   3.370  -0.508  0.00  0.00    +0.005 C 
ATOM     20  C   UNL     1       0.047   1.915  -0.057  0.00  0.00    +0.018 C 
ENDBRANCH  17  20
ENDBRANCH  13  17
ENDBRANCH   1  14
BRANCH   8  21
ATOM     21  S   UNL     1       7.566   1.214  -8.057  0.00  0.00    +0.061 S 
ATOM     22  O   UNL     1       7.088   0.036  -8.693  0.00  0.00    -0.153 OA
ATOM     23  O   UNL     1       7.558   2.482  -8.697  0.00  0.00    -0.153 OA
BRANCH  21  24
ATOM     24  C   UNL     1       9.236   0.893  -7.594  0.00  0.00    +0.111 A 
ATOM     25  C   UNL     1       9.705  -0.406  -7.555  0.00  0.00    -0.024 A 
ATOM     26  C   UNL     1      11.015  -0.658  -7.192  0.00  0.00    +0.008 A 
ATOM     27  C   UNL     1      11.855   0.391  -6.868  0.00  0.00    -0.050 A 
ATOM     28  C   UNL     1      11.386   1.690  -6.908  0.00  0.00    +0.008 A 
ATOM     29  C   UNL     1      10.078   1.942  -7.275  0.00  0.00    -0.024 A 
ATOM     30  C   UNL     1       9.568   3.359  -7.324  0.00  0.00    +0.046 C 
ATOM     31  C   UNL     1      13.283   0.117  -6.471  0.00  0.00    +0.044 C 
ATOM     32  C   UNL     1       8.788  -1.550  -7.908  0.00  0.00    +0.046 C 
ENDBRANCH  21  24
ENDBRANCH   8  21
TORSDOF 5
