REMARK  Name = ZINC13959405
REMARK  7 active torsions:
REMARK  status: ('A' for Active; 'I' for Inactive)
REMARK    1  A    between atoms: C_1  and  C_2
REMARK    2  A    between atoms: C_2  and  C_37
REMARK    3  A    between atoms: C_7  and  C_36
REMARK    4  A    between atoms: N_9  and  N_10
REMARK    5  A    between atoms: C_11  and  C_13
REMARK    6  A    between atoms: C_18  and  C_31
REMARK    7  A    between atoms: C_21  and  C_24
REMARK                            x       y       z     vdW  Elec       q    Type
REMARK                         _______ _______ _______ _____ _____    ______ ____
ROOT
ATOM      1  C   UNL     1      -4.774   1.483  -1.395  0.00  0.00    +0.151 A 
ATOM      2  C   UNL     1      -4.677   1.660   0.004  0.00  0.00    +0.078 A 
ATOM      3  C   UNL     1      -3.381   1.518   0.343  0.00  0.00    +0.119 A 
ATOM      4  N   UNL     1      -2.669   1.258  -0.794  0.00  0.00    -0.238 N 
ATOM      5  N   UNL     1      -3.562   1.243  -1.865  0.00  0.00    -0.164 NA
ATOM      6  C   UNL     1      -1.220   1.041  -0.814  0.00  0.00    +0.215 C 
ATOM      7  C   UNL     1      -0.754   0.675   0.600  0.00  0.00    +0.063 C 
ATOM      8  C   UNL     1      -1.306   1.688   1.609  0.00  0.00    +0.104 C 
ATOM      9  N   UNL     1      -2.778   1.606   1.601  0.00  0.00    -0.322 N 
ATOM     10  H   UNL     1      -3.298   1.612   2.420  0.00  0.00    +0.148 HD
ENDROOT
BRANCH   8  11
ATOM     11  C   UNL     1      -0.791   1.363   2.987  0.00  0.00    -0.027 A 
ATOM     12  C   UNL     1      -1.388   0.361   3.729  0.00  0.00    +0.008 A 
ATOM     13  C   UNL     1      -0.913   0.059   4.991  0.00  0.00    +0.038 A 
ATOM     14  C   UNL     1       0.155   0.767   5.516  0.00  0.00    +0.123 A 
ATOM     15  C   UNL     1       0.749   1.774   4.774  0.00  0.00    +0.038 A 
ATOM     16  C   UNL     1       0.275   2.071   3.510  0.00  0.00    +0.008 A 
ATOM     17  F   UNL     1       0.616   0.476   6.752  0.00  0.00    -0.205 F 
ENDBRANCH   8  11
BRANCH   1  19
ATOM     18  N   UNL     1      -5.968   1.366  -3.528  0.00  0.00    -0.202 N 
ATOM     19  C   UNL     1      -6.014   1.554  -2.194  0.00  0.00    +0.283 C 
ATOM     20  O   UNL     1      -7.077   1.782  -1.649  0.00  0.00    -0.267 OA
ATOM     21  H   UNL     1      -5.121   1.184  -3.963  0.00  0.00    +0.178 HD
BRANCH  18  29
ATOM     22  C   UNL     1      -6.733   3.568  -7.376  0.00  0.00    +0.012 C 
ATOM     23  C   UNL     1      -6.342   2.125  -7.704  0.00  0.00    -0.021 C 
ATOM     24  C   UNL     1      -7.598   1.214  -7.947  0.00  0.00    +0.001 C 
ATOM     25  C   UNL     1      -6.926  -0.192  -8.006  0.00  0.00    +0.005 C 
ATOM     26  C   UNL     1      -5.754  -0.102  -7.001  0.00  0.00    +0.013 C 
ATOM     27  C   UNL     1      -5.829   1.351  -6.440  0.00  0.00    +0.013 C 
ATOM     28  C   UNL     1      -7.088   1.361  -5.563  0.00  0.00    +0.044 C 
ATOM     29  N   UNL     1      -7.144   1.433  -4.286  0.00  0.00    -0.188 NA
ATOM     30  C   UNL     1      -8.256   1.262  -6.534  0.00  0.00    +0.057 C 
ATOM     31  C   UNL     1      -4.552   1.877  -5.781  0.00  0.00    +0.018 C 
ATOM     32  C   UNL     1      -5.348   2.056  -8.865  0.00  0.00    +0.012 C 
ENDBRANCH  18  29
ENDBRANCH   1  19
BRANCH   6  33
ATOM     33  C   UNL     1      -0.883  -0.100  -1.776  0.00  0.00    +0.412 C 
ATOM     34  F   UNL     1      -1.532  -1.268  -1.360  0.00  0.00    -0.168 F 
ATOM     35  F   UNL     1      -1.310   0.236  -3.065  0.00  0.00    -0.168 F 
ATOM     36  F   UNL     1       0.500  -0.311  -1.782  0.00  0.00    -0.168 F 
ENDBRANCH   6  33
TORSDOF 4
