REMARK  Name = ZINC20406603
REMARK  4 active torsions:
REMARK  status: ('A' for Active; 'I' for Inactive)
REMARK    1  A    between atoms: C_1  and  C_2
REMARK    2  A    between atoms: C_9  and  N_20
REMARK    3  A    between atoms: C_10  and  C_18
REMARK    4  A    between atoms: C_15  and  C_17
REMARK                            x       y       z     vdW  Elec       q    Type
REMARK                         _______ _______ _______ _____ _____    ______ ____
ROOT
ATOM      1  C   UNL     1      -0.165   1.144   0.046  0.00  0.00    +0.065 C 
ATOM      2  C   UNL     1      -0.436  -0.310  -0.242  0.00  0.00    +0.041 A 
ATOM      3  C   UNL     1      -0.555  -0.867  -1.456  0.00  0.00    +0.050 A 
ATOM      4  C   UNL     1      -0.805  -2.248  -1.282  0.00  0.00    +0.245 A 
ATOM      5  N   UNL     1      -0.833  -2.493  -0.005  0.00  0.00    -0.135 NA
ATOM      6  N   UNL     1      -0.598  -1.289   0.677  0.00  0.00    -0.278 N 
ATOM      7  H   UNL     1      -0.561  -1.178   1.640  0.00  0.00    +0.189 HD
ATOM      8  O   UNL     1      -0.971  -3.087  -2.340  0.00  0.00    -0.421 OA
ATOM      9  C   UNL     1      -0.635  -2.633  -3.563  0.00  0.00    +0.201 C 
ATOM     10  C   UNL     1      -0.385  -1.336  -3.854  0.00  0.00    +0.099 C 
ATOM     11  C   UNL     1      -0.460  -0.249  -2.821  0.00  0.00    +0.070 C 
ATOM     12  C   UNL     1      -1.676   0.660  -3.086  0.00  0.00    +0.048 C 
ATOM     13  C   UNL     1      -1.098   2.067  -2.776  0.00  0.00    +0.161 C 
ATOM     14  O   UNL     1       0.260   1.989  -3.260  0.00  0.00    -0.376 OA
ATOM     15  C   UNL     1       0.756   0.682  -2.917  0.00  0.00    +0.131 C 
ATOM     16  C   UNL     1       1.710   0.183  -4.004  0.00  0.00    +0.039 C 
ENDROOT
BRANCH   9  17
ATOM     17  N   UNL     1      -0.539  -3.548  -4.582  0.00  0.00    -0.328 N 
ATOM     18  H   UNL     1      -0.711  -4.487  -4.409  0.00  0.00    +0.145 HD
ATOM     19  H   UNL     1      -0.299  -3.256  -5.475  0.00  0.00    +0.145 HD
ENDBRANCH   9  17
BRANCH  10  20
ATOM     20  C   UNL     1      -0.035  -0.986  -5.197  0.00  0.00    +0.101 C 
ATOM     21  N   UNL     1       0.243  -0.708  -6.263  0.00  0.00    -0.191 NA
ENDBRANCH  10  20
TORSDOF 2
