REMARK  Name = ZINC25521264
REMARK  11 active torsions:
REMARK  status: ('A' for Active; 'I' for Inactive)
REMARK    1  A    between atoms: C_1  and  N_2
REMARK    2  A    between atoms: N_2  and  C_3
REMARK    3  A    between atoms: N_2  and  C_4
REMARK    4  A    between atoms: C_4  and  C_5
REMARK    5  A    between atoms: C_8  and  C_11
REMARK    6  A    between atoms: C_16  and  C_17
REMARK    7  A    between atoms: C_17  and  N_18
REMARK    8  A    between atoms: C_19  and  C_21
REMARK    9  A    between atoms: C_24  and  C_26
REMARK   10  A    between atoms: C_26  and  S_27
REMARK   11  A    between atoms: S_27  and  C_30
REMARK                            x       y       z     vdW  Elec       q    Type
REMARK                         _______ _______ _______ _____ _____    ______ ____
ROOT
ATOM      1  N   UNL     1       1.020   5.709   0.256  0.00  0.00    -0.305 N 
ATOM      2  C   UNL     1       1.682   4.561   0.502  0.00  0.00    +0.280 C 
ATOM      3  O   UNL     1       2.899   4.558   0.546  0.00  0.00    -0.267 OA
ATOM      4  H   UNL     1      -0.079   5.712   0.216  0.00  0.00    +0.149 HD
ENDROOT
BRANCH   2   5
ATOM      5  C   UNL     1       0.938   3.317   0.718  0.00  0.00    +0.189 A 
ATOM      6  C   UNL     1       1.481   2.091   0.975  0.00  0.00    +0.055 A 
ATOM      7  C   UNL     1       0.409   1.195   1.111  0.00  0.00    +0.047 A 
ATOM      8  C   UNL     1      -0.727   1.903   0.927  0.00  0.00    +0.127 A 
ATOM      9  O   UNL     1      -0.405   3.182   0.695  0.00  0.00    -0.453 OA
BRANCH   8  10
ATOM     10  C   UNL     1      -2.126   1.345   0.977  0.00  0.00    +0.245 C 
BRANCH  10  11
ATOM     11  S   UNL     1      -2.757   1.446   2.675  0.00  0.00    +0.004 S 
ATOM     12  O   UNL     1      -2.035   0.559   3.518  0.00  0.00    -0.169 OA
ATOM     13  O   UNL     1      -2.947   2.804   3.046  0.00  0.00    -0.169 OA
BRANCH  11  14
ATOM     14  C   UNL     1      -4.382   0.770   2.595  0.00  0.00    +0.089 A 
ATOM     15  C   UNL     1      -5.462   1.595   2.341  0.00  0.00    +0.027 A 
ATOM     16  C   UNL     1      -6.736   1.063   2.273  0.00  0.00    +0.002 A 
ATOM     17  C   UNL     1      -6.932  -0.291   2.471  0.00  0.00    +0.000 A 
ATOM     18  C   UNL     1      -5.852  -1.115   2.731  0.00  0.00    +0.002 A 
ATOM     19  C   UNL     1      -4.577  -0.584   2.793  0.00  0.00    +0.027 A 
ENDBRANCH  11  14
ENDBRANCH  10  11
ENDBRANCH   8  10
ENDBRANCH   2   5
BRANCH   1  20
ATOM     20  C   UNL     1       1.764   6.953   0.040  0.00  0.00    +0.140 C 
BRANCH  20  26
ATOM     21  C   UNL     1       0.156   8.596   1.054  0.00  0.00    -0.013 A 
ATOM     22  C   UNL     1      -0.734   9.662   0.936  0.00  0.00    +0.009 A 
ATOM     23  C   UNL     1      -0.983  10.216  -0.303  0.00  0.00    +0.001 A 
ATOM     24  C   UNL     1      -0.347   9.718  -1.426  0.00  0.00    +0.000 A 
ATOM     25  C   UNL     1       0.540   8.664  -1.314  0.00  0.00    +0.006 A 
ATOM     26  C   UNL     1       0.797   8.102  -0.080  0.00  0.00    -0.023 A 
BRANCH  21  30
ATOM     27  C   UNL     1       0.922   6.867   4.863  0.00  0.00    -0.064 A 
ATOM     28  C   UNL     1       1.970   7.360   4.106  0.00  0.00    +0.002 A 
ATOM     29  C   UNL     1       1.727   7.922   2.870  0.00  0.00    +0.009 A 
ATOM     30  C   UNL     1       0.423   7.993   2.383  0.00  0.00    -0.018 A 
ATOM     31  C   UNL     1      -0.629   7.500   3.152  0.00  0.00    +0.009 A 
ATOM     32  C   UNL     1      -0.374   6.934   4.385  0.00  0.00    +0.002 A 
BRANCH  27  33
ATOM     33  C   UNL     1       1.193   6.254   6.213  0.00  0.00    -0.044 C 
BRANCH  33  35
ATOM     34  C   UNL     1       1.150   6.707   8.591  0.00  0.00    -0.096 C 
ATOM     35  N   UNL     1       1.127   7.297   7.246  0.00  0.00    +0.379 N 
ATOM     36  C   UNL     1       2.213   8.272   7.080  0.00  0.00    -0.096 C 
ATOM     37  H   UNL     1       0.172   7.830   7.127  0.00  0.00    -0.082 HD
ENDBRANCH  33  35
ENDBRANCH  27  33
ENDBRANCH  21  30
ENDBRANCH  20  26
ENDBRANCH   1  20
TORSDOF 9
