REMARK  Name = ZINC08771418
REMARK  7 active torsions:
REMARK  status: ('A' for Active; 'I' for Inactive)
REMARK    1  A    between atoms: C_1  and  O_2
REMARK    2  A    between atoms: O_2  and  C_3
REMARK    3  A    between atoms: C_6  and  C_9
REMARK    4  A    between atoms: N_13  and  C_14
REMARK    5  A    between atoms: N_20  and  C_21
REMARK    6  A    between atoms: C_21  and  C_22
REMARK    7  A    between atoms: C_22  and  C_23
REMARK                            x       y       z     vdW  Elec       q    Type
REMARK                         _______ _______ _______ _____ _____    ______ ____
ROOT
ATOM      1  C   UNL     1       0.023  -6.416  -1.276  0.00  0.00    +0.058 A 
ATOM      2  C   UNL     1      -0.919  -7.379  -1.210  0.00  0.00    +0.075 A 
ATOM      3  S   UNL     1      -2.415  -6.426  -1.012  0.00  0.00    -0.057 S 
ATOM      4  C   UNL     1      -1.677  -4.800  -1.023  0.00  0.00    +0.174 A 
ATOM      5  N   UNL     1      -2.258  -3.620  -0.912  0.00  0.00    -0.224 NA
ATOM      6  N   UNL     1      -0.345  -5.102  -1.177  0.00  0.00    -0.319 N 
ENDROOT
BRANCH   1  10
ATOM      7  C   UNL     1       4.113  -7.457  -1.774  0.00  0.00    +0.120 A 
ATOM      8  C   UNL     1       3.722  -6.689  -0.686  0.00  0.00    +0.046 A 
ATOM      9  C   UNL     1       2.396  -6.349  -0.521  0.00  0.00    +0.013 A 
ATOM     10  C   UNL     1       1.447  -6.778  -1.450  0.00  0.00    -0.001 A 
ATOM     11  C   UNL     1       1.843  -7.555  -2.539  0.00  0.00    +0.013 A 
ATOM     12  C   UNL     1       3.172  -7.886  -2.700  0.00  0.00    +0.046 A 
BRANCH   7  14
ATOM     13  C   UNL     1       5.755  -8.583  -3.074  0.00  0.00    +0.277 C 
ATOM     14  O   UNL     1       5.421  -7.791  -1.933  0.00  0.00    -0.495 OA
ENDBRANCH   7  14
ENDBRANCH   1  10
BRANCH   5  15
ATOM     15  C   UNL     1      -1.501  -2.506  -0.676  0.00  0.00    +0.067 A 
ATOM     16  C   UNL     1      -1.062  -2.217   0.619  0.00  0.00    +0.028 A 
ATOM     17  C   UNL     1      -0.295  -1.094   0.848  0.00  0.00    +0.002 A 
ATOM     18  C   UNL     1       0.030  -0.248  -0.198  0.00  0.00    +0.000 A 
ATOM     19  C   UNL     1      -0.406  -0.525  -1.482  0.00  0.00    +0.002 A 
ATOM     20  C   UNL     1      -1.169  -1.647  -1.727  0.00  0.00    +0.028 A 
ENDBRANCH   5  15
BRANCH   6  21
ATOM     21  C   UNL     1       0.660  -4.038  -1.240  0.00  0.00    +0.129 C 
BRANCH  21  22
ATOM     22  C   UNL     1       0.980  -3.724  -2.703  0.00  0.00    +0.059 C 
BRANCH  22  23
ATOM     23  C   UNL     1       1.901  -2.532  -2.771  0.00  0.00    -0.021 A 
ATOM     24  C   UNL     1       1.569  -1.288  -3.151  0.00  0.00    +0.087 A 
ATOM     25  N   UNL     1       2.667  -0.473  -3.086  0.00  0.00    -0.360 N 
ATOM     26  H   UNL     1       2.675   0.470  -3.312  0.00  0.00    +0.165 HD
ATOM     27  C   UNL     1       3.759  -1.191  -2.652  0.00  0.00    +0.049 A 
ATOM     28  C   UNL     1       3.327  -2.513  -2.435  0.00  0.00    +0.003 A 
ATOM     29  C   UNL     1       4.230  -3.477  -1.986  0.00  0.00    +0.013 A 
ATOM     30  C   UNL     1       5.533  -3.133  -1.758  0.00  0.00    +0.039 A 
ATOM     31  C   UNL     1       5.966  -1.829  -1.970  0.00  0.00    +0.125 A 
ATOM     32  C   UNL     1       5.089  -0.861  -2.414  0.00  0.00    +0.064 A 
ATOM     33  F   UNL     1       7.258  -1.507  -1.739  0.00  0.00    -0.205 F 
ENDBRANCH  22  23
ENDBRANCH  21  22
ENDBRANCH   6  21
TORSDOF 6
