REMARK  Name = ZINC05394422
REMARK  11 active torsions:
REMARK  status: ('A' for Active; 'I' for Inactive)
REMARK    1  A    between atoms: C_1  and  C_2
REMARK    2  A    between atoms: C_5  and  N_9
REMARK    3  A    between atoms: C_7  and  C_8
REMARK    4  A    between atoms: N_10  and  C_11
REMARK    5  A    between atoms: C_13  and  C_32
REMARK    6  A    between atoms: C_14  and  C_31
REMARK    7  A    between atoms: C_16  and  N_17
REMARK    8  A    between atoms: N_17  and  C_18
REMARK    9  A    between atoms: C_20  and  O_30
REMARK   10  A    between atoms: C_22  and  O_29
REMARK   11  A    between atoms: C_24  and  O_28
REMARK                            x       y       z     vdW  Elec       q    Type
REMARK                         _______ _______ _______ _____ _____    ______ ____
ROOT
ATOM      1  C   UNL     1       0.081  -6.143  -1.149  0.00  0.00    +0.107 A 
ATOM      2  C   UNL     1       0.091  -6.853   0.055  0.00  0.00    +0.035 A 
ATOM      3  C   UNL     1       0.109  -8.231   0.040  0.00  0.00    -0.045 A 
ATOM      4  C   UNL     1       0.118  -8.918  -1.163  0.00  0.00    -0.046 A 
ATOM      5  C   UNL     1       0.109  -8.231  -2.361  0.00  0.00    +0.028 A 
ATOM      6  C   UNL     1       0.084  -6.843  -2.367  0.00  0.00    +0.057 A 
ATOM      7  C   UNL     1       0.139 -10.425  -1.164  0.00  0.00    +0.044 C 
ATOM      8  C   UNL     1       0.120  -8.994   1.340  0.00  0.00    +0.044 C 
ENDROOT
BRANCH   1  10
ATOM      9  N   UNL     1       0.059  -4.141  -0.021  0.00  0.00    -0.149 NA
ATOM     10  N   UNL     1       0.062  -4.779  -1.141  0.00  0.00    -0.147 NA
BRANCH   9  15
ATOM     11  C   UNL     1      -0.018   1.503   0.010  0.00  0.00    +0.044 C 
ATOM     12  C   UNL     1       0.002  -0.004   0.002  0.00  0.00    -0.047 A 
ATOM     13  C   UNL     1       0.006  -0.686  -1.202  0.00  0.00    +0.006 A 
ATOM     14  C   UNL     1       0.025  -2.065  -1.218  0.00  0.00    +0.030 A 
ATOM     15  C   UNL     1       0.041  -2.773  -0.013  0.00  0.00    +0.086 A 
ATOM     16  C   UNL     1       0.037  -2.078   1.199  0.00  0.00    +0.033 A 
ATOM     17  C   UNL     1       0.023  -0.699   1.198  0.00  0.00    -0.045 A 
ATOM     18  C   UNL     1       0.025   0.053   2.504  0.00  0.00    +0.044 C 
ENDBRANCH   9  15
ENDBRANCH   1  10
BRANCH   6  19
ATOM     19  N   UNL     1       0.068  -6.149  -3.573  0.00  0.00    -0.315 N 
ATOM     20  H   UNL     1       0.055  -5.179  -3.574  0.00  0.00    +0.149 HD
BRANCH  19  21
ATOM     21  C   UNL     1       0.072  -6.884  -4.840  0.00  0.00    +0.235 C 
ATOM     22  C   UNL     1      -0.771  -6.128  -5.871  0.00  0.00    +0.192 C 
ATOM     23  C   UNL     1      -0.713  -6.869  -7.210  0.00  0.00    +0.178 C 
ATOM     24  C   UNL     1       0.750  -7.005  -7.643  0.00  0.00    +0.171 C 
ATOM     25  C   UNL     1       1.534  -7.728  -6.544  0.00  0.00    +0.196 C 
ATOM     26  O   UNL     1       1.413  -7.002  -5.319  0.00  0.00    -0.354 OA
BRANCH  24  27
ATOM     27  O   UNL     1       0.821  -7.758  -8.855  0.00  0.00    -0.387 OA
ATOM     28  H   UNL     1       1.720  -7.884  -9.188  0.00  0.00    +0.210 HD
ENDBRANCH  24  27
BRANCH  23  29
ATOM     29  O   UNL     1      -1.293  -8.167  -7.062  0.00  0.00    -0.386 OA
ATOM     30  H   UNL     1      -1.290  -8.694  -7.873  0.00  0.00    +0.210 HD
ENDBRANCH  23  29
BRANCH  22  31
ATOM     31  O   UNL     1      -2.125  -6.057  -5.420  0.00  0.00    -0.385 OA
ATOM     32  H   UNL     1      -2.235  -5.603  -4.574  0.00  0.00    +0.210 HD
ENDBRANCH  22  31
ENDBRANCH  19  21
ENDBRANCH   6  19
TORSDOF 7
