REMARK  Name = ZINC39673770
REMARK  10 active torsions:
REMARK  status: ('A' for Active; 'I' for Inactive)
REMARK    1  A    between atoms: C_1  and  C_2
REMARK    2  A    between atoms: C_2  and  C_3
REMARK    3  A    between atoms: C_3  and  C_4
REMARK    4  A    between atoms: C_4  and  C_6
REMARK    5  A    between atoms: C_4  and  N_7
REMARK    6  A    between atoms: C_8  and  C_10
REMARK    7  A    between atoms: C_21  and  C_23
REMARK    8  A    between atoms: C_28  and  O_29
REMARK    9  A    between atoms: O_29  and  C_30
REMARK   10  A    between atoms: C_33  and  C_36
REMARK                            x       y       z     vdW  Elec       q    Type
REMARK                         _______ _______ _______ _____ _____    ______ ____
ROOT
ATOM      1  C   UNL     1      -2.786  -4.127   0.751  0.00  0.00    +0.100 C 
ATOM      2  C   UNL     1      -2.913  -4.403   2.266  0.00  0.00    +0.121 C 
ATOM      3  N   UNL     1      -3.625  -5.700   2.352  0.00  0.00    -0.296 N 
ATOM      4  C   UNL     1      -3.051  -6.510   1.251  0.00  0.00    +0.115 C 
ATOM      5  C   UNL     1      -2.876  -5.512   0.088  0.00  0.00    -0.004 C 
ATOM      6  C   UNL     1      -1.592  -5.816  -0.678  0.00  0.00    -0.010 C 
ATOM      7  C   UNL     1      -1.729  -7.172  -1.376  0.00  0.00    -0.082 C 
ATOM      8  N   UNL     1      -2.874  -7.139  -2.293  0.00  0.00    +0.379 N 
ATOM      9  C   UNL     1      -4.116  -6.939  -1.537  0.00  0.00    -0.082 C 
ATOM     10  C   UNL     1      -4.081  -5.573  -0.846  0.00  0.00    -0.010 C 
ATOM     11  C   UNL     1      -4.580  -6.061   3.232  0.00  0.00    +0.252 C 
ATOM     12  O   UNL     1      -5.005  -7.200   3.234  0.00  0.00    -0.270 OA
ATOM     13  H   UNL     1      -2.756  -6.382  -2.950  0.00  0.00    -0.086 HD
ATOM     14  H   UNL     1      -2.925  -8.012  -2.797  0.00  0.00    -0.086 HD
ENDROOT
BRANCH  11  15
ATOM     15  C   UNL     1      -5.109  -5.074   4.193  0.00  0.00    +0.099 A 
ATOM     16  C   UNL     1      -4.274  -4.090   4.735  0.00  0.00    +0.020 A 
ATOM     17  C   UNL     1      -4.819  -3.188   5.632  0.00  0.00    +0.021 A 
ATOM     18  C   UNL     1      -6.159  -3.283   5.964  0.00  0.00    +0.114 A 
ATOM     19  N   UNL     1      -6.927  -4.219   5.441  0.00  0.00    -0.220 NA
ATOM     20  C   UNL     1      -6.458  -5.102   4.575  0.00  0.00    +0.233 A 
BRANCH  20  21
ATOM     21  O   UNL     1      -7.285  -6.042   4.059  0.00  0.00    -0.437 OA
BRANCH  21  22
ATOM     22  C   UNL     1      -8.560  -6.097   4.527  0.00  0.00    +0.130 A 
ATOM     23  C   UNL     1      -8.919  -7.066   5.453  0.00  0.00    +0.046 A 
ATOM     24  C   UNL     1     -10.215  -7.119   5.927  0.00  0.00    +0.007 A 
ATOM     25  C   UNL     1     -11.155  -6.209   5.479  0.00  0.00    -0.050 A 
ATOM     26  C   UNL     1     -10.799  -5.243   4.556  0.00  0.00    +0.007 A 
ATOM     27  C   UNL     1      -9.503  -5.182   4.083  0.00  0.00    +0.046 A 
ATOM     28  C   UNL     1     -12.568  -6.269   5.998  0.00  0.00    +0.044 C 
ENDBRANCH  21  22
ENDBRANCH  20  21
ENDBRANCH  11  15
BRANCH   1  30
ATOM     29  N   UNL     1      -1.336  -2.662  -0.617  0.00  0.00    -0.312 N 
ATOM     30  C   UNL     1      -1.458  -3.484   0.444  0.00  0.00    +0.218 C 
ATOM     31  O   UNL     1      -0.498  -3.707   1.152  0.00  0.00    -0.275 OA
ATOM     32  H   UNL     1      -2.103  -2.484  -1.183  0.00  0.00    +0.149 HD
BRANCH  29  33
ATOM     33  C   UNL     1      -0.045  -2.037  -0.915  0.00  0.00    +0.070 C 
ATOM     34  C   UNL     1       0.104  -0.757  -0.091  0.00  0.00    +0.028 C 
BRANCH  33  35
ATOM     35  C   UNL     1       0.025  -1.696  -2.405  0.00  0.00    +0.022 C 
BRANCH  35  37
ATOM     36  C   UNL     1       0.070  -2.646  -4.715  0.00  0.00    +0.004 C 
ATOM     37  C   UNL     1       0.001  -2.987  -3.225  0.00  0.00    -0.002 C 
ENDBRANCH  35  37
ENDBRANCH  33  35
ENDBRANCH  29  33
ENDBRANCH   1  30
TORSDOF 7
