REMARK  Name = ZINC36163732
REMARK  5 active torsions:
REMARK  status: ('A' for Active; 'I' for Inactive)
REMARK    1  A    between atoms: C_1  and  C_2
REMARK    2  A    between atoms: C_2  and  N_3
REMARK    3  A    between atoms: C_13  and  C_29
REMARK    4  A    between atoms: N_17  and  C_20
REMARK    5  A    between atoms: C_20  and  C_21
REMARK                            x       y       z     vdW  Elec       q    Type
REMARK                         _______ _______ _______ _____ _____    ______ ____
ROOT
ATOM      1  N   UNL     1      -1.372  -0.511   0.012  0.00  0.00    -0.299 N 
ATOM      2  C   UNL     1      -1.601  -1.839   0.007  0.00  0.00    +0.304 C 
ATOM      3  O   UNL     1      -0.666  -2.617  -0.006  0.00  0.00    -0.253 OA
ATOM      4  N   UNL     1      -2.865  -2.306   0.017  0.00  0.00    -0.258 N 
ATOM      5  C   UNL     1      -4.025  -1.413   0.027  0.00  0.00    +0.122 C 
ATOM      6  C   UNL     1      -5.220  -2.063   0.786  0.00  0.00    +0.091 C 
ATOM      7  S   UNL     1      -4.989  -3.808   0.214  0.00  0.00    -0.120 S 
ATOM      8  C   UNL     1      -3.166  -3.736   0.012  0.00  0.00    +0.189 C 
ATOM      9  C   UNL     1      -2.742  -4.420  -1.252  0.00  0.00    +0.017 A 
ATOM     10  C   UNL     1      -3.018  -4.215  -2.586  0.00  0.00    +0.012 A 
ATOM     11  C   UNL     1      -2.458  -5.040  -3.544  0.00  0.00    -0.050 A 
ATOM     12  C   UNL     1      -1.619  -6.071  -3.160  0.00  0.00    +0.005 A 
ATOM     13  C   UNL     1      -1.338  -6.279  -1.826  0.00  0.00    +0.024 A 
ATOM     14  C   UNL     1      -1.898  -5.454  -0.854  0.00  0.00    +0.043 A 
ATOM     15  N   UNL     1      -1.766  -5.462   0.537  0.00  0.00    -0.264 N 
ATOM     16  C   UNL     1      -2.482  -4.480   1.121  0.00  0.00    +0.259 C 
ATOM     17  O   UNL     1      -2.558  -4.245   2.308  0.00  0.00    -0.272 OA
ATOM     18  C   UNL     1      -2.761  -4.817  -5.003  0.00  0.00    +0.044 C 
ATOM     19  H   UNL     1      -2.118   0.109   0.023  0.00  0.00    +0.150 HD
ENDROOT
BRANCH   1  21
ATOM     20  C   UNL     1      -0.019   1.526   0.010  0.00  0.00    +0.024 C 
ATOM     21  C   UNL     1       0.002  -0.004   0.002  0.00  0.00    +0.102 C 
ENDBRANCH   1  21
BRANCH  15  22
ATOM     22  C   UNL     1      -0.946  -6.426   1.275  0.00  0.00    +0.151 C 
BRANCH  22  23
ATOM     23  C   UNL     1       0.452  -5.882   1.428  0.00  0.00    +0.006 A 
ATOM     24  C   UNL     1       1.457  -6.313   0.583  0.00  0.00    +0.011 A 
ATOM     25  C   UNL     1       2.739  -5.816   0.721  0.00  0.00    +0.039 A 
ATOM     26  C   UNL     1       3.017  -4.885   1.708  0.00  0.00    +0.126 A 
ATOM     27  C   UNL     1       2.012  -4.452   2.555  0.00  0.00    +0.077 A 
ATOM     28  C   UNL     1       0.727  -4.947   2.411  0.00  0.00    +0.131 A 
ATOM     29  F   UNL     1      -0.257  -4.522   3.233  0.00  0.00    -0.205 F 
ATOM     30  F   UNL     1       4.271  -4.399   1.844  0.00  0.00    -0.205 F 
ENDBRANCH  22  23
ENDBRANCH  15  22
TORSDOF 3
