REMARK  Name = ZINC38905923
REMARK  13 active torsions:
REMARK  status: ('A' for Active; 'I' for Inactive)
REMARK    1  A    between atoms: C_1  and  C_2
REMARK    2  A    between atoms: C_5  and  N_9
REMARK    3  A    between atoms: C_6  and  C_8
REMARK    4  A    between atoms: N_9  and  C_10
REMARK    5  A    between atoms: C_10  and  C_11
REMARK    6  A    between atoms: C_16  and  C_23
REMARK    7  A    between atoms: C_24  and  C_26
REMARK    8  A    between atoms: C_28  and  O_36
REMARK    9  A    between atoms: C_29  and  O_34
REMARK   10  A    between atoms: C_30  and  O_32
REMARK   11  A    between atoms: O_32  and  C_33
REMARK   12  A    between atoms: O_34  and  C_35
REMARK   13  A    between atoms: O_36  and  C_37
REMARK                            x       y       z     vdW  Elec       q    Type
REMARK                         _______ _______ _______ _____ _____    ______ ____
ROOT
ATOM      1  N   UNL     1      -0.384  -3.920  -0.055  0.00  0.00    -0.266 N 
ATOM      2  C   UNL     1      -1.577  -4.504   0.168  0.00  0.00    +0.251 C 
ATOM      3  O   UNL     1      -1.649  -5.711   0.295  0.00  0.00    -0.270 OA
ENDROOT
BRANCH   1   8
ATOM      4  C   UNL     1      -0.081   1.681  -0.901  0.00  0.00    +0.044 C 
ATOM      5  C   UNL     1      -0.162   0.193  -0.676  0.00  0.00    -0.050 A 
ATOM      6  C   UNL     1       0.204  -0.341   0.546  0.00  0.00    +0.005 A 
ATOM      7  C   UNL     1       0.132  -1.704   0.755  0.00  0.00    +0.024 A 
ATOM      8  C   UNL     1      -0.310  -2.539  -0.264  0.00  0.00    +0.040 A 
ATOM      9  C   UNL     1      -0.677  -1.999  -1.489  0.00  0.00    -0.029 A 
ATOM     10  C   UNL     1      -0.607  -0.634  -1.690  0.00  0.00    +0.008 A 
ATOM     11  C   UNL     1      -1.156  -2.901  -2.598  0.00  0.00    +0.045 C 
ENDBRANCH   1   8
BRANCH   2  12
ATOM     12  C   UNL     1      -2.798  -3.679   0.258  0.00  0.00    +0.044 A 
ATOM     13  C   UNL     1      -3.986  -4.121  -0.329  0.00  0.00    +0.062 A 
ATOM     14  C   UNL     1      -5.128  -3.346  -0.243  0.00  0.00    +0.166 A 
ATOM     15  C   UNL     1      -5.094  -2.127   0.428  0.00  0.00    +0.204 A 
ATOM     16  C   UNL     1      -3.911  -1.684   1.014  0.00  0.00    +0.166 A 
ATOM     17  C   UNL     1      -2.768  -2.458   0.935  0.00  0.00    +0.062 A 
BRANCH  16  18
ATOM     18  O   UNL     1      -3.881  -0.492   1.668  0.00  0.00    -0.491 OA
ATOM     19  C   UNL     1      -2.634  -0.100   2.245  0.00  0.00    +0.277 C 
ENDBRANCH  16  18
BRANCH  15  20
ATOM     20  O   UNL     1      -6.218  -1.367   0.511  0.00  0.00    -0.488 OA
ATOM     21  C   UNL     1      -7.072  -1.591   1.634  0.00  0.00    +0.277 C 
ENDBRANCH  15  20
BRANCH  14  22
ATOM     22  O   UNL     1      -6.285  -3.776  -0.814  0.00  0.00    -0.491 OA
ATOM     23  C   UNL     1      -6.278  -5.084  -1.389  0.00  0.00    +0.277 C 
ENDBRANCH  14  22
ENDBRANCH   2  12
BRANCH   1  24
ATOM     24  C   UNL     1       0.836  -4.731  -0.080  0.00  0.00    +0.131 C 
BRANCH  24  25
ATOM     25  C   UNL     1       1.484  -4.719   1.306  0.00  0.00    +0.116 C 
ATOM     26  C   UNL     1       2.896  -5.254   1.164  0.00  0.00    -0.003 C 
ATOM     27  C   UNL     1       3.226  -6.350   1.905  0.00  0.00    -0.007 A 
ATOM     28  C   UNL     1       4.566  -6.932   1.829  0.00  0.00    +0.012 A 
ATOM     29  C   UNL     1       4.850  -8.024   2.584  0.00  0.00    -0.050 A 
ATOM     30  C   UNL     1       3.894  -8.594   3.426  0.00  0.00    +0.005 A 
ATOM     31  C   UNL     1       2.633  -8.101   3.541  0.00  0.00    +0.024 A 
ATOM     32  C   UNL     1       2.236  -6.973   2.801  0.00  0.00    +0.040 A 
ATOM     33  N   UNL     1       0.997  -6.498   2.924  0.00  0.00    -0.284 N 
ATOM     34  C   UNL     1       0.559  -5.444   2.257  0.00  0.00    +0.226 C 
ATOM     35  O   UNL     1      -0.585  -5.057   2.410  0.00  0.00    -0.275 OA
ATOM     36  C   UNL     1       6.227  -8.632   2.514  0.00  0.00    +0.044 C 
ATOM     37  H   UNL     1       0.387  -6.948   3.529  0.00  0.00    +0.155 HD
ENDBRANCH  24  25
ENDBRANCH   1  24
TORSDOF 7
