REMARK  Name = ZINC40485932
REMARK  6 active torsions:
REMARK  status: ('A' for Active; 'I' for Inactive)
REMARK    1  A    between atoms: C_1  and  C_2
REMARK    2  A    between atoms: C_5  and  C_8
REMARK    3  A    between atoms: C_9  and  O_29
REMARK    4  A    between atoms: N_12  and  C_22
REMARK    5  A    between atoms: C_13  and  C_15
REMARK    6  A    between atoms: C_22  and  C_23
REMARK                            x       y       z     vdW  Elec       q    Type
REMARK                         _______ _______ _______ _____ _____    ______ ____
ROOT
ATOM      1  C   UNL     1       0.058  -4.245  -0.021  0.00  0.00    +0.031 C 
ATOM      2  C   UNL     1       1.051  -5.037  -0.483  0.00  0.00    +0.185 C 
ATOM      3  C   UNL     1       0.676  -6.442  -0.308  0.00  0.00    +0.282 C 
ATOM      4  O   UNL     1       1.366  -7.392  -0.628  0.00  0.00    -0.267 OA
ATOM      5  N   UNL     1      -0.540  -6.530   0.260  0.00  0.00    -0.279 N 
ATOM      6  C   UNL     1      -1.026  -5.164   0.492  0.00  0.00    +0.142 C 
ENDROOT
BRANCH   1  11
ATOM      7  C   UNL     1      -0.018   1.503   0.010  0.00  0.00    +0.044 C 
ATOM      8  C   UNL     1       0.002  -0.004   0.002  0.00  0.00    -0.050 A 
ATOM      9  C   UNL     1       0.006  -0.686  -1.202  0.00  0.00    +0.004 A 
ATOM     10  C   UNL     1       0.024  -2.064  -1.218  0.00  0.00    +0.008 A 
ATOM     11  C   UNL     1       0.039  -2.774  -0.013  0.00  0.00    -0.016 A 
ATOM     12  C   UNL     1       0.036  -2.078   1.200  0.00  0.00    +0.008 A 
ATOM     13  C   UNL     1       0.023  -0.699   1.199  0.00  0.00    +0.004 A 
ENDBRANCH   1  11
BRANCH   6  14
ATOM     14  C   UNL     1      -2.306  -4.935  -0.271  0.00  0.00    -0.022 A 
ATOM     15  C   UNL     1      -2.467  -5.481  -1.531  0.00  0.00    +0.007 A 
ATOM     16  C   UNL     1      -3.640  -5.271  -2.231  0.00  0.00    +0.015 A 
ATOM     17  C   UNL     1      -4.653  -4.514  -1.671  0.00  0.00    +0.018 A 
ATOM     18  C   UNL     1      -4.491  -3.967  -0.410  0.00  0.00    +0.015 A 
ATOM     19  C   UNL     1      -3.320  -4.182   0.291  0.00  0.00    +0.007 A 
ATOM     20 BR   UNL     1      -6.258  -4.226  -2.628  0.00  0.00    -0.050 Br
ENDBRANCH   6  14
BRANCH   2  21
ATOM     21  O   UNL     1       2.216  -4.597  -1.028  0.00  0.00    -0.502 OA
ATOM     22  H   UNL     1       2.813  -5.305  -1.305  0.00  0.00    +0.292 HD
ENDBRANCH   2  21
BRANCH   5  23
ATOM     23  C   UNL     1      -1.251  -7.768   0.591  0.00  0.00    +0.144 C 
BRANCH  23  24
ATOM     24  C   UNL     1      -0.895  -8.192   1.993  0.00  0.00    -0.027 A 
ATOM     25  C   UNL     1       0.189  -9.024   2.229  0.00  0.00    +0.025 A 
ATOM     26  C   UNL     1       0.485  -9.392   3.528  0.00  0.00    +0.111 A 
ATOM     27  N   UNL     1      -0.249  -8.961   4.535  0.00  0.00    -0.263 NA
ATOM     28  C   UNL     1      -1.286  -8.168   4.348  0.00  0.00    +0.111 A 
ATOM     29  C   UNL     1      -1.639  -7.754   3.078  0.00  0.00    +0.025 A 
ENDBRANCH  23  24
ENDBRANCH   5  23
TORSDOF 5
