REMARK  Name = ZINC16675756
REMARK  6 active torsions:
REMARK  status: ('A' for Active; 'I' for Inactive)
REMARK    1  A    between atoms: C_1  and  C_2
REMARK    2  A    between atoms: C_2  and  C_23
REMARK    3  A    between atoms: N_3  and  N_4
REMARK    4  A    between atoms: C_5  and  S_7
REMARK    5  A    between atoms: S_7  and  C_8
REMARK    6  A    between atoms: N_13  and  C_16
REMARK                            x       y       z     vdW  Elec       q    Type
REMARK                         _______ _______ _______ _____ _____    ______ ____
ROOT
ATOM      1  N   UNL     1      -0.326   0.906   2.602  0.00  0.00    -0.217 N 
ATOM      2  C   UNL     1      -0.244  -0.001   3.635  0.00  0.00    +0.146 C 
ATOM      3  N   UNL     1      -0.301  -1.280   3.386  0.00  0.00    -0.380 N 
ATOM      4  H   UNL     1      -0.283   1.857   2.788  0.00  0.00    +0.176 HD
ATOM      5  H   UNL     1      -0.243  -1.919   4.114  0.00  0.00    +0.158 HD
ATOM      6  H   UNL     1      -0.401  -1.593   2.473  0.00  0.00    +0.158 HD
ENDROOT
BRANCH   1   9
ATOM      7  C   UNL     1      -0.482   2.787   0.598  0.00  0.00    +0.068 C 
ATOM      8  C   UNL     1      -0.548   1.310   0.310  0.00  0.00    +0.063 C 
ATOM      9  N   UNL     1      -0.470   0.455   1.284  0.00  0.00    -0.185 NA
BRANCH   8  10
ATOM     10  C   UNL     1      -0.700   0.835  -1.077  0.00  0.00    -0.002 A 
ATOM     11  C   UNL     1      -0.778   1.752  -2.128  0.00  0.00    +0.011 A 
ATOM     12  C   UNL     1      -0.919   1.301  -3.424  0.00  0.00    +0.020 A 
ATOM     13  C   UNL     1      -0.985  -0.058  -3.684  0.00  0.00    +0.041 A 
ATOM     14  C   UNL     1      -0.908  -0.972  -2.647  0.00  0.00    +0.020 A 
ATOM     15  C   UNL     1      -0.761  -0.535  -1.347  0.00  0.00    +0.011 A 
ATOM     16 CL   UNL     1      -1.164  -0.617  -5.318  0.00  0.00    -0.084 Cl
ENDBRANCH   8  10
ENDBRANCH   1   9
BRANCH   2  17
ATOM     17  S   UNL     1      -0.062   0.567   5.293  0.00  0.00    -0.078 S 
BRANCH  17  18
ATOM     18  C   UNL     1      -0.000  -0.958   6.275  0.00  0.00    +0.149 C 
ATOM     19  C   UNL     1       0.231  -0.635   7.765  0.00  0.00    +0.120 C 
ATOM     20  C   UNL     1      -1.008  -1.180   8.442  0.00  0.00    +0.228 C 
ATOM     21  O   UNL     1      -1.236  -1.134   9.632  0.00  0.00    -0.275 OA
ATOM     22  N   UNL     1      -1.813  -1.720   7.519  0.00  0.00    -0.209 N 
ATOM     23  C   UNL     1      -1.344  -1.653   6.263  0.00  0.00    +0.240 C 
ATOM     24  O   UNL     1      -1.906  -2.079   5.277  0.00  0.00    -0.274 OA
BRANCH  22  25
ATOM     25  C   UNL     1      -3.044  -2.311   7.838  0.00  0.00    +0.044 A 
ATOM     26  C   UNL     1      -3.219  -3.679   7.686  0.00  0.00    +0.025 A 
ATOM     27  C   UNL     1      -4.433  -4.258   8.001  0.00  0.00    +0.022 A 
ATOM     28  C   UNL     1      -5.474  -3.475   8.467  0.00  0.00    +0.041 A 
ATOM     29  C   UNL     1      -5.303  -2.111   8.618  0.00  0.00    +0.022 A 
ATOM     30  C   UNL     1      -4.089  -1.528   8.311  0.00  0.00    +0.025 A 
ATOM     31 CL   UNL     1      -6.999  -4.206   8.861  0.00  0.00    -0.084 Cl
ENDBRANCH  22  25
ENDBRANCH  17  18
ENDBRANCH   2  17
TORSDOF 5
