REMARK  Name = ZINC52919160
REMARK  6 active torsions:
REMARK  status: ('A' for Active; 'I' for Inactive)
REMARK    1  A    between atoms: C_4  and  N_19
REMARK    2  A    between atoms: C_5  and  C_7
REMARK    3  A    between atoms: C_7  and  C_8
REMARK    4  A    between atoms: C_8  and  S_9
REMARK    5  A    between atoms: S_9  and  C_10
REMARK    6  A    between atoms: C_16  and  N_18
REMARK                            x       y       z     vdW  Elec       q    Type
REMARK                         _______ _______ _______ _____ _____    ______ ____
ROOT
ATOM      1  S   UNL     1       1.396  -4.517   1.401  0.00  0.00    -0.087 S 
ENDROOT
BRANCH   1   2
ATOM      2  C   UNL     1       1.567  -4.951   3.100  0.00  0.00    +0.171 A 
ATOM      3  N   UNL     1       1.624  -6.266   3.450  0.00  0.00    -0.302 N 
ATOM      4  H   UNL     1       1.571  -6.952   2.766  0.00  0.00    +0.171 HD
ATOM      5  C   UNL     1       1.755  -6.617   4.747  0.00  0.00    +0.254 A 
ATOM      6  O   UNL     1       1.808  -7.793   5.069  0.00  0.00    -0.268 OA
ATOM      7  C   UNL     1       1.830  -5.610   5.714  0.00  0.00    +0.113 A 
ATOM      8  C   UNL     1       1.767  -4.285   5.305  0.00  0.00    +0.124 A 
ATOM      9  N   UNL     1       1.642  -3.997   4.005  0.00  0.00    -0.209 NA
BRANCH   8  10
ATOM     10  N   UNL     1       1.838  -3.269   6.236  0.00  0.00    -0.343 N 
ATOM     11  H   UNL     1       1.932  -3.480   7.178  0.00  0.00    +0.144 HD
ATOM     12  H   UNL     1       1.793  -2.343   5.949  0.00  0.00    +0.144 HD
ENDBRANCH   8  10
ENDBRANCH   1   2
BRANCH   1  13
ATOM     13  C   UNL     1       1.372  -2.703   1.411  0.00  0.00    +0.082 C 
BRANCH  13  14
ATOM     14  C   UNL     1       1.226  -2.187  -0.022  0.00  0.00    +0.048 C 
BRANCH  14  19
ATOM     15  C   UNL     1      -0.017   1.378   0.010  0.00  0.00    +0.000 A 
ATOM     16  C   UNL     1       1.170   2.089   0.002  0.00  0.00    +0.002 A 
ATOM     17  C   UNL     1       2.377   1.420  -0.013  0.00  0.00    +0.023 A 
ATOM     18  C   UNL     1       2.400   0.031  -0.021  0.00  0.00    +0.028 A 
ATOM     19  C   UNL     1       1.207  -0.680  -0.013  0.00  0.00    -0.026 A 
ATOM     20  C   UNL     1       0.002  -0.004   0.002  0.00  0.00    +0.005 A 
BRANCH  18  21
ATOM     21  N   UNL     1       3.620  -0.649  -0.036  0.00  0.00    -0.358 N 
ATOM     22  H   UNL     1       4.452  -0.152  -0.042  0.00  0.00    +0.142 HD
ATOM     23  H   UNL     1       3.634  -1.619  -0.042  0.00  0.00    +0.142 HD
ENDBRANCH  18  21
ENDBRANCH  14  19
ENDBRANCH  13  14
ENDBRANCH   1  13
TORSDOF 6
