REMARK  Name = ZINC59297078
REMARK  10 active torsions:
REMARK  status: ('A' for Active; 'I' for Inactive)
REMARK    1  A    between atoms: C_1  and  C_2
REMARK    2  A    between atoms: C_2  and  O_3
REMARK    3  A    between atoms: O_3  and  C_4
REMARK    4  A    between atoms: C_7  and  N_10
REMARK    5  A    between atoms: C_11  and  C_13
REMARK    6  A    between atoms: C_13  and  C_30
REMARK    7  A    between atoms: C_14  and  C_15
REMARK    8  A    between atoms: C_18  and  O_21
REMARK    9  A    between atoms: O_21  and  C_22
REMARK   10  A    between atoms: C_22  and  C_23
REMARK                            x       y       z     vdW  Elec       q    Type
REMARK                         _______ _______ _______ _____ _____    ______ ____
ROOT
ATOM      1  C   UNL     1       2.027  -7.928   2.891  0.00  0.00    +0.114 C 
ATOM      2  C   UNL     1       2.802  -8.444   3.907  0.00  0.00    +0.032 C 
ENDROOT
BRANCH   2   3
ATOM      3  C   UNL     1       3.103  -9.877   3.943  0.00  0.00    -0.023 A 
ATOM      4  C   UNL     1       3.136 -10.620   2.754  0.00  0.00    +0.011 A 
ATOM      5  C   UNL     1       3.417 -11.956   2.795  0.00  0.00    +0.046 A 
ATOM      6  C   UNL     1       3.670 -12.580   4.012  0.00  0.00    +0.121 A 
ATOM      7  C   UNL     1       3.638 -11.848   5.195  0.00  0.00    +0.046 A 
ATOM      8  C   UNL     1       3.364 -10.510   5.167  0.00  0.00    +0.011 A 
BRANCH   6   9
ATOM      9  O   UNL     1       3.947 -13.907   4.046  0.00  0.00    -0.487 OA
BRANCH   9  10
ATOM     10  C   UNL     1       4.197 -14.486   5.329  0.00  0.00    +0.264 C 
BRANCH  10  11
ATOM     11  C   UNL     1       4.485 -15.956   5.170  0.00  0.00    -0.010 A 
ATOM     12  C   UNL     1       3.449 -16.871   5.209  0.00  0.00    +0.008 A 
ATOM     13  C   UNL     1       3.713 -18.220   5.063  0.00  0.00    +0.015 A 
ATOM     14  C   UNL     1       5.013 -18.654   4.877  0.00  0.00    +0.018 A 
ATOM     15  C   UNL     1       6.048 -17.739   4.837  0.00  0.00    +0.015 A 
ATOM     16  C   UNL     1       5.784 -16.389   4.979  0.00  0.00    +0.008 A 
ATOM     17 BR   UNL     1       5.374 -20.500   4.677  0.00  0.00    -0.050 Br
ENDBRANCH  10  11
ENDBRANCH   9  10
ENDBRANCH   6   9
ENDBRANCH   2   3
BRANCH   1  19
ATOM     18  N   UNL     1       1.116  -5.968   1.756  0.00  0.00    -0.281 N 
ATOM     19  C   UNL     1       1.874  -6.472   2.749  0.00  0.00    +0.259 C 
ATOM     20  O   UNL     1       2.433  -5.723   3.528  0.00  0.00    -0.269 OA
ATOM     21  H   UNL     1       0.610  -6.564   1.181  0.00  0.00    +0.155 HD
BRANCH  18  25
ATOM     22  C   UNL     1       0.946  -1.847   1.150  0.00  0.00    +0.121 A 
ATOM     23  C   UNL     1      -0.122  -2.648   0.772  0.00  0.00    +0.047 A 
ATOM     24  C   UNL     1      -0.066  -4.013   0.972  0.00  0.00    +0.027 A 
ATOM     25  C   UNL     1       1.059  -4.584   1.552  0.00  0.00    +0.034 A 
ATOM     26  C   UNL     1       2.127  -3.781   1.931  0.00  0.00    +0.027 A 
ATOM     27  C   UNL     1       2.072  -2.417   1.725  0.00  0.00    +0.047 A 
BRANCH  22  28
ATOM     28  O   UNL     1       0.890  -0.502   0.953  0.00  0.00    -0.492 OA
BRANCH  28  30
ATOM     29  C   UNL     1      -0.179   1.536   0.216  0.00  0.00    +0.048 C 
ATOM     30  C   UNL     1      -0.300   0.017   0.357  0.00  0.00    +0.225 C 
ENDBRANCH  28  30
ENDBRANCH  22  28
ENDBRANCH  18  25
ENDBRANCH   1  19
BRANCH   1  31
ATOM     31  C   UNL     1       1.369  -8.810   1.974  0.00  0.00    +0.104 C 
ATOM     32  N   UNL     1       0.848  -9.510   1.246  0.00  0.00    -0.191 NA
ENDBRANCH   1  31
TORSDOF 9
