REMARK  Name = ZINC07735429
REMARK  8 active torsions:
REMARK  status: ('A' for Active; 'I' for Inactive)
REMARK    1  A    between atoms: C_1  and  C_2
REMARK    2  A    between atoms: C_3  and  C_29
REMARK    3  A    between atoms: C_9  and  C_12
REMARK    4  A    between atoms: C_12  and  O_14
REMARK    5  A    between atoms: O_14  and  C_15
REMARK    6  A    between atoms: C_15  and  C_17
REMARK    7  A    between atoms: C_15  and  C_18
REMARK    8  A    between atoms: N_20  and  C_21
REMARK                            x       y       z     vdW  Elec       q    Type
REMARK                         _______ _______ _______ _____ _____    ______ ____
ROOT
ATOM      1  O   UNL     1      -3.439  -2.490  -0.188  0.00  0.00    -0.449 OA
ENDROOT
BRANCH   1   2
ATOM      2  C   UNL     1      -4.391  -3.290   0.331  0.00  0.00    +0.340 C 
ATOM      3  O   UNL     1      -5.421  -2.808   0.760  0.00  0.00    -0.245 OA
BRANCH   2  12
ATOM      4  C   UNL     1      -7.120  -8.027   2.059  0.00  0.00    +0.046 C 
ATOM      5  C   UNL     1      -5.752  -8.088   1.430  0.00  0.00    -0.022 A 
ATOM      6  C   UNL     1      -5.026  -9.193   1.203  0.00  0.00    +0.017 A 
ATOM      7  N   UNL     1      -3.834  -8.858   0.618  0.00  0.00    -0.358 N 
ATOM      8  H   UNL     1      -3.144  -9.489   0.360  0.00  0.00    +0.166 HD
ATOM      9  C   UNL     1      -3.760  -7.497   0.450  0.00  0.00    +0.047 A 
ATOM     10  C   UNL     1      -4.959  -6.951   0.952  0.00  0.00    +0.004 A 
ATOM     11  C   UNL     1      -5.168  -5.575   0.914  0.00  0.00    +0.025 A 
ATOM     12  C   UNL     1      -4.183  -4.750   0.378  0.00  0.00    +0.060 A 
ATOM     13  C   UNL     1      -2.997  -5.305  -0.123  0.00  0.00    +0.017 A 
ATOM     14  C   UNL     1      -2.789  -6.652  -0.083  0.00  0.00    +0.027 A 
ATOM     15  C   UNL     1      -5.458 -10.597   1.540  0.00  0.00    +0.063 C 
ENDBRANCH   2  12
ENDBRANCH   1   2
BRANCH   1  16
ATOM     16  C   UNL     1      -3.711  -1.064  -0.202  0.00  0.00    +0.259 C 
ATOM     17  C   UNL     1      -4.410  -0.691  -1.510  0.00  0.00    +0.062 C 
BRANCH  16  18
ATOM     18  C   UNL     1      -2.414  -0.304  -0.090  0.00  0.00    +0.258 C 
ATOM     19  O   UNL     1      -1.359  -0.901  -0.099  0.00  0.00    -0.271 OA
ATOM     20  N   UNL     1      -2.428   1.039   0.019  0.00  0.00    -0.281 N 
ATOM     21  H   UNL     1      -3.272   1.510   0.107  0.00  0.00    +0.155 HD
BRANCH  20  22
ATOM     22  C   UNL     1      -1.225   1.755   0.006  0.00  0.00    +0.052 A 
ATOM     23  C   UNL     1      -0.102   1.218  -0.610  0.00  0.00    +0.026 A 
ATOM     24  C   UNL     1       1.082   1.928  -0.626  0.00  0.00    +0.022 A 
ATOM     25  C   UNL     1       1.153   3.172  -0.025  0.00  0.00    +0.042 A 
ATOM     26  C   UNL     1       0.038   3.708   0.596  0.00  0.00    +0.041 A 
ATOM     27  C   UNL     1      -1.149   3.002   0.616  0.00  0.00    +0.064 A 
ATOM     28 CL   UNL     1      -2.548   3.674   1.394  0.00  0.00    -0.082 Cl
ATOM     29 CL   UNL     1       2.643   4.062  -0.048  0.00  0.00    -0.083 Cl
ENDBRANCH  20  22
ENDBRANCH  16  18
ENDBRANCH   1  16
TORSDOF 5
