REMARK  Name = ZINC10216066
REMARK  9 active torsions:
REMARK  status: ('A' for Active; 'I' for Inactive)
REMARK    1  A    between atoms: C_1  and  C_2
REMARK    2  A    between atoms: C_4  and  C_33
REMARK    3  A    between atoms: C_6  and  N_8
REMARK    4  A    between atoms: C_9  and  C_11
REMARK    5  A    between atoms: C_11  and  C_13
REMARK    6  A    between atoms: C_11  and  N_62
REMARK    7  A    between atoms: C_21  and  N_24
REMARK    8  A    between atoms: N_24  and  S_25
REMARK    9  A    between atoms: S_25  and  C_28
REMARK                            x       y       z     vdW  Elec       q    Type
REMARK                         _______ _______ _______ _____ _____    ______ ____
ROOT
ATOM      1  C   UNL     1      -0.082   6.543   6.093  0.00  0.00    +0.050 C 
ENDROOT
BRANCH   1   7
ATOM      2  C   UNL     1      -2.438   6.056   5.826  0.00  0.00    -0.076 C 
ATOM      3  C   UNL     1      -3.631   6.210   4.880  0.00  0.00    +0.002 C 
ATOM      4  C   UNL     1      -3.966   7.697   4.728  0.00  0.00    +0.073 C 
ATOM      5  C   UNL     1      -2.733   8.441   4.207  0.00  0.00    +0.002 C 
ATOM      6  C   UNL     1      -1.566   8.220   5.172  0.00  0.00    -0.076 C 
ATOM      7  N   UNL     1      -1.278   6.772   5.256  0.00  0.00    +0.390 N 
ATOM      8  H   UNL     1      -1.097   6.413   4.311  0.00  0.00    -0.080 HD
BRANCH   4   9
ATOM      9  N   UNL     1      -5.070   7.855   3.778  0.00  0.00    -0.187 NA
ATOM     10  H   UNL     1      -5.145   7.258   3.017  0.00  0.00    +0.148 HD
BRANCH   9  11
ATOM     11  S   UNL     1      -6.191   9.053   4.003  0.00  0.00    +0.065 S 
ATOM     12  O   UNL     1      -6.610   8.968   5.359  0.00  0.00    -0.153 OA
ATOM     13  O   UNL     1      -7.104   8.965   2.917  0.00  0.00    -0.153 OA
BRANCH  11  14
ATOM     14  C   UNL     1      -5.351  10.592   3.831  0.00  0.00    +0.142 A 
ATOM     15  C   UNL     1      -5.158  11.339   2.717  0.00  0.00    +0.036 A 
ATOM     16  C   UNL     1      -4.457  12.526   2.818  0.00  0.00    +0.010 A 
ATOM     17  C   UNL     1      -3.992  12.913   4.032  0.00  0.00    +0.047 A 
ATOM     18  S   UNL     1      -4.540  11.576   5.080  0.00  0.00    -0.077 S 
ENDBRANCH  11  14
ENDBRANCH   9  11
ENDBRANCH   4   9
ENDBRANCH   1   7
BRANCH   1  19
ATOM     19  C   UNL     1       0.193   5.063   6.158  0.00  0.00    -0.052 A 
ATOM     20  C   UNL     1       0.095   4.291   5.016  0.00  0.00    +0.002 A 
ATOM     21  C   UNL     1       0.351   2.934   5.074  0.00  0.00    +0.000 A 
ATOM     22  C   UNL     1       0.697   2.347   6.277  0.00  0.00    +0.000 A 
ATOM     23  C   UNL     1       0.790   3.118   7.421  0.00  0.00    +0.000 A 
ATOM     24  C   UNL     1       0.537   4.476   7.361  0.00  0.00    +0.002 A 
ENDBRANCH   1  19
BRANCH   1  26
ATOM     25  N   UNL     1       2.125   7.652   6.235  0.00  0.00    -0.287 N 
ATOM     26  C   UNL     1       1.095   7.246   5.466  0.00  0.00    +0.208 C 
ATOM     27  O   UNL     1       1.115   7.446   4.270  0.00  0.00    -0.277 OA
ATOM     28  H   UNL     1       2.081   7.548   7.198  0.00  0.00    +0.155 HD
BRANCH  25  34
ATOM     29  C   UNL     1       5.867  10.833   6.455  0.00  0.00    +0.044 C 
ATOM     30  C   UNL     1       5.089   9.767   5.727  0.00  0.00    -0.048 A 
ATOM     31  C   UNL     1       5.495   9.351   4.472  0.00  0.00    +0.006 A 
ATOM     32  C   UNL     1       4.785   8.373   3.801  0.00  0.00    -0.048 A 
ATOM     33  C   UNL     1       3.667   7.807   4.383  0.00  0.00    +0.026 A 
ATOM     34  C   UNL     1       3.257   8.223   5.643  0.00  0.00    +0.034 A 
ATOM     35  C   UNL     1       3.969   9.210   6.311  0.00  0.00    +0.026 A 
ATOM     36  C   UNL     1       5.232   7.923   2.434  0.00  0.00    +0.044 C 
ENDBRANCH  25  34
ENDBRANCH   1  26
TORSDOF 7
