REMARK  Name = ZINC19691349
REMARK  10 active torsions:
REMARK  status: ('A' for Active; 'I' for Inactive)
REMARK    1  A    between atoms: C_1  and  C_2
REMARK    2  A    between atoms: C_2  and  C_3
REMARK    3  A    between atoms: C_2  and  C_4
REMARK    4  A    between atoms: C_9  and  O_10
REMARK    5  A    between atoms: O_10  and  C_11
REMARK    6  A    between atoms: C_17  and  O_34
REMARK    7  A    between atoms: C_18  and  C_26
REMARK    8  A    between atoms: C_21  and  C_22
REMARK    9  A    between atoms: C_26  and  N_27
REMARK   10  A    between atoms: N_30  and  C_33
REMARK                            x       y       z     vdW  Elec       q    Type
REMARK                         _______ _______ _______ _____ _____    ______ ____
ROOT
ATOM      1  C   UNL     1      -1.607  -2.437  -3.002  0.00  0.00    +0.222 A 
ATOM      2  C   UNL     1      -0.846  -2.879  -4.121  0.00  0.00    +0.235 A 
ATOM      3  O   UNL     1       0.346  -2.638  -4.214  0.00  0.00    -0.283 OA
ATOM      4  C   UNL     1      -1.559  -3.639  -5.162  0.00  0.00    +0.068 A 
ATOM      5  C   UNL     1      -0.899  -4.114  -6.297  0.00  0.00    +0.019 A 
ATOM      6  C   UNL     1      -1.594  -4.815  -7.240  0.00  0.00    +0.046 A 
ATOM      7  C   UNL     1      -2.956  -5.058  -7.077  0.00  0.00    +0.125 A 
ATOM      8  C   UNL     1      -3.625  -4.593  -5.958  0.00  0.00    +0.051 A 
ATOM      9  C   UNL     1      -2.934  -3.879  -4.989  0.00  0.00    +0.147 A 
ATOM     10  O   UNL     1      -3.561  -3.417  -3.889  0.00  0.00    -0.447 OA
ATOM     11  C   UNL     1      -2.921  -2.728  -2.934  0.00  0.00    +0.254 A 
ENDROOT
BRANCH  11  12
ATOM     12  C   UNL     1      -3.705  -2.256  -1.736  0.00  0.00    +0.454 C 
ATOM     13  F   UNL     1      -2.904  -1.413  -0.958  0.00  0.00    -0.163 F 
ATOM     14  F   UNL     1      -4.838  -1.557  -2.167  0.00  0.00    -0.163 F 
ATOM     15  F   UNL     1      -4.100  -3.360  -0.973  0.00  0.00    -0.163 F 
ENDBRANCH  11  12
BRANCH   7  16
ATOM     16  O   UNL     1      -3.633  -5.756  -8.024  0.00  0.00    -0.506 OA
ATOM     17  H   UNL     1      -3.644  -6.712  -7.875  0.00  0.00    +0.292 HD
ENDBRANCH   7  16
BRANCH   1  18
ATOM     18  O   UNL     1      -1.010  -1.730  -2.003  0.00  0.00    -0.448 OA
BRANCH  18  24
ATOM     19  C   UNL     1       0.173   0.225  -1.341  0.00  0.00    -0.003 A 
ATOM     20  C   UNL     1       0.652   1.486  -1.641  0.00  0.00    +0.007 A 
ATOM     21  C   UNL     1       0.413   2.040  -2.885  0.00  0.00    +0.001 A 
ATOM     22  C   UNL     1      -0.305   1.335  -3.833  0.00  0.00    +0.004 A 
ATOM     23  C   UNL     1      -0.786   0.074  -3.539  0.00  0.00    +0.046 A 
ATOM     24  C   UNL     1      -0.543  -0.487  -2.293  0.00  0.00    +0.132 A 
BRANCH  19  26
ATOM     25  C   UNL     1       1.941  -0.486   0.244  0.00  0.00    +0.012 C 
ATOM     26  C   UNL     1       0.433  -0.378   0.015  0.00  0.00    +0.016 C 
ATOM     27  C   UNL     1      -0.185   0.512   1.095  0.00  0.00    +0.012 C 
ENDBRANCH  19  26
ENDBRANCH  18  24
ENDBRANCH   1  18
BRANCH   8  28
ATOM     28  C   UNL     1      -5.099  -4.861  -5.792  0.00  0.00    +0.126 C 
BRANCH  28  29
ATOM     29  N   UNL     1      -5.289  -6.129  -5.075  0.00  0.00    -0.301 NA
ATOM     30  C   UNL     1      -4.821  -7.265  -5.881  0.00  0.00    +0.066 C 
ATOM     31  C   UNL     1      -4.980  -8.557  -5.077  0.00  0.00    -0.064 C 
ATOM     32  N   UNL     1      -6.393  -8.739  -4.717  0.00  0.00    +0.379 N 
ATOM     33  C   UNL     1      -6.839  -7.609  -3.892  0.00  0.00    -0.064 C 
ATOM     34  C   UNL     1      -6.695  -6.309  -4.686  0.00  0.00    +0.066 C 
ATOM     35  C   UNL     1      -6.548  -9.989  -3.960  0.00  0.00    -0.096 C 
ATOM     36  H   UNL     1      -6.951  -8.783  -5.556  0.00  0.00    -0.082 HD
ENDBRANCH  28  29
ENDBRANCH   8  28
TORSDOF 7
