REMARK  Name = ZINC31660124
REMARK  8 active torsions:
REMARK  status: ('A' for Active; 'I' for Inactive)
REMARK    1  A    between atoms: C_1  and  C_2
REMARK    2  A    between atoms: C_2  and  C_4
REMARK    3  A    between atoms: C_2  and  N_12
REMARK    4  A    between atoms: C_13  and  C_15
REMARK    5  A    between atoms: C_15  and  N_16
REMARK    6  A    between atoms: C_19  and  C_23
REMARK    7  A    between atoms: C_19  and  C_24
REMARK    8  A    between atoms: C_28  and  N_30
REMARK                            x       y       z     vdW  Elec       q    Type
REMARK                         _______ _______ _______ _____ _____    ______ ____
ROOT
ATOM      1  N   UNL     1      -0.240  -1.150  -4.711  0.00  0.00    -0.215 N 
ATOM      2  C   UNL     1      -0.988  -2.230  -5.014  0.00  0.00    +0.251 C 
ATOM      3  O   UNL     1      -1.000  -3.297  -4.439  0.00  0.00    -0.272 OA
ATOM      4  C   UNL     1      -1.811  -1.831  -6.223  0.00  0.00    +0.135 C 
ATOM      5  N   UNL     1      -1.392  -0.444  -6.485  0.00  0.00    -0.281 N 
ATOM      6  C   UNL     1      -0.477  -0.134  -5.549  0.00  0.00    +0.310 C 
ATOM      7  O   UNL     1       0.074   0.946  -5.474  0.00  0.00    -0.252 OA
ATOM      8  C   UNL     1      -3.305  -1.891  -5.899  0.00  0.00    +0.047 C 
ATOM      9  H   UNL     1      -1.716   0.135  -7.193  0.00  0.00    +0.152 HD
ENDROOT
BRANCH   4  10
ATOM     10  C   UNL     1      -1.487  -2.715  -7.400  0.00  0.00    -0.013 A 
ATOM     11  C   UNL     1      -1.088  -4.022  -7.194  0.00  0.00    +0.006 A 
ATOM     12  C   UNL     1      -0.790  -4.832  -8.273  0.00  0.00    +0.003 A 
ATOM     13  C   UNL     1      -0.892  -4.335  -9.559  0.00  0.00    +0.033 A 
ATOM     14  C   UNL     1      -1.292  -3.028  -9.766  0.00  0.00    +0.127 A 
ATOM     15  C   UNL     1      -1.593  -2.219  -8.686  0.00  0.00    +0.039 A 
BRANCH  14  16
ATOM     16  N   UNL     1      -1.400  -2.496 -11.142  0.00  0.00    +0.056 N 
ATOM     17  O   UNL     1      -1.139  -3.204 -12.087  0.00  0.00    -0.126 OA
ATOM     18  O   UNL     1      -1.750  -1.353 -11.323  0.00  0.00    -0.126 OA
ENDBRANCH  14  16
ENDBRANCH   4  10
BRANCH   1  19
ATOM     19  C   UNL     1       0.712  -1.094  -3.598  0.00  0.00    +0.213 C 
BRANCH  19  21
ATOM     20  N   UNL     1       0.688  -0.476  -1.203  0.00  0.00    -0.307 N 
ATOM     21  C   UNL     1       0.006  -0.608  -2.358  0.00  0.00    +0.231 C 
ATOM     22  O   UNL     1      -1.175  -0.336  -2.400  0.00  0.00    -0.274 OA
ATOM     23  H   UNL     1       1.632  -0.695  -1.170  0.00  0.00    +0.149 HD
BRANCH  20  25
ATOM     24  C   UNL     1      -0.019   1.526   0.010  0.00  0.00    +0.033 C 
ATOM     25  C   UNL     1       0.002  -0.004   0.002  0.00  0.00    +0.100 C 
BRANCH  25  26
ATOM     26  C   UNL     1       0.731  -0.503   1.223  0.00  0.00    -0.026 A 
ATOM     27  C   UNL     1       2.113  -0.514   1.246  0.00  0.00    +0.007 A 
ATOM     28  C   UNL     1       2.783  -0.972   2.365  0.00  0.00    +0.022 A 
ATOM     29  C   UNL     1       2.070  -1.420   3.463  0.00  0.00    +0.059 A 
ATOM     30  C   UNL     1       0.686  -1.409   3.440  0.00  0.00    +0.060 A 
ATOM     31  C   UNL     1       0.017  -0.945   2.321  0.00  0.00    +0.027 A 
ATOM     32 CL   UNL     1      -0.210  -1.971   4.816  0.00  0.00    -0.082 Cl
ATOM     33 CL   UNL     1       2.911  -1.996   4.868  0.00  0.00    -0.082 Cl
ENDBRANCH  25  26
ENDBRANCH  20  25
ENDBRANCH  19  21
ENDBRANCH   1  19
TORSDOF 6
