REMARK  Name = ZINC12795181
REMARK  7 active torsions:
REMARK  status: ('A' for Active; 'I' for Inactive)
REMARK    1  A    between atoms: C_4  and  N_9
REMARK    2  A    between atoms: C_5  and  C_7
REMARK    3  A    between atoms: C_10  and  C_12
REMARK    4  A    between atoms: C_12  and  N_13
REMARK    5  A    between atoms: C_14  and  C_28
REMARK    6  A    between atoms: C_20  and  C_23
REMARK    7  A    between atoms: C_28  and  N_57
REMARK                            x       y       z     vdW  Elec       q    Type
REMARK                         _______ _______ _______ _____ _____    ______ ____
ROOT
ATOM      1  N   UNL     1       3.500   5.399   2.761  0.00  0.00    -0.289 N 
ATOM      2  C   UNL     1       3.808   6.710   2.583  0.00  0.00    +0.097 A 
ATOM      3  N   UNL     1       3.218   7.423   1.661  0.00  0.00    -0.228 NA
ATOM      4  C   UNL     1       2.296   6.886   0.865  0.00  0.00    +0.116 A 
ATOM      5  C   UNL     1       1.908   5.541   0.980  0.00  0.00    +0.080 A 
ATOM      6  C   UNL     1       2.578   4.787   1.995  0.00  0.00    +0.263 A 
ATOM      7  O   UNL     1       2.313   3.610   2.167  0.00  0.00    -0.267 OA
ATOM      8  C   UNL     1       0.890   5.109   0.029  0.00  0.00    +0.010 A 
ATOM      9  C   UNL     1       0.401   6.011  -0.858  0.00  0.00    +0.057 A 
ATOM     10  S   UNL     1       1.297   7.502  -0.466  0.00  0.00    -0.076 S 
ENDROOT
BRANCH   8  11
ATOM     11  C   UNL     1       0.396   3.716   0.036  0.00  0.00    +0.021 A 
ATOM     12  C   UNL     1      -0.895   3.258   0.054  0.00  0.00    +0.016 A 
ATOM     13  C   UNL     1      -1.115   1.897   0.051  0.00  0.00    +0.008 A 
ATOM     14  C   UNL     1      -0.051   1.055   0.042  0.00  0.00    +0.046 A 
ATOM     15  S   UNL     1       1.326   2.192   0.023  0.00  0.00    -0.097 S 
ENDBRANCH   8  11
BRANCH   1  16
ATOM     16  C   UNL     1       4.185   4.636   3.807  0.00  0.00    +0.222 C 
BRANCH  16  18
ATOM     17  N   UNL     1       3.852   4.111   6.201  0.00  0.00    -0.283 N 
ATOM     18  C   UNL     1       3.408   4.738   5.094  0.00  0.00    +0.237 C 
ATOM     19  O   UNL     1       2.382   5.385   5.134  0.00  0.00    -0.274 OA
ATOM     20  H   UNL     1       4.636   3.541   6.154  0.00  0.00    +0.155 HD
BRANCH  17  24
ATOM     21  C   UNL     1       1.856   4.621   9.828  0.00  0.00    +0.001 A 
ATOM     22  C   UNL     1       1.147   4.593   8.639  0.00  0.00    +0.002 A 
ATOM     23  C   UNL     1       1.806   4.429   7.436  0.00  0.00    +0.024 A 
ATOM     24  C   UNL     1       3.186   4.281   7.414  0.00  0.00    +0.051 A 
ATOM     25  C   UNL     1       3.907   4.309   8.617  0.00  0.00    +0.073 A 
ATOM     26  C   UNL     1       3.227   4.481   9.825  0.00  0.00    +0.021 A 
BRANCH  25  27
ATOM     27  C   UNL     1       5.332   4.163   8.606  0.00  0.00    +0.101 C 
ATOM     28  N   UNL     1       6.462   4.048   8.598  0.00  0.00    -0.191 NA
ENDBRANCH  25  27
ENDBRANCH  17  24
ENDBRANCH  16  18
ENDBRANCH   1  16
BRANCH   2  29
ATOM     29  C   UNL     1       4.847   7.353   3.465  0.00  0.00    -0.003 C 
BRANCH  29  35
ATOM     30  C   UNL     1       5.564   8.884   1.733  0.00  0.00    -0.078 C 
ATOM     31  C   UNL     1       5.580  10.357   1.316  0.00  0.00    -0.019 C 
ATOM     32  C   UNL     1       6.428  11.154   2.311  0.00  0.00    -0.004 C 
ATOM     33  C   UNL     1       5.854  10.972   3.719  0.00  0.00    -0.019 C 
ATOM     34  C   UNL     1       5.830   9.482   4.066  0.00  0.00    -0.078 C 
ATOM     35  N   UNL     1       4.979   8.775   3.086  0.00  0.00    +0.384 N 
ATOM     36  H   UNL     1       4.047   9.206   3.081  0.00  0.00    -0.081 HD
ENDBRANCH  29  35
ENDBRANCH   2  29
TORSDOF 7
