REMARK  Name = ZINC02626920
REMARK  6 active torsions:
REMARK  status: ('A' for Active; 'I' for Inactive)
REMARK    1  A    between atoms: C_1  and  C_2
REMARK    2  A    between atoms: C_2  and  C_4
REMARK    3  A    between atoms: C_2  and  N_10
REMARK    4  A    between atoms: C_20  and  S_21
REMARK    5  A    between atoms: S_21  and  C_22
REMARK    6  A    between atoms: C_22  and  C_23
REMARK                            x       y       z     vdW  Elec       q    Type
REMARK                         _______ _______ _______ _____ _____    ______ ____
ROOT
ATOM      1  N   UNL     1      -1.406  -0.392   0.116  0.00  0.00    -0.280 N 
ATOM      2  C   UNL     1      -2.170   0.134   1.101  0.00  0.00    +0.263 A 
ATOM      3  O   UNL     1      -1.711   0.928   1.902  0.00  0.00    -0.267 OA
ATOM      4  C   UNL     1      -3.576  -0.289   1.169  0.00  0.00    +0.065 A 
ATOM      5  C   UNL     1      -4.445   0.195   2.146  0.00  0.00    +0.015 A 
ATOM      6  C   UNL     1      -5.744  -0.232   2.163  0.00  0.00    +0.001 A 
ATOM      7  C   UNL     1      -6.205  -1.140   1.219  0.00  0.00    +0.002 A 
ATOM      8  C   UNL     1      -5.375  -1.631   0.251  0.00  0.00    +0.028 A 
ATOM      9  C   UNL     1      -4.041  -1.214   0.207  0.00  0.00    +0.079 A 
ATOM     10  N   UNL     1      -3.189  -1.672  -0.732  0.00  0.00    -0.223 NA
ATOM     11  C   UNL     1      -1.940  -1.277  -0.776  0.00  0.00    +0.173 A 
ENDROOT
BRANCH   1  13
ATOM     12  C   UNL     1       0.097   1.497  -0.281  0.00  0.00    +0.036 C 
ATOM     13  C   UNL     1       0.002  -0.004   0.002  0.00  0.00    +0.119 C 
BRANCH  13  14
ATOM     14  C   UNL     1       0.716  -0.318   1.292  0.00  0.00    -0.025 A 
ATOM     15  C   UNL     1       0.382  -1.453   2.007  0.00  0.00    +0.005 A 
ATOM     16  C   UNL     1       1.036  -1.741   3.190  0.00  0.00    +0.000 A 
ATOM     17  C   UNL     1       2.025  -0.895   3.657  0.00  0.00    +0.000 A 
ATOM     18  C   UNL     1       2.359   0.239   2.941  0.00  0.00    +0.000 A 
ATOM     19  C   UNL     1       1.708   0.525   1.756  0.00  0.00    +0.005 A 
ENDBRANCH  13  14
ENDBRANCH   1  13
BRANCH  11  20
ATOM     20  S   UNL     1      -0.899  -1.924  -2.043  0.00  0.00    -0.078 S 
BRANCH  20  21
ATOM     21  C   UNL     1      -1.987  -3.032  -2.981  0.00  0.00    +0.173 C 
BRANCH  21  22
ATOM     22  C   UNL     1      -1.211  -3.660  -4.110  0.00  0.00    +0.231 C 
ATOM     23  O   UNL     1      -0.040  -3.387  -4.266  0.00  0.00    -0.274 OA
ATOM     24  N   UNL     1      -1.818  -4.526  -4.945  0.00  0.00    -0.260 N 
ATOM     25  C   UNL     1      -3.239  -4.869  -4.781  0.00  0.00    +0.209 C 
ATOM     26  C   UNL     1      -3.414  -6.351  -4.992  0.00  0.00    +0.235 C 
ATOM     27  O   UNL     1      -4.312  -6.935  -4.424  0.00  0.00    -0.274 OA
ATOM     28  N   UNL     1      -2.585  -7.035  -5.804  0.00  0.00    -0.283 N 
ATOM     29  C   UNL     1      -1.512  -6.395  -6.433  0.00  0.00    +0.055 A 
ATOM     30  C   UNL     1      -1.117  -5.124  -6.004  0.00  0.00    +0.058 A 
ATOM     31  C   UNL     1      -0.057  -4.478  -6.613  0.00  0.00    +0.025 A 
ATOM     32  C   UNL     1       0.612  -5.092  -7.658  0.00  0.00    +0.002 A 
ATOM     33  C   UNL     1       0.223  -6.346  -8.091  0.00  0.00    +0.002 A 
ATOM     34  C   UNL     1      -0.836  -7.005  -7.478  0.00  0.00    +0.025 A 
ATOM     35  H   UNL     1      -2.735  -7.981  -5.955  0.00  0.00    +0.155 HD
ENDBRANCH  21  22
ENDBRANCH  20  21
ENDBRANCH  11  20
TORSDOF 5
