REMARK  Name = ZINC20355904
REMARK  10 active torsions:
REMARK  status: ('A' for Active; 'I' for Inactive)
REMARK    1  A    between atoms: C_1  and  C_2
REMARK    2  A    between atoms: C_2  and  C_3
REMARK    3  A    between atoms: C_2  and  C_4
REMARK    4  A    between atoms: C_2  and  C_5
REMARK    5  A    between atoms: C_8  and  S_11
REMARK    6  A    between atoms: S_11  and  C_14
REMARK    7  A    between atoms: C_17  and  S_22
REMARK    8  A    between atoms: S_22  and  C_23
REMARK    9  A    between atoms: C_23  and  C_24
REMARK   10  A    between atoms: N_26  and  C_27
REMARK                            x       y       z     vdW  Elec       q    Type
REMARK                         _______ _______ _______ _____ _____    ______ ____
ROOT
ATOM      1  C   UNL     1      -1.204   1.744   0.080  0.00  0.00    +0.176 A 
ATOM      2  C   UNL     1      -0.012   1.078   0.062  0.00  0.00    +0.146 A 
ATOM      3  N   UNL     1       1.132   1.758   0.044  0.00  0.00    -0.230 NA
ATOM      4  C   UNL     1       1.147   3.077   0.049  0.00  0.00    +0.169 A 
ATOM      5  N   UNL     1      -0.011   3.794   0.073  0.00  0.00    -0.300 N 
ATOM      6  H   UNL     1       0.023   4.893   0.077  0.00  0.00    +0.171 HD
ATOM      7  C   UNL     1      -1.198   3.150   0.091  0.00  0.00    +0.277 A 
ATOM      8  O   UNL     1      -2.244   3.776   0.112  0.00  0.00    -0.266 OA
ENDROOT
BRANCH   1   9
ATOM      9  S   UNL     1      -2.726   0.856   0.096  0.00  0.00    +0.032 S 
ATOM     10  O   UNL     1      -3.541   1.429  -0.916  0.00  0.00    -0.164 OA
ATOM     11  O   UNL     1      -2.390  -0.525   0.113  0.00  0.00    -0.164 OA
BRANCH   9  15
ATOM     12  C   UNL     1      -4.752   1.742   4.046  0.00  0.00    -0.042 A 
ATOM     13  C   UNL     1      -4.996   2.546   2.948  0.00  0.00    +0.006 A 
ATOM     14  C   UNL     1      -4.377   2.275   1.742  0.00  0.00    +0.027 A 
ATOM     15  C   UNL     1      -3.514   1.201   1.634  0.00  0.00    +0.094 A 
ATOM     16  C   UNL     1      -3.274   0.394   2.730  0.00  0.00    +0.027 A 
ATOM     17  C   UNL     1      -3.889   0.667   3.937  0.00  0.00    +0.006 A 
BRANCH  12  19
ATOM     18  C   UNL     1      -6.944   1.969   5.182  0.00  0.00    +0.015 C 
ATOM     19  C   UNL     1      -5.426   2.037   5.361  0.00  0.00    -0.013 C 
ATOM     20  C   UNL     1      -4.988   1.005   6.402  0.00  0.00    +0.015 C 
ATOM     21  C   UNL     1      -5.031   3.438   5.833  0.00  0.00    +0.015 C 
ENDBRANCH  12  19
ENDBRANCH   9  15
ENDBRANCH   1   9
BRANCH   4  22
ATOM     22  S   UNL     1       2.691   3.925   0.025  0.00  0.00    -0.078 S 
BRANCH  22  23
ATOM     23  C   UNL     1       3.825   2.514  -0.002  0.00  0.00    +0.173 C 
BRANCH  23  24
ATOM     24  C   UNL     1       5.246   3.013  -0.026  0.00  0.00    +0.228 C 
ATOM     25  O   UNL     1       5.471   4.205  -0.025  0.00  0.00    -0.275 OA
ATOM     26  N   UNL     1       6.268   2.134  -0.048  0.00  0.00    -0.283 N 
ATOM     27  H   UNL     1       6.067   1.055   0.025  0.00  0.00    +0.155 HD
BRANCH  26  28
ATOM     28  C   UNL     1       7.585   2.595  -0.165  0.00  0.00    +0.069 A 
ATOM     29  C   UNL     1       7.958   3.793   0.429  0.00  0.00    +0.026 A 
ATOM     30  C   UNL     1       9.260   4.243   0.318  0.00  0.00    +0.002 A 
ATOM     31  C   UNL     1      10.189   3.507  -0.394  0.00  0.00    +0.003 A 
ATOM     32  C   UNL     1       9.822   2.316  -0.992  0.00  0.00    +0.040 A 
ATOM     33  C   UNL     1       8.522   1.857  -0.880  0.00  0.00    +0.144 A 
ATOM     34  F   UNL     1       8.162   0.693  -1.465  0.00  0.00    -0.204 F 
ENDBRANCH  26  28
ENDBRANCH  23  24
ENDBRANCH  22  23
ENDBRANCH   4  22
TORSDOF 7
