REMARK  Name = ZINC39530838
REMARK  8 active torsions:
REMARK  status: ('A' for Active; 'I' for Inactive)
REMARK    1  A    between atoms: C_1  and  C_2
REMARK    2  A    between atoms: C_2  and  C_3
REMARK    3  A    between atoms: C_2  and  S_4
REMARK    4  A    between atoms: S_4  and  C_7
REMARK    5  A    between atoms: C_12  and  N_13
REMARK    6  A    between atoms: C_17  and  S_20
REMARK    7  A    between atoms: S_20  and  O_23
REMARK    8  A    between atoms: O_23  and  C_24
REMARK                            x       y       z     vdW  Elec       q    Type
REMARK                         _______ _______ _______ _____ _____    ______ ____
ROOT
ATOM      1  N   UNL     1      -0.198  -2.520  -2.466  0.00  0.00    -0.330 N 
ATOM      2  C   UNL     1       1.180  -2.156  -2.830  0.00  0.00    +0.086 C 
ATOM      3  C   UNL     1       1.179  -0.716  -3.354  0.00  0.00    -0.061 C 
ATOM      4  N   UNL     1       0.211  -0.596  -4.451  0.00  0.00    +0.398 N 
ATOM      5  C   UNL     1      -1.148  -0.833  -3.947  0.00  0.00    +0.133 C 
ATOM      6  C   UNL     1      -1.262  -2.284  -3.455  0.00  0.00    +0.115 C 
ATOM      7  H   UNL     1       0.265   0.331  -4.846  0.00  0.00    -0.083 HD
ATOM      8  H   UNL     1       0.427  -1.276  -5.165  0.00  0.00    -0.083 HD
ENDROOT
BRANCH   1  14
ATOM      9  C   UNL     1      -0.334  -4.445  -1.016  0.00  0.00    +0.110 A 
ATOM     10  C   UNL     1      -0.615  -4.994   0.219  0.00  0.00    +0.044 A 
ATOM     11  C   UNL     1      -1.056  -4.187   1.253  0.00  0.00    +0.020 A 
ATOM     12  C   UNL     1      -1.216  -2.827   1.052  0.00  0.00    +0.017 A 
ATOM     13  C   UNL     1      -0.936  -2.272  -0.181  0.00  0.00    +0.026 A 
ATOM     14  C   UNL     1      -0.488  -3.080  -1.219  0.00  0.00    +0.055 A 
ATOM     15 BR   UNL     1      -1.441  -4.943   2.942  0.00  0.00    -0.050 Br
BRANCH   9  16
ATOM     16  S   UNL     1       0.226  -5.474  -2.332  0.00  0.00    +0.001 S 
ATOM     17  O   UNL     1       0.413  -6.752  -1.739  0.00  0.00    -0.169 OA
ATOM     18  O   UNL     1       1.323  -4.772  -2.900  0.00  0.00    -0.169 OA
BRANCH  16  20
ATOM     19  C   UNL     1      -0.777  -6.399  -4.703  0.00  0.00    +0.032 C 
ATOM     20  C   UNL     1      -1.157  -5.526  -3.505  0.00  0.00    +0.130 C 
ATOM     21  C   UNL     1      -2.389  -6.114  -2.815  0.00  0.00    +0.032 C 
ENDBRANCH  16  20
ENDBRANCH   9  16
ENDBRANCH   1  14
BRANCH   5  22
ATOM     22  S   UNL     1      -2.345  -0.553  -5.281  0.00  0.00    +0.109 S 
ATOM     23  O   UNL     1      -1.988  -1.313  -6.427  0.00  0.00    -0.138 OA
ATOM     24  O   UNL     1      -3.669  -0.596  -4.766  0.00  0.00    -0.138 OA
BRANCH  22  25
ATOM     25  O   UNL     1      -2.136   0.897  -5.696  0.00  0.00    -0.347 OA
BRANCH  25  26
ATOM     26  C   UNL     1      -2.653   1.801  -4.823  0.00  0.00    +0.156 A 
ATOM     27  C   UNL     1      -3.987   2.171  -4.914  0.00  0.00    +0.048 A 
ATOM     28  C   UNL     1      -4.510   3.091  -4.026  0.00  0.00    +0.004 A 
ATOM     29  C   UNL     1      -3.705   3.643  -3.047  0.00  0.00    +0.000 A 
ATOM     30  C   UNL     1      -2.375   3.276  -2.954  0.00  0.00    +0.004 A 
ATOM     31  C   UNL     1      -1.849   2.353  -3.836  0.00  0.00    +0.048 A 
ENDBRANCH  25  26
ENDBRANCH  22  25
ENDBRANCH   5  22
TORSDOF 6
