REMARK  Name = ZINC36647999
REMARK  11 active torsions:
REMARK  status: ('A' for Active; 'I' for Inactive)
REMARK    1  A    between atoms: C_1  and  C_2
REMARK    2  A    between atoms: C_7  and  C_8
REMARK    3  A    between atoms: N_12  and  C_13
REMARK    4  A    between atoms: C_13  and  C_14
REMARK    5  A    between atoms: C_14  and  C_15
REMARK    6  A    between atoms: C_15  and  N_16
REMARK    7  A    between atoms: N_16  and  C_17
REMARK    8  A    between atoms: N_16  and  C_18
REMARK    9  A    between atoms: C_19  and  C_21
REMARK   10  A    between atoms: N_26  and  S_28
REMARK   11  A    between atoms: S_28  and  C_31
REMARK                            x       y       z     vdW  Elec       q    Type
REMARK                         _______ _______ _______ _____ _____    ______ ____
ROOT
ATOM      1  C   UNL     1       1.739   1.228   0.192  0.00  0.00    +0.044 C 
ATOM      2  C   UNL     1       1.630  -0.274   0.261  0.00  0.00    -0.045 A 
ATOM      3  C   UNL     1       1.933  -1.028  -0.863  0.00  0.00    +0.005 A 
ATOM      4  C   UNL     1       1.834  -2.405  -0.801  0.00  0.00    +0.017 A 
ATOM      5  C   UNL     1       1.438  -3.004   0.368  0.00  0.00    +0.041 A 
ATOM      6  C   UNL     1       1.121  -2.269   1.533  0.00  0.00    +0.083 A 
ATOM      7  C   UNL     1       1.240  -0.863   1.435  0.00  0.00    -0.021 A 
ATOM      8  C   UNL     1       0.927  -0.003   2.633  0.00  0.00    +0.046 C 
ATOM      9  N   UNL     1       0.748  -3.002   2.604  0.00  0.00    -0.224 NA
ATOM     10  C   UNL     1       0.681  -4.312   2.574  0.00  0.00    +0.168 A 
ATOM     11  S   UNL     1       1.177  -4.681   0.897  0.00  0.00    -0.052 S 
ATOM     12  N   UNL     1       0.318  -5.187   3.585  0.00  0.00    -0.250 N 
ATOM     13  C   UNL     1      -0.134  -4.708   4.761  0.00  0.00    +0.226 C 
ATOM     14  O   UNL     1      -0.545  -5.472   5.609  0.00  0.00    -0.275 OA
ENDROOT
BRANCH  13  15
ATOM     15  C   UNL     1      -0.130  -3.224   5.022  0.00  0.00    +0.091 C 
ATOM     16  C   UNL     1      -1.378  -2.593   4.402  0.00  0.00    +0.015 C 
ATOM     17  C   UNL     1      -1.358  -1.081   4.638  0.00  0.00    +0.018 C 
ATOM     18  C   UNL     1      -1.373  -0.803   6.144  0.00  0.00    +0.109 C 
ATOM     19  N   UNL     1      -0.258  -1.526   6.769  0.00  0.00    -0.175 NA
ATOM     20  C   UNL     1      -0.130  -2.970   6.532  0.00  0.00    +0.122 C 
BRANCH  19  21
ATOM     21  S   UNL     1       0.836  -0.728   7.723  0.00  0.00    +0.067 S 
ATOM     22  O   UNL     1       2.029  -1.500   7.707  0.00  0.00    -0.152 OA
ATOM     23  O   UNL     1       0.805   0.635   7.324  0.00  0.00    -0.152 OA
BRANCH  21  24
ATOM     24  C   UNL     1       0.224  -0.783   9.375  0.00  0.00    +0.143 A 
ATOM     25  C   UNL     1       0.449  -1.709  10.338  0.00  0.00    +0.036 A 
ATOM     26  C   UNL     1      -0.142  -1.545  11.577  0.00  0.00    +0.010 A 
ATOM     27  C   UNL     1      -0.930  -0.463  11.792  0.00  0.00    +0.047 A 
ATOM     28  S   UNL     1      -0.847   0.371  10.216  0.00  0.00    -0.077 S 
ENDBRANCH  21  24
ENDBRANCH  19  21
ENDBRANCH  13  15
BRANCH  12  29
ATOM     29  C   UNL     1       0.427  -6.633   3.376  0.00  0.00    +0.114 C 
BRANCH  29  30
ATOM     30  C   UNL     1       1.769  -7.128   3.920  0.00  0.00    +0.001 C 
BRANCH  30  31
ATOM     31  C   UNL     1       1.936  -8.613   3.591  0.00  0.00    -0.078 C 
BRANCH  31  32
ATOM     32  N   UNL     1       3.224  -9.088   4.113  0.00  0.00    +0.376 N 
ATOM     33  C   UNL     1       3.332 -10.538   3.905  0.00  0.00    -0.097 C 
ATOM     34  C   UNL     1       4.319  -8.408   3.408  0.00  0.00    -0.097 C 
ATOM     35  H   UNL     1       3.283  -8.885   5.100  0.00  0.00    -0.083 HD
ENDBRANCH  31  32
ENDBRANCH  30  31
ENDBRANCH  29  30
ENDBRANCH  12  29
TORSDOF 7
