REMARK  Name = ZINC40340211
REMARK  10 active torsions:
REMARK  status: ('A' for Active; 'I' for Inactive)
REMARK    1  A    between atoms: C_1  and  C_2
REMARK    2  A    between atoms: C_2  and  C_3
REMARK    3  A    between atoms: C_3  and  C_4
REMARK    4  A    between atoms: C_4  and  C_5
REMARK    5  A    between atoms: C_5  and  N_6
REMARK    6  A    between atoms: C_7  and  C_24
REMARK    7  A    between atoms: C_10  and  C_17
REMARK    8  A    between atoms: C_20  and  C_23
REMARK    9  A    between atoms: C_27  and  O_30
REMARK   10  A    between atoms: O_30  and  C_31
REMARK                            x       y       z     vdW  Elec       q    Type
REMARK                         _______ _______ _______ _____ _____    ______ ____
ROOT
ATOM      1  N   UNL     1      -2.828  -4.058   0.007  0.00  0.00    -0.285 N 
ATOM      2  C   UNL     1      -2.822  -4.912  -1.188  0.00  0.00    +0.141 C 
ATOM      3  C   UNL     1      -2.800  -6.330  -0.686  0.00  0.00    +0.035 A 
ATOM      4  C   UNL     1      -2.783  -7.692  -1.003  0.00  0.00    +0.099 A 
ATOM      5  N   UNL     1      -2.768  -8.361   0.134  0.00  0.00    -0.173 NA
ATOM      6  N   UNL     1      -2.775  -7.556   1.136  0.00  0.00    -0.272 N 
ATOM      7  H   UNL     1      -2.766  -7.826   2.067  0.00  0.00    +0.189 HD
ATOM      8  C   UNL     1      -2.794  -6.263   0.694  0.00  0.00    +0.126 A 
ATOM      9  C   UNL     1      -2.807  -4.852   1.093  0.00  0.00    +0.265 C 
ATOM     10  O   UNL     1      -2.801  -4.455   2.243  0.00  0.00    -0.268 OA
ENDROOT
BRANCH   4  11
ATOM     11  C   UNL     1      -2.781  -8.278  -2.367  0.00  0.00    +0.002 A 
ATOM     12  C   UNL     1      -3.481  -7.653  -3.397  0.00  0.00    +0.010 A 
ATOM     13  C   UNL     1      -3.476  -8.201  -4.663  0.00  0.00    +0.004 A 
ATOM     14  C   UNL     1      -2.778  -9.369  -4.911  0.00  0.00    -0.050 A 
ATOM     15  C   UNL     1      -2.082  -9.994  -3.892  0.00  0.00    +0.004 A 
ATOM     16  C   UNL     1      -2.075  -9.451  -2.623  0.00  0.00    +0.010 A 
ATOM     17  C   UNL     1      -2.777  -9.964  -6.296  0.00  0.00    +0.044 C 
ENDBRANCH   4  11
BRANCH   2  18
ATOM     18  C   UNL     1      -4.064  -4.668  -2.005  0.00  0.00    -0.022 A 
ATOM     19  C   UNL     1      -5.280  -4.481  -1.374  0.00  0.00    +0.009 A 
ATOM     20  C   UNL     1      -6.420  -4.258  -2.122  0.00  0.00    +0.046 A 
ATOM     21  C   UNL     1      -6.345  -4.223  -3.506  0.00  0.00    +0.120 A 
ATOM     22  C   UNL     1      -5.123  -4.411  -4.137  0.00  0.00    +0.046 A 
ATOM     23  C   UNL     1      -3.985  -4.628  -3.385  0.00  0.00    +0.009 A 
BRANCH  21  24
ATOM     24  O   UNL     1      -7.465  -4.004  -4.244  0.00  0.00    -0.495 OA
ATOM     25  C   UNL     1      -7.312  -3.980  -5.665  0.00  0.00    +0.277 C 
ENDBRANCH  21  24
ENDBRANCH   2  18
BRANCH   1  26
ATOM     26  C   UNL     1      -2.848  -2.593   0.015  0.00  0.00    +0.109 C 
BRANCH  26  27
ATOM     27  C   UNL     1      -1.413  -2.063   0.004  0.00  0.00    +0.019 C 
BRANCH  27  28
ATOM     28  C   UNL     1      -1.433  -0.534   0.013  0.00  0.00    +0.001 C 
BRANCH  28  30
ATOM     29  C   UNL     1      -0.019   1.526   0.010  0.00  0.00    +0.004 C 
ATOM     30  C   UNL     1       0.002  -0.004   0.002  0.00  0.00    -0.003 C 
ENDBRANCH  28  30
ENDBRANCH  27  28
ENDBRANCH  26  27
ENDBRANCH   1  26
TORSDOF 7
