REMARK  Name = ZINC09420629
REMARK  6 active torsions:
REMARK  status: ('A' for Active; 'I' for Inactive)
REMARK    1  A    between atoms: C_1  and  C_2
REMARK    2  A    between atoms: C_5  and  S_8
REMARK    3  A    between atoms: S_8  and  O_11
REMARK    4  A    between atoms: O_11  and  C_12
REMARK    5  A    between atoms: C_20  and  C_21
REMARK    6  A    between atoms: C_22  and  C_23
REMARK                            x       y       z     vdW  Elec       q    Type
REMARK                         _______ _______ _______ _____ _____    ______ ____
ROOT
ATOM      1  C   UNL     1      -0.814   3.613   0.028  0.00  0.00    +0.160 A 
ATOM      2  C   UNL     1       0.495   4.088   0.018  0.00  0.00    +0.049 A 
ATOM      3  C   UNL     1       1.543   3.211   0.004  0.00  0.00    +0.019 A 
ATOM      4  C   UNL     1       1.299   1.837  -0.001  0.00  0.00    +0.068 A 
ATOM      5  C   UNL     1      -0.016   1.346   0.009  0.00  0.00    +0.143 A 
ATOM      6  C   UNL     1      -1.070   2.252   0.030  0.00  0.00    +0.095 A 
ATOM      7  O   UNL     1       0.002  -0.004   0.002  0.00  0.00    -0.451 OA
ATOM      8  C   UNL     1       1.265  -0.490  -0.013  0.00  0.00    +0.176 C 
ATOM      9  C   UNL     1       1.622  -1.807  -0.022  0.00  0.00    +0.050 C 
ATOM     10  C   UNL     1       2.182   0.656  -0.015  0.00  0.00    +0.231 C 
ATOM     11  O   UNL     1       3.401   0.636  -0.027  0.00  0.00    -0.283 OA
ENDROOT
BRANCH   9  12
ATOM     12  C   UNL     1       0.628  -2.806  -0.018  0.00  0.00    +0.004 C 
ATOM     13  C   UNL     1       0.982  -4.113  -0.028  0.00  0.00    +0.008 C 
BRANCH  13  14
ATOM     14  C   UNL     1      -0.054  -5.155  -0.023  0.00  0.00    -0.025 A 
ATOM     15  C   UNL     1      -1.408  -4.801  -0.003  0.00  0.00    +0.008 A 
ATOM     16  C   UNL     1      -2.374  -5.784  -0.005  0.00  0.00    +0.001 A 
ATOM     17  C   UNL     1      -2.009  -7.119  -0.015  0.00  0.00    +0.000 A 
ATOM     18  C   UNL     1      -0.672  -7.478  -0.029  0.00  0.00    +0.001 A 
ATOM     19  C   UNL     1       0.307  -6.507  -0.033  0.00  0.00    +0.008 A 
ENDBRANCH  13  14
ENDBRANCH   9  12
BRANCH   1  20
ATOM     20  O   UNL     1      -1.848   4.492   0.042  0.00  0.00    -0.342 OA
BRANCH  20  21
ATOM     21  S   UNL     1      -2.333   4.900  -1.342  0.00  0.00    +0.151 S 
ATOM     22  O   UNL     1      -3.257   5.962  -1.152  0.00  0.00    -0.131 OA
ATOM     23  O   UNL     1      -1.175   5.034  -2.154  0.00  0.00    -0.131 OA
BRANCH  21  28
ATOM     24  C   UNL     1      -5.475   0.257  -3.573  0.00  0.00    +0.044 C 
ATOM     25  C   UNL     1      -4.690   1.416  -3.015  0.00  0.00    -0.050 A 
ATOM     26  C   UNL     1      -5.331   2.394  -2.277  0.00  0.00    +0.005 A 
ATOM     27  C   UNL     1      -4.611   3.458  -1.766  0.00  0.00    +0.031 A 
ATOM     28  C   UNL     1      -3.250   3.544  -1.993  0.00  0.00    +0.128 A 
ATOM     29  C   UNL     1      -2.610   2.569  -2.735  0.00  0.00    +0.031 A 
ATOM     30  C   UNL     1      -3.329   1.502  -3.241  0.00  0.00    +0.005 A 
ENDBRANCH  21  28
ENDBRANCH  20  21
ENDBRANCH   1  20
TORSDOF 5
