REMARK  Name = ZINC44784220
REMARK  4 active torsions:
REMARK  status: ('A' for Active; 'I' for Inactive)
REMARK    1  A    between atoms: C_1  and  C_2
REMARK    2  A    between atoms: C_12  and  C_14
REMARK    3  A    between atoms: C_14  and  C_19
REMARK    4  A    between atoms: N_20  and  O_21
REMARK                            x       y       z     vdW  Elec       q    Type
REMARK                         _______ _______ _______ _____ _____    ______ ____
ROOT
ATOM      1  C   UNL     1       3.066   2.950   0.126  0.00  0.00    +0.029 C 
ATOM      2  C   UNL     1       1.630   2.635   0.551  0.00  0.00    +0.083 C 
ATOM      3  C   UNL     1       0.871   1.953  -0.598  0.00  0.00    +0.059 C 
ATOM      4  C   UNL     1       0.482   0.600  -0.048  0.00  0.00    -0.024 A 
ATOM      5  C   UNL     1      -0.214  -0.447  -0.623  0.00  0.00    +0.005 A 
ATOM      6  C   UNL     1      -0.448  -1.604   0.097  0.00  0.00    +0.000 A 
ATOM      7  C   UNL     1       0.017  -1.712   1.395  0.00  0.00    +0.002 A 
ATOM      8  C   UNL     1       0.711  -0.671   1.973  0.00  0.00    +0.024 A 
ATOM      9  C   UNL     1       0.951   0.501   1.252  0.00  0.00    +0.040 A 
ATOM     10  N   UNL     1       1.626   1.663   1.647  0.00  0.00    -0.267 N 
ATOM     11  C   UNL     1       2.190   1.858   2.856  0.00  0.00    +0.233 C 
ATOM     12  O   UNL     1       2.861   2.848   3.059  0.00  0.00    -0.274 OA
ENDROOT
BRANCH  11  13
ATOM     13  C   UNL     1       1.986   0.847   3.955  0.00  0.00    +0.105 C 
ATOM     14  C   UNL     1       0.484   0.675   4.241  0.00  0.00    +0.024 C 
ATOM     15  C   UNL     1       0.267   1.081   5.713  0.00  0.00    +0.001 C 
ATOM     16  C   UNL     1       1.460   2.018   6.029  0.00  0.00    +0.001 C 
ATOM     17  C   UNL     1       2.629   1.351   5.263  0.00  0.00    +0.024 C 
BRANCH  13  18
ATOM     18  C   UNL     1       2.592  -0.475   3.558  0.00  0.00    +0.147 C 
ATOM     19  N   UNL     1       2.403  -1.519   4.295  0.00  0.00    -0.076 NA
ATOM     20  N   UNL     1       3.347  -0.570   2.410  0.00  0.00    -0.343 N 
ATOM     21  H   UNL     1       2.984  -1.010   1.626  0.00  0.00    +0.144 HD
ATOM     22  H   UNL     1       4.242  -0.196   2.386  0.00  0.00    +0.144 HD
BRANCH  19  23
ATOM     23  O   UNL     1       2.972  -2.761   3.922  0.00  0.00    -0.408 OA
ATOM     24  H   UNL     1       2.775  -3.483   4.534  0.00  0.00    +0.328 HD
ENDBRANCH  19  23
ENDBRANCH  13  18
ENDBRANCH  11  13
TORSDOF 3
