REMARK  Name = ZINC50699290
REMARK  5 active torsions:
REMARK  status: ('A' for Active; 'I' for Inactive)
REMARK    1  A    between atoms: C_1  and  C_2
REMARK    2  A    between atoms: C_8  and  N_10
REMARK    3  A    between atoms: C_11  and  C_13
REMARK    4  A    between atoms: C_15  and  N_23
REMARK    5  A    between atoms: C_18  and  N_19
REMARK                            x       y       z     vdW  Elec       q    Type
REMARK                         _______ _______ _______ _____ _____    ______ ____
ROOT
ATOM      1  C   UNL     1       4.243   0.541   2.598  0.00  0.00    +0.069 A 
ATOM      2  C   UNL     1       5.255  -0.196   1.980  0.00  0.00    +0.041 A 
ATOM      3  C   UNL     1       6.490   0.387   1.754  0.00  0.00    +0.061 A 
ATOM      4  C   UNL     1       6.720   1.704   2.144  0.00  0.00    +0.146 A 
ATOM      5  C   UNL     1       5.716   2.434   2.757  0.00  0.00    +0.073 A 
ATOM      6  C   UNL     1       4.480   1.862   2.980  0.00  0.00    +0.141 A 
ATOM      7  F   UNL     1       7.926   2.271   1.923  0.00  0.00    -0.203 F 
ENDROOT
BRANCH   1   9
ATOM      8  N   UNL     1       2.234  -0.621   1.821  0.00  0.00    -0.308 N 
ATOM      9  C   UNL     1       2.922  -0.075   2.843  0.00  0.00    +0.247 C 
ATOM     10  O   UNL     1       2.456  -0.089   3.965  0.00  0.00    -0.270 OA
ATOM     11  H   UNL     1       2.605  -0.610   0.925  0.00  0.00    +0.149 HD
BRANCH   8  18
ATOM     12  C   UNL     1      -0.086   0.244   0.318  0.00  0.00    +0.009 C 
ATOM     13  C   UNL     1       0.102  -1.204   0.772  0.00  0.00    +0.006 C 
ATOM     14  C   UNL     1       0.837  -1.989  -0.317  0.00  0.00    +0.005 C 
ATOM     15  C   UNL     1       1.026  -3.438   0.138  0.00  0.00    +0.000 C 
ATOM     16  C   UNL     1       1.847  -3.464   1.428  0.00  0.00    +0.002 C 
ATOM     17  C   UNL     1       1.113  -2.680   2.517  0.00  0.00    +0.022 C 
ATOM     18  C   UNL     1       0.924  -1.231   2.063  0.00  0.00    +0.076 C 
ENDBRANCH   8  18
ENDBRANCH   1   9
BRANCH   6  19
ATOM     19  N   UNL     1       3.408   2.649   3.631  0.00  0.00    +0.057 N 
ATOM     20  O   UNL     1       3.648   3.748   4.073  0.00  0.00    -0.126 OA
ATOM     21  O   UNL     1       2.292   2.192   3.720  0.00  0.00    -0.126 OA
ENDBRANCH   6  19
BRANCH   3  22
ATOM     22  N   UNL     1       7.507  -0.347   1.135  0.00  0.00    -0.356 N 
ATOM     23  H   UNL     1       7.347  -1.265   0.864  0.00  0.00    +0.142 HD
ATOM     24  H   UNL     1       8.373   0.061   0.977  0.00  0.00    +0.142 HD
ENDBRANCH   3  22
TORSDOF 4
