REMARK  Name = ZINC36853016
REMARK  3 active torsions:
REMARK  status: ('A' for Active; 'I' for Inactive)
REMARK    1  A    between atoms: C_6  and  N_7
REMARK    2  A    between atoms: N_7  and  C_8
REMARK    3  A    between atoms: N_13  and  C_16
REMARK                            x       y       z     vdW  Elec       q    Type
REMARK                         _______ _______ _______ _____ _____    ______ ____
ROOT
ATOM      1  C   UNL     1      -1.176  -2.185   0.002  0.00  0.00    +0.166 C 
ATOM      2  C   UNL     1      -2.493  -2.751   0.573  0.00  0.00    +0.128 C 
ATOM      3  C   UNL     1      -3.073  -3.535  -0.584  0.00  0.00    +0.224 C 
ATOM      4  O   UNL     1      -4.119  -4.148  -0.562  0.00  0.00    -0.275 OA
ATOM      5  N   UNL     1      -2.248  -3.445  -1.635  0.00  0.00    -0.237 N 
ATOM      6  C   UNL     1      -1.147  -2.710  -1.417  0.00  0.00    +0.243 C 
ATOM      7  O   UNL     1      -0.269  -2.498  -2.226  0.00  0.00    -0.273 OA
ENDROOT
BRANCH   5   8
ATOM      8  C   UNL     1      -2.525  -4.096  -2.917  0.00  0.00    +0.084 C 
ATOM      9  C   UNL     1      -3.886  -3.624  -3.468  0.00  0.00    +0.023 C 
ATOM     10  C   UNL     1      -4.488  -4.889  -4.129  0.00  0.00    +0.002 C 
ATOM     11  C   UNL     1      -4.058  -6.018  -3.161  0.00  0.00    +0.002 C 
ATOM     12  C   UNL     1      -2.634  -5.619  -2.722  0.00  0.00    +0.023 C 
ENDBRANCH   5   8
BRANCH   1  13
ATOM     13  N   UNL     1      -1.198  -0.721   0.010  0.00  0.00    -0.333 N 
ATOM     14  H   UNL     1      -2.045  -0.248   0.021  0.00  0.00    +0.147 HD
BRANCH  13  20
ATOM     15  C   UNL     1      -0.017   1.385   0.010  0.00  0.00    +0.024 A 
ATOM     16  C   UNL     1       1.171   2.090   0.002  0.00  0.00    +0.022 A 
ATOM     17  C   UNL     1       2.378   1.415  -0.013  0.00  0.00    +0.041 A 
ATOM     18  C   UNL     1       2.400   0.031  -0.022  0.00  0.00    +0.022 A 
ATOM     19  C   UNL     1       1.216  -0.679  -0.014  0.00  0.00    +0.024 A 
ATOM     20  C   UNL     1       0.002  -0.004   0.002  0.00  0.00    +0.028 A 
ATOM     21 CL   UNL     1       3.869   2.305  -0.024  0.00  0.00    -0.084 Cl
ENDBRANCH  13  20
ENDBRANCH   1  13
TORSDOF 3
