REMARK  Name = ZINC63667428
REMARK  7 active torsions:
REMARK  status: ('A' for Active; 'I' for Inactive)
REMARK    1  A    between atoms: C_7  and  C_10
REMARK    2  A    between atoms: C_10  and  C_11
REMARK    3  A    between atoms: C_11  and  N_12
REMARK    4  A    between atoms: C_13  and  C_15
REMARK    5  A    between atoms: C_15  and  C_16
REMARK    6  A    between atoms: C_16  and  C_17
REMARK    7  A    between atoms: C_17  and  N_18
REMARK                            x       y       z     vdW  Elec       q    Type
REMARK                         _______ _______ _______ _____ _____    ______ ____
ROOT
ATOM      1  C   UNL     1      -1.986  -7.025  -4.059  0.00  0.00    +0.031 C 
ENDROOT
BRANCH   1   2
ATOM      2  C   UNL     1      -1.752  -6.557  -2.622  0.00  0.00    +0.097 C 
BRANCH   2   4
ATOM      3  N   UNL     1      -0.458  -4.798  -1.460  0.00  0.00    -0.315 N 
ATOM      4  C   UNL     1      -0.811  -5.380  -2.623  0.00  0.00    +0.213 C 
ATOM      5  O   UNL     1      -0.371  -4.957  -3.671  0.00  0.00    -0.276 OA
ATOM      6  H   UNL     1      -0.810  -5.136  -0.622  0.00  0.00    +0.149 HD
BRANCH   3   7
ATOM      7  C   UNL     1       0.457  -3.653  -1.462  0.00  0.00    +0.108 C 
BRANCH   7   8
ATOM      8  C   UNL     1       0.691  -3.186  -0.024  0.00  0.00    +0.052 C 
BRANCH   8  15
ATOM      9  C   UNL     1      -0.016   1.348   0.009  0.00  0.00    +0.001 A 
ATOM     10  C   UNL     1       1.166   2.101   0.002  0.00  0.00    +0.002 A 
ATOM     11  C   UNL     1       2.391   1.535  -0.013  0.00  0.00    +0.026 A 
ATOM     12  C   UNL     1       2.529   0.120  -0.022  0.00  0.00    +0.043 A 
ATOM     13  N   UNL     1       3.587  -0.654  -0.037  0.00  0.00    -0.380 N 
ATOM     14  C   UNL     1       3.143  -2.053  -0.041  0.00  0.00    +0.144 C 
ATOM     15  C   UNL     1       1.631  -2.008  -0.025  0.00  0.00    -0.040 C 
ATOM     16  C   UNL     1       1.295  -0.698  -0.014  0.00  0.00    -0.001 A 
ATOM     17  C   UNL     1       0.002  -0.004   0.002  0.00  0.00    +0.010 A 
ATOM     18  H   UNL     1       4.509  -0.353  -0.045  0.00  0.00    +0.160 HD
ENDBRANCH   8  15
ENDBRANCH   7   8
ENDBRANCH   3   7
ENDBRANCH   2   4
ENDBRANCH   1   2
BRANCH   1  19
ATOM     19  C   UNL     1      -2.941  -8.220  -4.058  0.00  0.00    +0.128 C 
BRANCH  19  20
ATOM     20  N   UNL     1      -3.165  -8.668  -5.434  0.00  0.00    -0.288 N 
ATOM     21  C   UNL     1      -4.180  -8.134  -6.148  0.00  0.00    +0.262 A 
ATOM     22  O   UNL     1      -4.906  -7.288  -5.661  0.00  0.00    -0.267 OA
ATOM     23  C   UNL     1      -4.385  -8.600  -7.528  0.00  0.00    +0.067 A 
ATOM     24  C   UNL     1      -5.412  -8.096  -8.326  0.00  0.00    +0.065 A 
ATOM     25  C   UNL     1      -5.567  -8.564  -9.615  0.00  0.00    +0.167 A 
ATOM     26  C   UNL     1      -4.699  -9.537 -10.120  0.00  0.00    +0.168 A 
ATOM     27  C   UNL     1      -3.676 -10.041  -9.332  0.00  0.00    +0.076 A 
ATOM     28  C   UNL     1      -3.513  -9.580  -8.037  0.00  0.00    +0.057 A 
ATOM     29  N   UNL     1      -2.501 -10.062  -7.217  0.00  0.00    -0.334 N 
ATOM     30  H   UNL     1      -1.891 -10.738  -7.553  0.00  0.00    +0.168 HD
ATOM     31  C   UNL     1      -2.355  -9.598  -5.964  0.00  0.00    +0.161 A 
ATOM     32  S   UNL     1      -1.085 -10.223  -5.001  0.00  0.00    -0.013 S 
ATOM     33  O   UNL     1      -5.066  -9.821 -11.403  0.00  0.00    -0.453 OA
ATOM     34  C   UNL     1      -6.408  -9.320 -11.541  0.00  0.00    +0.466 C 
ATOM     35  O   UNL     1      -6.473  -8.244 -10.586  0.00  0.00    -0.453 OA
ENDBRANCH  19  20
ENDBRANCH   1  19
TORSDOF 7
