REMARK  Name = ZINC16447792
REMARK  16 active torsions:
REMARK  status: ('A' for Active; 'I' for Inactive)
REMARK    1  A    between atoms: C_1  and  C_2
REMARK    2  A    between atoms: C_4  and  C_10
REMARK    3  A    between atoms: C_5  and  O_9
REMARK    4  A    between atoms: C_7  and  C_8
REMARK    5  A    between atoms: N_18  and  C_35
REMARK    6  A    between atoms: C_19  and  C_21
REMARK    7  A    between atoms: C_24  and  O_29
REMARK    8  A    between atoms: C_25  and  O_27
REMARK    9  A    between atoms: O_27  and  C_28
REMARK   10  A    between atoms: O_29  and  C_30
REMARK   11  A    between atoms: C_30  and  C_31
REMARK   12  A    between atoms: C_31  and  C_32
REMARK   13  A    between atoms: C_32  and  C_33
REMARK   14  A    between atoms: C_32  and  C_34
REMARK   15  A    between atoms: C_35  and  C_36
REMARK   16  A    between atoms: C_36  and  O_37
REMARK                            x       y       z     vdW  Elec       q    Type
REMARK                         _______ _______ _______ _____ _____    ______ ____
ROOT
ATOM      1  C   UNL     1       0.541  -2.883  -2.459  0.00  0.00    +0.102 A 
ATOM      2  C   UNL     1       0.368  -4.260  -2.633  0.00  0.00    +0.035 A 
ATOM      3  C   UNL     1       0.639  -4.508  -3.965  0.00  0.00    +0.126 A 
ATOM      4  N   UNL     1       0.955  -3.300  -4.520  0.00  0.00    -0.272 N 
ATOM      5  H   UNL     1       1.193  -3.159  -5.449  0.00  0.00    +0.189 HD
ATOM      6  N   UNL     1       0.886  -2.378  -3.627  0.00  0.00    -0.173 NA
ATOM      7  C   UNL     1       0.474  -5.944  -4.215  0.00  0.00    +0.266 C 
ATOM      8  O   UNL     1       0.641  -6.485  -5.292  0.00  0.00    -0.268 OA
ATOM      9  N   UNL     1       0.113  -6.578  -3.085  0.00  0.00    -0.283 N 
ATOM     10  C   UNL     1       0.018  -5.583  -2.009  0.00  0.00    +0.141 C 
ENDROOT
BRANCH   1  14
ATOM     11  C   UNL     1      -2.047  -2.003   1.718  0.00  0.00    +0.044 C 
ATOM     12  C   UNL     1      -0.878  -1.702   0.817  0.00  0.00    -0.047 A 
ATOM     13  C   UNL     1      -0.717  -2.406  -0.360  0.00  0.00    +0.017 A 
ATOM     14  C   UNL     1       0.363  -2.128  -1.194  0.00  0.00    +0.044 A 
ATOM     15  C   UNL     1       1.280  -1.136  -0.833  0.00  0.00    +0.126 A 
ATOM     16  C   UNL     1       1.106  -0.437   0.350  0.00  0.00    +0.049 A 
ATOM     17  C   UNL     1       0.027  -0.717   1.168  0.00  0.00    -0.044 A 
ATOM     18  C   UNL     1      -0.160   0.052   2.451  0.00  0.00    +0.044 C 
BRANCH  15  19
ATOM     19  O   UNL     1       2.337  -0.859  -1.640  0.00  0.00    -0.506 OA
ATOM     20  H   UNL     1       2.184  -0.123  -2.249  0.00  0.00    +0.292 HD
ENDBRANCH  15  19
ENDBRANCH   1  14
BRANCH  10  21
ATOM     21  C   UNL     1       0.994  -5.913  -0.910  0.00  0.00    -0.019 A 
ATOM     22  C   UNL     1       2.348  -5.970  -1.184  0.00  0.00    +0.009 A 
ATOM     23  C   UNL     1       3.248  -6.271  -0.178  0.00  0.00    +0.050 A 
ATOM     24  C   UNL     1       2.793  -6.517   1.107  0.00  0.00    +0.162 A 
ATOM     25  C   UNL     1       1.431  -6.460   1.383  0.00  0.00    +0.162 A 
ATOM     26  C   UNL     1       0.535  -6.152   0.372  0.00  0.00    +0.055 A 
BRANCH  25  27
ATOM     27  O   UNL     1       0.980  -6.700   2.643  0.00  0.00    -0.491 OA
ATOM     28  C   UNL     1      -0.432  -6.623   2.853  0.00  0.00    +0.277 C 
ENDBRANCH  25  27
BRANCH  24  29
ATOM     29  O   UNL     1       3.677  -6.815   2.097  0.00  0.00    -0.488 OA
BRANCH  29  30
ATOM     30  C   UNL     1       5.061  -6.857   1.741  0.00  0.00    +0.229 C 
BRANCH  30  31
ATOM     31  C   UNL     1       5.895  -7.204   2.975  0.00  0.00    +0.044 C 
BRANCH  31  32
ATOM     32  C   UNL     1       7.376  -7.250   2.594  0.00  0.00    -0.014 C 
ATOM     33  C   UNL     1       7.837  -5.852   2.174  0.00  0.00    +0.007 C 
ATOM     34  C   UNL     1       8.198  -7.718   3.796  0.00  0.00    +0.007 C 
ENDBRANCH  31  32
ENDBRANCH  30  31
ENDBRANCH  29  30
ENDBRANCH  24  29
ENDBRANCH  10  21
BRANCH   9  35
ATOM     35  C   UNL     1      -0.142  -8.015  -2.951  0.00  0.00    +0.137 C 
BRANCH  35  36
ATOM     36  C   UNL     1       1.184  -8.752  -2.758  0.00  0.00    +0.175 C 
BRANCH  36  37
ATOM     37  O   UNL     1       1.728  -8.427  -1.477  0.00  0.00    -0.393 OA
ATOM     38  H   UNL     1       2.571  -8.861  -1.286  0.00  0.00    +0.209 HD
ENDBRANCH  36  37
ENDBRANCH  35  36
ENDBRANCH   9  35
TORSDOF 11
