REMARK  Name = ZINC06198466
REMARK  17 active torsions:
REMARK  status: ('A' for Active; 'I' for Inactive)
REMARK    1  A    between atoms: C_1  and  N_71
REMARK    2  A    between atoms: C_2  and  N_71
REMARK    3  A    between atoms: C_3  and  C_4
REMARK    4  A    between atoms: C_3  and  N_71
REMARK    5  A    between atoms: C_4  and  C_5
REMARK    6  A    between atoms: C_5  and  N_6
REMARK    7  A    between atoms: N_6  and  C_7
REMARK    8  A    between atoms: N_6  and  C_23
REMARK    9  A    between atoms: C_7  and  C_8
REMARK   10  A    between atoms: C_23  and  N_25
REMARK   11  A    between atoms: N_25  and  C_26
REMARK   12  A    between atoms: C_26  and  C_27
REMARK   13  A    between atoms: C_27  and  C_28
REMARK   14  A    between atoms: C_31  and  O_36
REMARK   15  A    between atoms: C_32  and  O_34
REMARK   16  A    between atoms: O_34  and  C_35
REMARK   17  A    between atoms: O_36  and  C_37
REMARK                            x       y       z     vdW  Elec       q    Type
REMARK                         _______ _______ _______ _____ _____    ______ ____
ROOT
ATOM      1  N   UNL     1      -0.995   1.764  -3.547  0.00  0.00    -0.308 N 
ENDROOT
BRANCH   1   2
ATOM      2  C   UNL     1      -0.428   1.335  -2.403  0.00  0.00    +0.133 C 
ATOM      3  S   UNL     1       0.952   0.324  -2.458  0.00  0.00    -0.019 S 
BRANCH   2   4
ATOM      4  N   UNL     1      -0.947   1.703  -1.214  0.00  0.00    -0.326 N 
ATOM      5  H   UNL     1      -1.728   2.276  -1.183  0.00  0.00    +0.148 HD
BRANCH   4   6
ATOM      6  C   UNL     1      -0.330   1.237   0.030  0.00  0.00    +0.108 C 
BRANCH   6   7
ATOM      7  C   UNL     1      -1.107   1.794   1.224  0.00  0.00    +0.054 C 
BRANCH   7   8
ATOM      8  C   UNL     1      -0.472   1.314   2.505  0.00  0.00    -0.042 A 
ATOM      9  C   UNL     1      -0.894   0.131   3.083  0.00  0.00    +0.007 A 
ATOM     10  C   UNL     1      -0.311  -0.316   4.254  0.00  0.00    +0.049 A 
ATOM     11  C   UNL     1       0.691   0.428   4.857  0.00  0.00    +0.161 A 
ATOM     12  C   UNL     1       1.111   1.621   4.278  0.00  0.00    +0.162 A 
ATOM     13  C   UNL     1       0.527   2.061   3.101  0.00  0.00    +0.053 A 
BRANCH  12  14
ATOM     14  O   UNL     1       2.095   2.354   4.865  0.00  0.00    -0.491 OA
ATOM     15  C   UNL     1       2.476   3.568   4.215  0.00  0.00    +0.277 C 
ENDBRANCH  12  14
BRANCH  11  16
ATOM     16  O   UNL     1       1.262  -0.008   6.011  0.00  0.00    -0.491 OA
ATOM     17  C   UNL     1       0.779  -1.242   6.548  0.00  0.00    +0.277 C 
ENDBRANCH  11  16
ENDBRANCH   7   8
ENDBRANCH   6   7
ENDBRANCH   4   6
ENDBRANCH   2   4
ENDBRANCH   1   2
BRANCH   1  18
ATOM     18  C   UNL     1      -2.240   2.536  -3.503  0.00  0.00    +0.105 C 
BRANCH  18  19
ATOM     19  C   UNL     1      -1.911   4.028  -3.408  0.00  0.00    +0.000 C 
BRANCH  19  20
ATOM     20  C   UNL     1      -3.211   4.834  -3.362  0.00  0.00    -0.078 C 
BRANCH  20  23
ATOM     21  C   UNL     1      -2.234   6.739  -4.493  0.00  0.00    -0.097 C 
ATOM     22  C   UNL     1      -4.103   7.053  -2.986  0.00  0.00    -0.097 C 
ATOM     23  N   UNL     1      -2.877   6.269  -3.248  0.00  0.00    +0.376 N 
ATOM     24  H   UNL     1      -2.225   6.399  -2.466  0.00  0.00    -0.083 HD
ENDBRANCH  20  23
ENDBRANCH  19  20
ENDBRANCH  18  19
ENDBRANCH   1  18
BRANCH   1  25
ATOM     25  C   UNL     1      -0.368   1.458  -4.835  0.00  0.00    +0.147 C 
BRANCH  25  26
ATOM     26  C   UNL     1      -0.991   0.214  -5.415  0.00  0.00    +0.035 A 
ATOM     27  C   UNL     1      -0.412  -0.995  -5.199  0.00  0.00    +0.020 A 
ATOM     28  C   UNL     1      -1.041  -2.183  -5.774  0.00  0.00    +0.003 A 
ATOM     29  C   UNL     1      -0.490  -3.456  -5.583  0.00  0.00    +0.059 A 
ATOM     30  C   UNL     1      -1.105  -4.557  -6.136  0.00  0.00    +0.167 A 
ATOM     31  C   UNL     1      -2.278  -4.407  -6.887  0.00  0.00    +0.168 A 
ATOM     32  C   UNL     1      -2.829  -3.154  -7.080  0.00  0.00    +0.075 A 
ATOM     33  C   UNL     1      -2.221  -2.034  -6.529  0.00  0.00    +0.053 A 
ATOM     34  N   UNL     1      -2.758  -0.775  -6.711  0.00  0.00    -0.322 N 
ATOM     35  H   UNL     1      -3.594  -0.670  -7.250  0.00  0.00    +0.169 HD
ATOM     36  C   UNL     1      -2.175   0.310  -6.173  0.00  0.00    +0.254 A 
ATOM     37  O   UNL     1      -2.681   1.405  -6.350  0.00  0.00    -0.268 OA
ATOM     38  O   UNL     1      -2.678  -5.639  -7.315  0.00  0.00    -0.453 OA
ATOM     39  C   UNL     1      -1.979  -6.583  -6.482  0.00  0.00    +0.466 C 
ATOM     40  O   UNL     1      -0.780  -5.884  -6.100  0.00  0.00    -0.453 OA
ENDBRANCH  25  26
ENDBRANCH   1  25
TORSDOF 13
