REMARK  Name = ZINC36202740
REMARK  14 active torsions:
REMARK  status: ('A' for Active; 'I' for Inactive)
REMARK    1  A    between atoms: C_1  and  O_2
REMARK    2  A    between atoms: O_2  and  C_3
REMARK    3  A    between atoms: C_6  and  C_9
REMARK    4  A    between atoms: C_9  and  C_10
REMARK    5  A    between atoms: C_9  and  C_18
REMARK    6  A    between atoms: C_9  and  O_38
REMARK    7  A    between atoms: C_13  and  O_16
REMARK    8  A    between atoms: O_16  and  C_17
REMARK    9  A    between atoms: C_21  and  C_23
REMARK   10  A    between atoms: C_23  and  N_24
REMARK   11  A    between atoms: N_24  and  C_25
REMARK   12  A    between atoms: N_24  and  C_31
REMARK   13  A    between atoms: C_25  and  C_26
REMARK   14  A    between atoms: C_31  and  C_32
REMARK                            x       y       z     vdW  Elec       q    Type
REMARK                         _______ _______ _______ _____ _____    ______ ____
ROOT
ATOM      1  C   UNL     1      -4.903  -2.325   1.487  0.00  0.00    +0.146 A 
ATOM      2  C   UNL     1      -6.242  -2.224   1.421  0.00  0.00    +0.048 A 
ATOM      3  C   UNL     1      -6.765  -3.003   2.479  0.00  0.00    +0.043 A 
ATOM      4  C   UNL     1      -5.713  -3.533   3.129  0.00  0.00    +0.089 A 
ATOM      5  O   UNL     1      -4.588  -3.124   2.520  0.00  0.00    -0.463 OA
ENDROOT
BRANCH   1   6
ATOM      6  C   UNL     1      -3.922  -1.660   0.556  0.00  0.00    +0.174 C 
BRANCH   6  10
ATOM      7  C   UNL     1      -0.280  -0.875   2.650  0.00  0.00    +0.120 A 
ATOM      8  C   UNL     1      -1.089   0.176   2.244  0.00  0.00    +0.046 A 
ATOM      9  C   UNL     1      -2.265  -0.080   1.568  0.00  0.00    +0.011 A 
ATOM     10  C   UNL     1      -2.637  -1.383   1.294  0.00  0.00    -0.004 A 
ATOM     11  C   UNL     1      -1.833  -2.433   1.698  0.00  0.00    +0.011 A 
ATOM     12  C   UNL     1      -0.653  -2.182   2.370  0.00  0.00    +0.046 A 
BRANCH   7  14
ATOM     13  C   UNL     1       1.199   0.743   3.570  0.00  0.00    +0.277 C 
ATOM     14  O   UNL     1       0.878  -0.626   3.316  0.00  0.00    -0.495 OA
ENDBRANCH   7  14
ENDBRANCH   6  10
BRANCH   6  15
ATOM     15  C   UNL     1      -3.643  -2.569  -0.613  0.00  0.00    -0.004 A 
ATOM     16  C   UNL     1      -3.525  -3.932  -0.415  0.00  0.00    +0.011 A 
ATOM     17  C   UNL     1      -3.269  -4.767  -1.485  0.00  0.00    +0.046 A 
ATOM     18  C   UNL     1      -3.132  -4.237  -2.760  0.00  0.00    +0.120 A 
ATOM     19  C   UNL     1      -3.252  -2.869  -2.956  0.00  0.00    +0.046 A 
ATOM     20  C   UNL     1      -3.513  -2.039  -1.883  0.00  0.00    +0.011 A 
BRANCH  18  21
ATOM     21  O   UNL     1      -2.881  -5.057  -3.814  0.00  0.00    -0.495 OA
ATOM     22  C   UNL     1      -2.752  -4.442  -5.098  0.00  0.00    +0.277 C 
ENDBRANCH  18  21
ENDBRANCH   6  15
BRANCH   6  23
ATOM     23  O   UNL     1      -4.473  -0.430   0.083  0.00  0.00    -0.372 OA
ATOM     24  H   UNL     1      -4.678   0.205   0.783  0.00  0.00    +0.212 HD
ENDBRANCH   6  23
ENDBRANCH   1   6
BRANCH   4  25
ATOM     25  C   UNL     1      -5.785  -4.438   4.332  0.00  0.00    -0.003 C 
BRANCH  25  26
ATOM     26  N   UNL     1      -5.851  -5.837   3.889  0.00  0.00    +0.389 N 
ATOM     27  H   UNL     1      -6.637  -5.956   3.267  0.00  0.00    -0.081 HD
BRANCH  26  28
ATOM     28  C   UNL     1      -6.014  -6.713   5.057  0.00  0.00    -0.042 C 
BRANCH  28  29
ATOM     29  C   UNL     1      -6.171  -8.139   4.598  0.00  0.00    -0.057 A 
ATOM     30  C   UNL     1      -7.407  -8.618   4.206  0.00  0.00    +0.009 A 
ATOM     31  C   UNL     1      -7.514  -9.906   3.797  0.00  0.00    +0.045 A 
ATOM     32  S   UNL     1      -5.833 -10.486   3.961  0.00  0.00    -0.105 S 
ATOM     33  C   UNL     1      -5.101  -8.970   4.557  0.00  0.00    +0.047 A 
ENDBRANCH  28  29
ENDBRANCH  26  28
BRANCH  26  34
ATOM     34  C   UNL     1      -4.611  -6.186   3.184  0.00  0.00    -0.046 C 
BRANCH  34  35
ATOM     35  C   UNL     1      -3.439  -6.157   4.168  0.00  0.00    +0.102 C 
ATOM     36  C   UNL     1      -2.134  -6.605   3.463  0.00  0.00    +0.032 C 
ATOM     37  C   UNL     1      -1.066  -5.911   4.352  0.00  0.00    +0.030 C 
ATOM     38  C   UNL     1      -1.779  -4.604   4.760  0.00  0.00    +0.160 C 
ATOM     39  O   UNL     1      -3.189  -4.812   4.606  0.00  0.00    -0.378 OA
ENDBRANCH  34  35
ENDBRANCH  26  34
ENDBRANCH  25  26
ENDBRANCH   4  25
TORSDOF 12
