REMARK  Name = ZINC10334160
REMARK  8 active torsions:
REMARK  status: ('A' for Active; 'I' for Inactive)
REMARK    1  A    between atoms: C_1  and  C_2
REMARK    2  A    between atoms: C_6  and  N_9
REMARK    3  A    between atoms: C_7  and  C_8
REMARK    4  A    between atoms: C_10  and  C_12
REMARK    5  A    between atoms: N_14  and  C_15
REMARK    6  A    between atoms: C_15  and  C_16
REMARK    7  A    between atoms: C_16  and  C_18
REMARK    8  A    between atoms: C_16  and  N_60
REMARK                            x       y       z     vdW  Elec       q    Type
REMARK                         _______ _______ _______ _____ _____    ______ ____
ROOT
ATOM      1  C   UNL     1      -1.244   7.648  -0.404  0.00  0.00    +0.094 C 
ENDROOT
BRANCH   1   4
ATOM      2  C   UNL     1      -0.220   5.448  -0.179  0.00  0.00    +0.299 C 
ATOM      3  O   UNL     1       0.868   5.980  -0.245  0.00  0.00    -0.265 OA
ATOM      4  N   UNL     1      -1.340   6.194  -0.248  0.00  0.00    -0.309 N 
ATOM      5  H   UNL     1      -2.211   5.769  -0.196  0.00  0.00    +0.149 HD
BRANCH   2   7
ATOM      6  N   UNL     1       0.801   3.220   0.049  0.00  0.00    -0.278 N 
ATOM      7  C   UNL     1      -0.319   3.966  -0.021  0.00  0.00    +0.303 C 
ATOM      8  O   UNL     1      -1.408   3.434   0.045  0.00  0.00    -0.265 OA
ATOM      9  H   UNL     1       1.670   3.651   0.084  0.00  0.00    +0.155 HD
BRANCH   6  15
ATOM     10  C   UNL     1       2.746  -1.126   1.271  0.00  0.00    +0.044 C 
ATOM     11  C   UNL     1       1.640  -0.307   0.656  0.00  0.00    -0.046 A 
ATOM     12  C   UNL     1       0.534  -0.935   0.113  0.00  0.00    +0.004 A 
ATOM     13  C   UNL     1      -0.482  -0.188  -0.452  0.00  0.00    +0.002 A 
ATOM     14  C   UNL     1      -0.397   1.191  -0.474  0.00  0.00    +0.023 A 
ATOM     15  C   UNL     1       0.712   1.825   0.070  0.00  0.00    +0.037 A 
ATOM     16  C   UNL     1       1.732   1.071   0.637  0.00  0.00    -0.026 A 
ATOM     17  C   UNL     1       2.937   1.755   1.230  0.00  0.00    +0.046 C 
ENDBRANCH   6  15
ENDBRANCH   2   7
ENDBRANCH   1   4
BRANCH   1  18
ATOM     18  C   UNL     1      -2.643   8.262  -0.331  0.00  0.00    -0.020 C 
BRANCH  18  19
ATOM     19  C   UNL     1      -2.546   9.754  -0.518  0.00  0.00    -0.052 A 
ATOM     20  C   UNL     1      -2.827  10.311  -1.729  0.00  0.00    +0.003 A 
ATOM     21  C   UNL     1      -2.743  11.689  -1.921  0.00  0.00    +0.001 A 
ATOM     22  C   UNL     1      -2.379  12.518  -0.905  0.00  0.00    +0.008 A 
ATOM     23  C   UNL     1      -2.082  11.980   0.359  0.00  0.00    -0.018 A 
ATOM     24  C   UNL     1      -2.172  10.579   0.556  0.00  0.00    -0.016 A 
ATOM     25  C   UNL     1      -1.881  10.041   1.821  0.00  0.00    +0.009 A 
ATOM     26  C   UNL     1      -1.522  10.870   2.839  0.00  0.00    +0.001 A 
ATOM     27  C   UNL     1      -1.439  12.248   2.646  0.00  0.00    +0.001 A 
ATOM     28  C   UNL     1      -1.703  12.804   1.432  0.00  0.00    +0.008 A 
ENDBRANCH  18  19
BRANCH  18  33
ATOM     29  C   UNL     1      -4.741   8.467  -1.550  0.00  0.00    -0.078 C 
ATOM     30  C   UNL     1      -5.216   8.082  -2.973  0.00  0.00    -0.020 C 
ATOM     31  C   UNL     1      -3.891   7.983  -3.764  0.00  0.00    -0.020 C 
ATOM     32  C   UNL     1      -2.804   7.748  -2.700  0.00  0.00    -0.078 C 
ATOM     33  N   UNL     1      -3.499   7.690  -1.413  0.00  0.00    +0.385 N 
ATOM     34  H   UNL     1      -3.723   6.714  -1.184  0.00  0.00    -0.081 HD
ENDBRANCH  18  33
ENDBRANCH   1  18
TORSDOF 6
