REMARK  Name = ZINC63572145
REMARK  5 active torsions:
REMARK  status: ('A' for Active; 'I' for Inactive)
REMARK    1  A    between atoms: C_1  and  C_2
REMARK    2  A    between atoms: C_7  and  N_8
REMARK    3  A    between atoms: C_24  and  C_26
REMARK    4  A    between atoms: C_29  and  O_32
REMARK    5  A    between atoms: O_32  and  C_33
REMARK                            x       y       z     vdW  Elec       q    Type
REMARK                         _______ _______ _______ _____ _____    ______ ____
ROOT
ATOM      1  N   UNL     1      -1.741  -0.273   2.744  0.00  0.00    -0.269 N 
ATOM      2  C   UNL     1      -1.222  -0.871   3.834  0.00  0.00    +0.307 C 
ATOM      3  O   UNL     1      -1.110  -2.081   3.869  0.00  0.00    -0.252 OA
ATOM      4  N   UNL     1      -0.827  -0.127   4.887  0.00  0.00    -0.276 N 
ATOM      5  C   UNL     1      -1.099   1.314   4.899  0.00  0.00    +0.114 C 
ATOM      6  C   UNL     1       0.226   2.084   5.048  0.00  0.00    +0.052 C 
ATOM      7  C   UNL     1       1.005   1.397   6.142  0.00  0.00    -0.035 C 
ATOM      8  C   UNL     1       1.582   1.871   7.239  0.00  0.00    +0.001 A 
ATOM      9  C   UNL     1       1.767   3.245   7.733  0.00  0.00    +0.030 A 
ATOM     10  C   UNL     1       2.399   3.372   8.931  0.00  0.00    +0.042 A 
ATOM     11  C   UNL     1       2.859   2.281   9.677  0.00  0.00    +0.022 A 
ATOM     12  C   UNL     1       2.738   0.985   9.295  0.00  0.00    +0.027 A 
ATOM     13  C   UNL     1       2.098   0.725   8.048  0.00  0.00    +0.043 A 
ATOM     14  N   UNL     1       1.873  -0.400   7.437  0.00  0.00    -0.375 N 
ATOM     15  C   UNL     1       1.247  -0.108   6.147  0.00  0.00    +0.131 C 
ATOM     16  C   UNL     1      -0.133  -0.771   6.014  0.00  0.00    +0.134 C 
ATOM     17 CL   UNL     1       2.647   4.968   9.566  0.00  0.00    -0.084 Cl
ATOM     18  H   UNL     1      -1.757   0.695   2.682  0.00  0.00    +0.156 HD
ATOM     19  H   UNL     1       2.084  -1.284   7.778  0.00  0.00    +0.160 HD
ENDROOT
BRANCH   1  26
ATOM     20  C   UNL     1      -3.797   0.846   1.126  0.00  0.00    +0.045 C 
ATOM     21  C   UNL     1      -3.261  -0.542   0.886  0.00  0.00    -0.029 A 
ATOM     22  C   UNL     1      -3.764  -1.308  -0.147  0.00  0.00    +0.005 A 
ATOM     23  C   UNL     1      -3.273  -2.581  -0.369  0.00  0.00    +0.000 A 
ATOM     24  C   UNL     1      -2.277  -3.092   0.444  0.00  0.00    +0.002 A 
ATOM     25  C   UNL     1      -1.770  -2.331   1.478  0.00  0.00    +0.023 A 
ATOM     26  C   UNL     1      -2.257  -1.049   1.700  0.00  0.00    +0.038 A 
ENDBRANCH   1  26
BRANCH  16  27
ATOM     27  C   UNL     1       0.029  -2.243   5.739  0.00  0.00    -0.024 A 
ATOM     28  C   UNL     1       0.814  -2.666   4.681  0.00  0.00    +0.009 A 
ATOM     29  C   UNL     1       0.964  -4.015   4.427  0.00  0.00    +0.046 A 
ATOM     30  C   UNL     1       0.328  -4.947   5.234  0.00  0.00    +0.120 A 
ATOM     31  C   UNL     1      -0.458  -4.521   6.295  0.00  0.00    +0.046 A 
ATOM     32  C   UNL     1      -0.601  -3.170   6.548  0.00  0.00    +0.009 A 
BRANCH  30  33
ATOM     33  O   UNL     1       0.474  -6.275   4.986  0.00  0.00    -0.495 OA
ATOM     34  C   UNL     1      -0.210  -7.177   5.858  0.00  0.00    +0.277 C 
ENDBRANCH  30  33
ENDBRANCH  16  27
TORSDOF 3
