REMARK  Name = ZINC37789559
REMARK  7 active torsions:
REMARK  status: ('A' for Active; 'I' for Inactive)
REMARK    1  A    between atoms: C_1  and  C_2
REMARK    2  A    between atoms: C_3  and  N_11
REMARK    3  A    between atoms: C_4  and  C_10
REMARK    4  A    between atoms: N_5  and  C_7
REMARK    5  A    between atoms: C_7  and  C_8
REMARK    6  A    between atoms: C_7  and  C_9
REMARK    7  A    between atoms: N_11  and  C_12
REMARK                            x       y       z     vdW  Elec       q    Type
REMARK                         _______ _______ _______ _____ _____    ______ ____
ROOT
ATOM      1  C   UNL     1      -0.939  -0.066   0.549  0.00  0.00    +0.069 C 
ATOM      2  C   UNL     1      -1.529  -1.043  -0.436  0.00  0.00    +0.081 A 
ATOM      3  C   UNL     1      -1.180  -1.155  -1.789  0.00  0.00    +0.072 A 
ATOM      4  C   UNL     1      -1.931  -2.145  -2.333  0.00  0.00    +0.058 A 
ATOM      5  N   UNL     1      -2.728  -2.641  -1.349  0.00  0.00    -0.264 N 
ATOM      6  N   UNL     1      -2.449  -1.935  -0.172  0.00  0.00    -0.174 NA
ATOM      7  C   UNL     1      -1.889  -2.611  -3.765  0.00  0.00    +0.067 C 
ENDROOT
BRANCH   5   8
ATOM      8  C   UNL     1      -3.702  -3.726  -1.493  0.00  0.00    +0.101 C 
ATOM      9  C   UNL     1      -3.332  -4.873  -0.550  0.00  0.00    +0.032 C 
ATOM     10  C   UNL     1      -5.099  -3.208  -1.143  0.00  0.00    +0.032 C 
ENDBRANCH   5   8
BRANCH   3  11
ATOM     11  N   UNL     1      -0.220  -0.376  -2.465  0.00  0.00    -0.330 N 
ATOM     12  H   UNL     1       0.618  -0.776  -2.746  0.00  0.00    +0.147 HD
BRANCH  11  13
ATOM     13  C   UNL     1      -0.487   1.037  -2.743  0.00  0.00    +0.166 C 
ATOM     14  C   UNL     1      -1.250   1.193  -4.074  0.00  0.00    +0.127 C 
ATOM     15  C   UNL     1      -0.309   2.014  -4.929  0.00  0.00    +0.221 C 
ATOM     16  O   UNL     1      -0.523   2.369  -6.068  0.00  0.00    -0.275 OA
ATOM     17  N   UNL     1       0.798   2.286  -4.227  0.00  0.00    -0.255 N 
ATOM     18  C   UNL     1       0.805   1.787  -2.981  0.00  0.00    +0.240 C 
ATOM     19  O   UNL     1       1.702   1.913  -2.175  0.00  0.00    -0.273 OA
ATOM     20  H   UNL     1       1.535   2.804  -4.588  0.00  0.00    +0.158 HD
ENDBRANCH  11  13
ENDBRANCH   3  11
TORSDOF 3
