REMARK  Name = ZINC34388570
REMARK  7 active torsions:
REMARK  status: ('A' for Active; 'I' for Inactive)
REMARK    1  A    between atoms: C_1  and  O_2
REMARK    2  A    between atoms: O_2  and  C_3
REMARK    3  A    between atoms: C_6  and  N_9
REMARK    4  A    between atoms: C_10  and  C_12
REMARK    5  A    between atoms: C_12  and  N_13
REMARK    6  A    between atoms: N_24  and  C_28
REMARK    7  A    between atoms: C_28  and  C_29
REMARK                            x       y       z     vdW  Elec       q    Type
REMARK                         _______ _______ _______ _____ _____    ______ ____
ROOT
ATOM      1  N   UNL     1      -6.071  -6.064  -0.272  0.00  0.00    -0.258 N 
ATOM      2  C   UNL     1      -5.909  -6.751  -1.470  0.00  0.00    +0.045 A 
ATOM      3  C   UNL     1      -5.899  -6.317  -2.790  0.00  0.00    +0.024 A 
ATOM      4  C   UNL     1      -5.716  -7.222  -3.816  0.00  0.00    +0.002 A 
ATOM      5  C   UNL     1      -5.540  -8.569  -3.547  0.00  0.00    +0.001 A 
ATOM      6  C   UNL     1      -5.548  -9.021  -2.243  0.00  0.00    +0.010 A 
ATOM      7  C   UNL     1      -5.731  -8.116  -1.200  0.00  0.00    +0.010 A 
ATOM      8  C   UNL     1      -5.790  -8.263   0.269  0.00  0.00    +0.065 C 
ATOM      9  C   UNL     1      -5.665  -9.427   1.003  0.00  0.00    +0.089 C 
ATOM     10  C   UNL     1      -5.722  -9.630   2.477  0.00  0.00    +0.259 C 
ATOM     11  O   UNL     1      -5.901  -8.706   3.245  0.00  0.00    -0.269 OA
ATOM     12  N   UNL     1      -5.568 -10.873   2.903  0.00  0.00    -0.253 N 
ATOM     13  C   UNL     1      -5.370 -11.895   2.046  0.00  0.00    +0.121 C 
ATOM     14  S   UNL     1      -5.152 -13.554   2.406  0.00  0.00    -0.027 S 
ATOM     15  S   UNL     1      -5.398 -11.104   0.445  0.00  0.00    -0.060 S 
ATOM     16  C   UNL     1      -6.005  -6.895   0.782  0.00  0.00    +0.253 C 
ATOM     17  O   UNL     1      -6.108  -6.577   1.952  0.00  0.00    -0.270 OA
ENDROOT
BRANCH   1  18
ATOM     18  C   UNL     1      -6.279  -4.617  -0.172  0.00  0.00    +0.210 C 
BRANCH  18  20
ATOM     19  N   UNL     1      -4.890  -2.581   0.035  0.00  0.00    -0.284 N 
ATOM     20  C   UNL     1      -4.945  -3.924  -0.068  0.00  0.00    +0.235 C 
ATOM     21  O   UNL     1      -3.921  -4.574  -0.076  0.00  0.00    -0.274 OA
ATOM     22  H   UNL     1      -5.708  -2.067   0.119  0.00  0.00    +0.155 HD
BRANCH  19  26
ATOM     23  C   UNL     1      -1.202  -0.636  -0.009  0.00  0.00    +0.120 A 
ATOM     24  C   UNL     1      -1.385  -1.793  -0.752  0.00  0.00    +0.047 A 
ATOM     25  C   UNL     1      -2.606  -2.437  -0.738  0.00  0.00    +0.027 A 
ATOM     26  C   UNL     1      -3.651  -1.928   0.021  0.00  0.00    +0.034 A 
ATOM     27  C   UNL     1      -3.467  -0.770   0.765  0.00  0.00    +0.027 A 
ATOM     28  C   UNL     1      -2.244  -0.129   0.754  0.00  0.00    +0.047 A 
BRANCH  23  30
ATOM     29  C   UNL     1       1.029  -0.579  -0.831  0.00  0.00    +0.277 C 
ATOM     30  O   UNL     1       0.001  -0.002  -0.023  0.00  0.00    -0.495 OA
ENDBRANCH  23  30
ENDBRANCH  19  26
ENDBRANCH  18  20
ENDBRANCH   1  18
BRANCH  12  31
ATOM     31  C   UNL     1      -5.613 -11.146   4.341  0.00  0.00    +0.146 C 
BRANCH  31  32
ATOM     32  C   UNL     1      -7.053 -11.446   4.759  0.00  0.00    +0.136 C 
ATOM     33  C   UNL     1      -7.128 -11.704   6.285  0.00  0.00    +0.035 C 
ATOM     34  C   UNL     1      -8.610 -11.338   6.573  0.00  0.00    +0.031 C 
ATOM     35  C   UNL     1      -8.865 -10.190   5.572  0.00  0.00    +0.160 C 
ATOM     36  O   UNL     1      -7.889 -10.301   4.528  0.00  0.00    -0.375 OA
ENDBRANCH  31  32
ENDBRANCH  12  31
TORSDOF 6
