REMARK  Name = ZINC08820819
REMARK  5 active torsions:
REMARK  status: ('A' for Active; 'I' for Inactive)
REMARK    1  A    between atoms: C_5  and  N_7
REMARK    2  A    between atoms: C_13  and  C_14
REMARK    3  A    between atoms: C_17  and  O_20
REMARK    4  A    between atoms: O_20  and  C_21
REMARK    5  A    between atoms: C_21  and  C_22
REMARK                            x       y       z     vdW  Elec       q    Type
REMARK                         _______ _______ _______ _____ _____    ______ ____
ROOT
ATOM      1  N   UNL     1       0.984  -2.397   1.819  0.00  0.00    -0.223 NA
ATOM      2  C   UNL     1      -0.106  -3.019   1.427  0.00  0.00    +0.166 C 
ATOM      3  N   UNL     1      -0.262  -4.348   1.097  0.00  0.00    -0.260 N 
ATOM      4  C   UNL     1      -1.441  -4.814   0.719  0.00  0.00    +0.256 C 
ATOM      5  O   UNL     1      -1.597  -5.984   0.425  0.00  0.00    -0.269 OA
ATOM      6  C   UNL     1      -2.557  -3.851   0.672  0.00  0.00    +0.078 C 
ATOM      7  C   UNL     1      -3.854  -4.052   0.325  0.00  0.00    +0.028 C 
ATOM      8  S   UNL     1      -1.745  -2.349   1.200  0.00  0.00    -0.049 S 
ATOM      9  H   UNL     1       0.499  -4.947   1.142  0.00  0.00    +0.157 HD
ENDROOT
BRANCH   1  14
ATOM     10  C   UNL     1      -0.107   0.665   3.486  0.00  0.00    +0.002 A 
ATOM     11  C   UNL     1       0.799   1.575   2.971  0.00  0.00    +0.003 A 
ATOM     12  C   UNL     1       1.767   1.164   2.072  0.00  0.00    +0.040 A 
ATOM     13  C   UNL     1       1.835  -0.159   1.683  0.00  0.00    +0.149 A 
ATOM     14  C   UNL     1       0.923  -1.084   2.200  0.00  0.00    +0.102 A 
ATOM     15  C   UNL     1      -0.051  -0.660   3.106  0.00  0.00    +0.031 A 
ATOM     16  F   UNL     1       2.781  -0.559   0.804  0.00  0.00    -0.203 F 
ENDBRANCH   1  14
BRANCH   7  17
ATOM     17  C   UNL     1      -4.764  -2.908   0.190  0.00  0.00    -0.024 A 
ATOM     18  C   UNL     1      -4.250  -1.611   0.070  0.00  0.00    +0.011 A 
ATOM     19  C   UNL     1      -5.108  -0.542  -0.057  0.00  0.00    +0.046 A 
ATOM     20  C   UNL     1      -6.483  -0.748  -0.064  0.00  0.00    +0.121 A 
ATOM     21  C   UNL     1      -6.999  -2.033   0.056  0.00  0.00    +0.046 A 
ATOM     22  C   UNL     1      -6.150  -3.110   0.176  0.00  0.00    +0.011 A 
BRANCH  20  23
ATOM     23  O   UNL     1      -7.324   0.311  -0.188  0.00  0.00    -0.487 OA
BRANCH  23  24
ATOM     24  C   UNL     1      -8.725   0.029  -0.188  0.00  0.00    +0.264 C 
BRANCH  24  25
ATOM     25  C   UNL     1      -9.497   1.315  -0.333  0.00  0.00    -0.010 A 
ATOM     26  C   UNL     1      -9.870   2.028   0.791  0.00  0.00    +0.008 A 
ATOM     27  C   UNL     1     -10.577   3.208   0.658  0.00  0.00    +0.020 A 
ATOM     28  C   UNL     1     -10.912   3.676  -0.600  0.00  0.00    +0.041 A 
ATOM     29  C   UNL     1     -10.538   2.962  -1.725  0.00  0.00    +0.020 A 
ATOM     30  C   UNL     1      -9.826   1.785  -1.591  0.00  0.00    +0.008 A 
ATOM     31 CL   UNL     1     -11.801   5.157  -0.767  0.00  0.00    -0.084 Cl
ENDBRANCH  24  25
ENDBRANCH  23  24
ENDBRANCH  20  23
ENDBRANCH   7  17
TORSDOF 5
