REMARK  Name = ZINC39623589
REMARK  8 active torsions:
REMARK  status: ('A' for Active; 'I' for Inactive)
REMARK    1  A    between atoms: C_4  and  C_7
REMARK    2  A    between atoms: C_7  and  C_8
REMARK    3  A    between atoms: C_8  and  C_9
REMARK    4  A    between atoms: C_9  and  N_10
REMARK    5  A    between atoms: C_11  and  C_13
REMARK    6  A    between atoms: C_24  and  C_26
REMARK    7  A    between atoms: C_26  and  C_27
REMARK    8  A    between atoms: C_27  and  C_28
REMARK                            x       y       z     vdW  Elec       q    Type
REMARK                         _______ _______ _______ _____ _____    ______ ____
ROOT
ATOM      1  C   UNL     1       7.559  -2.856   4.402  0.00  0.00    +0.100 C 
ATOM      2  C   UNL     1       6.492  -3.665   5.173  0.00  0.00    +0.121 C 
ATOM      3  N   UNL     1       6.929  -5.076   5.047  0.00  0.00    -0.300 N 
ATOM      4  C   UNL     1       8.404  -5.019   5.180  0.00  0.00    +0.115 C 
ATOM      5  C   UNL     1       8.813  -3.746   4.412  0.00  0.00    -0.004 C 
ATOM      6  C   UNL     1       9.221  -4.100   2.986  0.00  0.00    -0.010 C 
ATOM      7  C   UNL     1      10.502  -4.938   3.019  0.00  0.00    -0.082 C 
ATOM      8  N   UNL     1      11.570  -4.177   3.680  0.00  0.00    +0.379 N 
ATOM      9  C   UNL     1      11.209  -3.920   5.079  0.00  0.00    -0.082 C 
ATOM     10  C   UNL     1       9.958  -3.040   5.133  0.00  0.00    -0.010 C 
ATOM     11  C   UNL     1       6.158  -6.165   4.854  0.00  0.00    +0.216 C 
ATOM     12  O   UNL     1       6.669  -7.262   4.771  0.00  0.00    -0.276 OA
ATOM     13  H   UNL     1      12.428  -4.706   3.647  0.00  0.00    -0.086 HD
ATOM     14  H   UNL     1      11.700  -3.299   3.201  0.00  0.00    -0.086 HD
ENDROOT
BRANCH   1  16
ATOM     15  N   UNL     1       7.536  -1.510   2.327  0.00  0.00    -0.315 N 
ATOM     16  C   UNL     1       7.106  -2.603   2.988  0.00  0.00    +0.218 C 
ATOM     17  O   UNL     1       6.354  -3.384   2.443  0.00  0.00    -0.275 OA
ATOM     18  H   UNL     1       8.137  -0.886   2.762  0.00  0.00    +0.149 HD
BRANCH  15  19
ATOM     19  C   UNL     1       7.096  -1.265   0.952  0.00  0.00    +0.104 C 
BRANCH  19  20
ATOM     20  C   UNL     1       7.724   0.032   0.438  0.00  0.00    +0.023 C 
BRANCH  20  21
ATOM     21  C   UNL     1       7.264   0.288  -0.998  0.00  0.00    +0.036 C 
BRANCH  21  25
ATOM     22  C   UNL     1       9.018   3.909  -2.433  0.00  0.00    +0.000 A 
ATOM     23  C   UNL     1       9.674   2.706  -2.611  0.00  0.00    +0.000 A 
ATOM     24  C   UNL     1       9.106   1.534  -2.147  0.00  0.00    +0.003 A 
ATOM     25  C   UNL     1       7.883   1.566  -1.504  0.00  0.00    -0.047 A 
ATOM     26  C   UNL     1       7.227   2.770  -1.325  0.00  0.00    +0.003 A 
ATOM     27  C   UNL     1       7.794   3.941  -1.791  0.00  0.00    +0.000 A 
ENDBRANCH  21  25
ENDBRANCH  20  21
ENDBRANCH  19  20
ENDBRANCH  15  19
ENDBRANCH   1  16
BRANCH  11  28
ATOM     28  C   UNL     1       4.662  -6.019   4.742  0.00  0.00    +0.100 C 
BRANCH  28  29
ATOM     29  C   UNL     1       4.031  -7.396   4.527  0.00  0.00    +0.044 C 
BRANCH  29  30
ATOM     30  C   UNL     1       2.535  -7.250   4.415  0.00  0.00    -0.047 A 
ATOM     31  C   UNL     1       1.747  -7.315   5.549  0.00  0.00    +0.003 A 
ATOM     32  C   UNL     1       0.375  -7.182   5.446  0.00  0.00    +0.000 A 
ATOM     33  C   UNL     1      -0.209  -6.983   4.209  0.00  0.00    +0.000 A 
ATOM     34  C   UNL     1       0.579  -6.917   3.075  0.00  0.00    +0.000 A 
ATOM     35  C   UNL     1       1.951  -7.046   3.179  0.00  0.00    +0.003 A 
ENDBRANCH  29  30
ENDBRANCH  28  29
ENDBRANCH  11  28
TORSDOF 8
