REMARK  Name = ZINC39933602
REMARK  9 active torsions:
REMARK  status: ('A' for Active; 'I' for Inactive)
REMARK    1  A    between atoms: C_1  and  C_2
REMARK    2  A    between atoms: C_2  and  C_4
REMARK    3  A    between atoms: C_2  and  S_17
REMARK    4  A    between atoms: N_6  and  C_7
REMARK    5  A    between atoms: C_10  and  S_13
REMARK    6  A    between atoms: S_13  and  N_16
REMARK    7  A    between atoms: S_17  and  C_18
REMARK    8  A    between atoms: C_22  and  C_30
REMARK    9  A    between atoms: N_23  and  C_24
REMARK                            x       y       z     vdW  Elec       q    Type
REMARK                         _______ _______ _______ _____ _____    ______ ____
ROOT
ATOM      1  C   UNL     1       3.568   0.441   0.458  0.00  0.00    +0.242 C 
ATOM      2  N   UNL     1       3.284   0.096  -0.944  0.00  0.00    -0.237 N 
ATOM      3  N   UNL     1       3.400   1.283  -1.677  0.00  0.00    -0.169 NA
ATOM      4  C   UNL     1       3.716   2.289  -0.905  0.00  0.00    +0.151 C 
ATOM      5  N   UNL     1       3.846   1.887   0.430  0.00  0.00    -0.254 N 
ATOM      6  H   UNL     1       3.059  -0.781  -1.292  0.00  0.00    +0.171 HD
ENDROOT
BRANCH   4   7
ATOM      7  C   UNL     1       3.901   3.605  -1.356  0.00  0.00    +0.022 C 
ATOM      8  C   UNL     1       3.696   4.091  -2.648  0.00  0.00    +0.006 A 
ATOM      9  C   UNL     1       3.267   3.473  -3.842  0.00  0.00    +0.010 A 
ATOM     10  C   UNL     1       3.155   4.207  -4.978  0.00  0.00    +0.001 A 
ATOM     11  C   UNL     1       3.455   5.571  -5.000  0.00  0.00    +0.002 A 
ATOM     12  C   UNL     1       3.873   6.229  -3.890  0.00  0.00    +0.026 A 
ATOM     13  C   UNL     1       4.014   5.528  -2.665  0.00  0.00    +0.043 A 
ATOM     14  N   UNL     1       4.395   5.930  -1.469  0.00  0.00    -0.380 N 
ATOM     15  C   UNL     1       4.360   4.795  -0.542  0.00  0.00    +0.152 C 
ATOM     16  H   UNL     1       4.655   6.836  -1.237  0.00  0.00    +0.160 HD
ENDBRANCH   4   7
BRANCH   5  17
ATOM     17  C   UNL     1       4.175   2.696   1.520  0.00  0.00    +0.038 A 
ATOM     18  C   UNL     1       5.399   2.541   2.158  0.00  0.00    +0.023 A 
ATOM     19  C   UNL     1       5.721   3.343   3.236  0.00  0.00    +0.002 A 
ATOM     20  C   UNL     1       4.825   4.298   3.680  0.00  0.00    +0.000 A 
ATOM     21  C   UNL     1       3.605   4.455   3.048  0.00  0.00    +0.002 A 
ATOM     22  C   UNL     1       3.279   3.660   1.966  0.00  0.00    +0.023 A 
ENDBRANCH   5  17
BRANCH   1  23
ATOM     23  S   UNL     1       2.126   0.093   1.503  0.00  0.00    -0.105 S 
BRANCH  23  25
ATOM     24  C   UNL     1       0.839   2.357   0.667  0.00  0.00    +0.029 C 
ATOM     25  C   UNL     1       0.740   0.832   0.597  0.00  0.00    +0.133 C 
BRANCH  25  26
ATOM     26  C   UNL     1      -0.560   0.384   1.214  0.00  0.00    +0.230 C 
ATOM     27  O   UNL     1      -0.592   0.042   2.378  0.00  0.00    -0.274 OA
ATOM     28  N   UNL     1      -1.686   0.362   0.474  0.00  0.00    -0.285 N 
ATOM     29  H   UNL     1      -1.648   0.570  -0.473  0.00  0.00    +0.155 HD
BRANCH  28  30
ATOM     30  C   UNL     1      -2.910   0.040   1.071  0.00  0.00    +0.034 A 
ATOM     31  C   UNL     1      -3.863  -0.678   0.361  0.00  0.00    +0.025 A 
ATOM     32  C   UNL     1      -5.070  -0.995   0.953  0.00  0.00    +0.030 A 
ATOM     33  C   UNL     1      -5.330  -0.597   2.252  0.00  0.00    +0.105 A 
ATOM     34  C   UNL     1      -4.383   0.118   2.962  0.00  0.00    +0.030 A 
ATOM     35  C   UNL     1      -3.171   0.433   2.377  0.00  0.00    +0.025 A 
BRANCH  33  36
ATOM     36  S   UNL     1      -6.871  -1.003   3.004  0.00  0.00    +0.056 S 
ATOM     37  O   UNL     1      -7.084  -0.047   4.033  0.00  0.00    -0.153 OA
ATOM     38  O   UNL     1      -7.798  -1.204   1.946  0.00  0.00    -0.153 OA
BRANCH  36  39
ATOM     39  N   UNL     1      -6.680  -2.469   3.750  0.00  0.00    -0.204 NA
ATOM     40  H   UNL     1      -5.825  -2.926   3.711  0.00  0.00    +0.144 HD
ATOM     41  H   UNL     1      -7.423  -2.870   4.227  0.00  0.00    +0.144 HD
ENDBRANCH  36  39
ENDBRANCH  33  36
ENDBRANCH  28  30
ENDBRANCH  25  26
ENDBRANCH  23  25
ENDBRANCH   1  23
TORSDOF 8
