REMARK  Name = ZINC39352633
REMARK  14 active torsions:
REMARK  status: ('A' for Active; 'I' for Inactive)
REMARK    1  A    between atoms: C_1  and  C_2
REMARK    2  A    between atoms: C_2  and  C_4
REMARK    3  A    between atoms: C_2  and  N_7
REMARK    4  A    between atoms: C_4  and  O_5
REMARK    5  A    between atoms: O_5  and  C_6
REMARK    6  A    between atoms: N_7  and  C_8
REMARK    7  A    between atoms: N_14  and  C_32
REMARK    8  A    between atoms: C_15  and  C_28
REMARK    9  A    between atoms: C_17  and  N_19
REMARK   10  A    between atoms: C_20  and  C_22
REMARK   11  A    between atoms: C_28  and  O_30
REMARK   12  A    between atoms: O_30  and  C_31
REMARK   13  A    between atoms: C_32  and  C_33
REMARK   14  A    between atoms: C_33  and  C_34
REMARK                            x       y       z     vdW  Elec       q    Type
REMARK                         _______ _______ _______ _____ _____    ______ ____
ROOT
ATOM      1  C   UNL     1      -0.020  -0.613  -2.404  0.00  0.00    +0.044 A 
ATOM      2  C   UNL     1       0.618  -1.067  -3.557  0.00  0.00    +0.033 A 
ATOM      3  C   UNL     1      -0.124  -1.185  -4.717  0.00  0.00    +0.015 A 
ATOM      4  C   UNL     1      -1.472  -0.856  -4.717  0.00  0.00    +0.105 A 
ATOM      5  N   UNL     1      -2.043  -0.425  -3.592  0.00  0.00    -0.348 N 
ATOM      6  C   UNL     1      -1.371  -0.305  -2.466  0.00  0.00    +0.107 A 
ATOM      7  N   UNL     1      -2.043  -1.040  -5.974  0.00  0.00    -0.301 N 
ATOM      8  C   UNL     1      -1.037  -1.531  -6.920  0.00  0.00    +0.208 C 
ATOM      9  C   UNL     1       0.263  -1.639  -6.105  0.00  0.00    +0.138 C 
ATOM     10  H   UNL     1      -2.986  -0.198  -3.602  0.00  0.00    +0.167 HD
ENDROOT
BRANCH   9  11
ATOM     11  N   UNL     1       0.736  -3.025  -6.078  0.00  0.00    -0.306 N 
ATOM     12  C   UNL     1       2.031  -3.290  -5.813  0.00  0.00    +0.219 C 
ATOM     13  O   UNL     1       2.804  -2.381  -5.598  0.00  0.00    -0.275 OA
ATOM     14  H   UNL     1       0.118  -3.752  -6.250  0.00  0.00    +0.149 HD
BRANCH  12  15
ATOM     15  C   UNL     1       2.518  -4.716  -5.785  0.00  0.00    +0.103 C 
ATOM     16  C   UNL     1       4.040  -4.763  -5.507  0.00  0.00    +0.043 C 
ATOM     17  C   UNL     1       4.511  -5.883  -6.470  0.00  0.00    +0.160 C 
ATOM     18  O   UNL     1       3.687  -5.691  -7.640  0.00  0.00    -0.379 OA
ATOM     19  C   UNL     1       2.364  -5.366  -7.174  0.00  0.00    +0.172 C 
ENDBRANCH  12  15
ENDBRANCH   9  11
BRANCH   1  20
ATOM     20  N   UNL     1       0.688  -0.476  -1.203  0.00  0.00    -0.338 N 
ATOM     21  H   UNL     1       1.632  -0.695  -1.170  0.00  0.00    +0.146 HD
BRANCH  20  23
ATOM     22  C   UNL     1      -0.019   1.526   0.010  0.00  0.00    +0.030 C 
ATOM     23  C   UNL     1       0.002  -0.004   0.002  0.00  0.00    +0.093 C 
BRANCH  23  24
ATOM     24  C   UNL     1       0.742  -0.511   1.242  0.00  0.00    +0.181 C 
BRANCH  24  25
ATOM     25  O   UNL     1       2.044   0.076   1.292  0.00  0.00    -0.381 OA
ATOM     26  C   UNL     1       2.823  -0.333   2.418  0.00  0.00    +0.194 C 
ENDBRANCH  24  25
ENDBRANCH  23  24
ENDBRANCH  20  23
ENDBRANCH   1  20
BRANCH   8  27
ATOM     27  C   UNL     1      -1.436  -2.883  -7.453  0.00  0.00    +0.330 C 
ATOM     28  O   UNL     1      -2.255  -3.547  -6.864  0.00  0.00    -0.249 OA
BRANCH  27  29
ATOM     29  O   UNL     1      -0.880  -3.349  -8.582  0.00  0.00    -0.467 OA
ATOM     30  C   UNL     1      -1.305  -4.638  -9.030  0.00  0.00    +0.280 C 
ENDBRANCH  27  29
ENDBRANCH   8  27
BRANCH   7  31
ATOM     31  C   UNL     1      -3.447  -0.783  -6.303  0.00  0.00    +0.112 C 
BRANCH  31  32
ATOM     32  C   UNL     1      -3.604   0.666  -6.769  0.00  0.00    +0.056 C 
BRANCH  32  33
ATOM     33  C   UNL     1      -5.048   0.931  -7.107  0.00  0.00    -0.021 A 
ATOM     34  C   UNL     1      -6.105   1.322  -6.171  0.00  0.00    +0.003 A 
ATOM     35  C   UNL     1      -6.144   1.560  -4.796  0.00  0.00    +0.010 A 
ATOM     36  C   UNL     1      -7.321   1.921  -4.203  0.00  0.00    +0.001 A 
ATOM     37  C   UNL     1      -8.479   2.053  -4.957  0.00  0.00    +0.002 A 
ATOM     38  C   UNL     1      -8.463   1.823  -6.315  0.00  0.00    +0.026 A 
ATOM     39  C   UNL     1      -7.276   1.455  -6.940  0.00  0.00    +0.047 A 
ATOM     40  N   UNL     1      -6.941   1.163  -8.243  0.00  0.00    -0.360 N 
ATOM     41  C   UNL     1      -5.609   0.860  -8.325  0.00  0.00    +0.087 A 
ATOM     42  H   UNL     1      -7.557   1.176  -8.993  0.00  0.00    +0.165 HD
ENDBRANCH  32  33
ENDBRANCH  31  32
ENDBRANCH   7  31
TORSDOF 11
