REMARK  Name = ZINC06193573
REMARK  13 active torsions:
REMARK  status: ('A' for Active; 'I' for Inactive)
REMARK    1  A    between atoms: C_1  and  C_2
REMARK    2  A    between atoms: C_2  and  N_70
REMARK    3  A    between atoms: C_3  and  C_4
REMARK    4  A    between atoms: C_3  and  N_70
REMARK    5  A    between atoms: C_10  and  C_12
REMARK    6  A    between atoms: C_10  and  C_26
REMARK    7  A    between atoms: C_10  and  N_70
REMARK    8  A    between atoms: C_15  and  C_25
REMARK    9  A    between atoms: C_17  and  C_24
REMARK   10  A    between atoms: N_30  and  C_31
REMARK   11  A    between atoms: C_31  and  C_32
REMARK   12  A    between atoms: C_35  and  O_38
REMARK   13  A    between atoms: O_38  and  C_39
REMARK                            x       y       z     vdW  Elec       q    Type
REMARK                         _______ _______ _______ _____ _____    ______ ____
ROOT
ATOM      1  C   UNL     1       4.561  -2.789   0.415  0.00  0.00    +0.039 C 
ENDROOT
BRANCH   1   2
ATOM      2  C   UNL     1       3.353  -1.988   0.006  0.00  0.00    +0.011 A 
ATOM      3  C   UNL     1       2.316  -1.842   0.867  0.00  0.00    +0.018 A 
ATOM      4  C   UNL     1       1.156  -1.057   0.439  0.00  0.00    +0.002 A 
ATOM      5  C   UNL     1       0.056  -0.872   1.282  0.00  0.00    -0.041 A 
ATOM      6  C   UNL     1      -1.010  -0.133   0.854  0.00  0.00    +0.007 A 
ATOM      7  C   UNL     1      -1.011   0.436  -0.413  0.00  0.00    -0.048 A 
ATOM      8  C   UNL     1       0.062   0.266  -1.262  0.00  0.00    +0.029 A 
ATOM      9  C   UNL     1       1.159  -0.482  -0.846  0.00  0.00    +0.050 A 
ATOM     10  N   UNL     1       2.245  -0.667  -1.674  0.00  0.00    -0.322 N 
ATOM     11  H   UNL     1       2.246  -0.258  -2.586  0.00  0.00    +0.169 HD
ATOM     12  C   UNL     1       3.305  -1.391  -1.272  0.00  0.00    +0.251 A 
ATOM     13  O   UNL     1       4.249  -1.534  -2.030  0.00  0.00    -0.268 OA
ATOM     14  C   UNL     1      -2.195   1.252  -0.863  0.00  0.00    +0.044 C 
ATOM     15  C   UNL     1       0.046  -1.485   2.659  0.00  0.00    +0.044 C 
ENDBRANCH   1   2
BRANCH   1  16
ATOM     16  C   UNL     1       4.472  -3.118   1.883  0.00  0.00    +0.143 A 
ATOM     17  N   UNL     1       3.749  -4.064   2.431  0.00  0.00    -0.115 NA
ATOM     18  N   UNL     1       3.943  -4.027   3.704  0.00  0.00    -0.023 NA
ATOM     19  N   UNL     1       4.771  -3.081   3.983  0.00  0.00    -0.044 NA
ATOM     20  N   UNL     1       5.124  -2.501   2.886  0.00  0.00    -0.226 N 
BRANCH  20  21
ATOM     21  C   UNL     1       6.057  -1.379   2.757  0.00  0.00    +0.182 C 
BRANCH  21  22
ATOM     22  C   UNL     1       5.291  -0.081   2.798  0.00  0.00    -0.026 A 
ATOM     23  C   UNL     1       4.787   0.460   1.630  0.00  0.00    +0.009 A 
ATOM     24  C   UNL     1       4.079   1.646   1.666  0.00  0.00    +0.046 A 
ATOM     25  C   UNL     1       3.885   2.300   2.874  0.00  0.00    +0.120 A 
ATOM     26  C   UNL     1       4.397   1.758   4.044  0.00  0.00    +0.046 A 
ATOM     27  C   UNL     1       5.099   0.569   4.004  0.00  0.00    +0.009 A 
BRANCH  25  28
ATOM     28  O   UNL     1       3.194   3.470   2.912  0.00  0.00    -0.495 OA
ATOM     29  C   UNL     1       2.696   3.969   1.669  0.00  0.00    +0.277 C 
ENDBRANCH  25  28
ENDBRANCH  21  22
ENDBRANCH  20  21
ENDBRANCH   1  16
BRANCH   1  30
ATOM     30  N   UNL     1       4.620  -4.055  -0.346  0.00  0.00    +0.392 N 
ATOM     31  H   UNL     1       4.962  -4.800   0.272  0.00  0.00    -0.080 HD
BRANCH  30  33
ATOM     32  C   UNL     1       2.457  -4.963   0.344  0.00  0.00    -0.017 C 
ATOM     33  C   UNL     1       3.271  -4.415  -0.830  0.00  0.00    -0.080 C 
ENDBRANCH  30  33
BRANCH  30  34
ATOM     34  C   UNL     1       5.546  -3.915  -1.489  0.00  0.00    -0.042 C 
BRANCH  34  35
ATOM     35  C   UNL     1       6.959  -4.054  -0.984  0.00  0.00    -0.064 A 
ATOM     36  C   UNL     1       7.656  -2.937  -0.564  0.00  0.00    +0.002 A 
ATOM     37  C   UNL     1       8.951  -3.065  -0.096  0.00  0.00    +0.000 A 
ATOM     38  C   UNL     1       9.552  -4.310  -0.058  0.00  0.00    +0.000 A 
ATOM     39  C   UNL     1       8.857  -5.426  -0.484  0.00  0.00    +0.000 A 
ATOM     40  C   UNL     1       7.560  -5.298  -0.947  0.00  0.00    +0.002 A 
ENDBRANCH  34  35
ENDBRANCH  30  34
ENDBRANCH   1  30
TORSDOF 9
