REMARK  Name = ZINC08790886
REMARK  6 active torsions:
REMARK  status: ('A' for Active; 'I' for Inactive)
REMARK    1  A    between atoms: C_1  and  C_2
REMARK    2  A    between atoms: C_13  and  C_15
REMARK    3  A    between atoms: C_15  and  C_16
REMARK    4  A    between atoms: C_19  and  O_22
REMARK    5  A    between atoms: N_25  and  C_28
REMARK    6  A    between atoms: C_28  and  C_29
REMARK                            x       y       z     vdW  Elec       q    Type
REMARK                         _______ _______ _______ _____ _____    ______ ____
ROOT
ATOM      1  C   UNL     1       2.021   2.506   5.012  0.00  0.00    +0.044 C 
ATOM      2  C   UNL     1       2.405   1.888   3.693  0.00  0.00    -0.050 A 
ATOM      3  C   UNL     1       3.546   1.112   3.597  0.00  0.00    +0.005 A 
ATOM      4  C   UNL     1       3.903   0.544   2.392  0.00  0.00    +0.024 A 
ATOM      5  C   UNL     1       3.117   0.749   1.261  0.00  0.00    +0.036 A 
ATOM      6  C   UNL     1       1.971   1.531   1.369  0.00  0.00    -0.027 A 
ATOM      7  C   UNL     1       1.618   2.096   2.574  0.00  0.00    +0.008 A 
ATOM      8  C   UNL     1       1.358   1.552  -0.003  0.00  0.00    +0.050 C 
ATOM      9  C   UNL     1       1.236   2.981  -0.545  0.00  0.00    +0.088 C 
ATOM     10  C   UNL     1      -0.087   2.977  -1.362  0.00  0.00    +0.073 C 
ATOM     11  C   UNL     1      -0.625   1.536  -1.238  0.00  0.00    -0.053 C 
ATOM     12  C   UNL     1      -0.982   3.913  -0.582  0.00  0.00    +0.224 C 
ATOM     13  O   UNL     1      -2.126   4.191  -0.872  0.00  0.00    -0.275 OA
ATOM     14  N   UNL     1      -0.315   4.387   0.477  0.00  0.00    -0.237 N 
ATOM     15  C   UNL     1       0.938   3.932   0.593  0.00  0.00    +0.225 C 
ATOM     16  O   UNL     1       1.714   4.235   1.474  0.00  0.00    -0.275 OA
ATOM     17  C   UNL     1       2.275   0.718  -0.854  0.00  0.00    +0.211 C 
ATOM     18  O   UNL     1       2.147   0.477  -2.036  0.00  0.00    -0.277 OA
ATOM     19  N   UNL     1       3.267   0.290  -0.050  0.00  0.00    -0.286 N 
ATOM     20  H   UNL     1       4.000  -0.273  -0.346  0.00  0.00    +0.155 HD
ATOM     21  N   UNL     1       0.004   1.027  -0.018  0.00  0.00    +0.394 N 
ATOM     22  H   UNL     1      -0.512   1.351   0.809  0.00  0.00    -0.083 HD
ATOM     23  H   UNL     1       0.021   0.000  -0.030  0.00  0.00    -0.083 HD
ENDROOT
BRANCH  11  24
ATOM     24  C   UNL     1      -2.150   1.546  -1.119  0.00  0.00    +0.020 C 
BRANCH  24  25
ATOM     25  C   UNL     1      -2.658   0.129  -1.047  0.00  0.00    -0.049 A 
ATOM     26  C   UNL     1      -2.989  -0.545  -2.208  0.00  0.00    +0.007 A 
ATOM     27  C   UNL     1      -3.449  -1.846  -2.145  0.00  0.00    +0.045 A 
ATOM     28  C   UNL     1      -3.589  -2.473  -0.915  0.00  0.00    +0.117 A 
ATOM     29  C   UNL     1      -3.261  -1.792   0.248  0.00  0.00    +0.045 A 
ATOM     30  C   UNL     1      -2.796  -0.493   0.180  0.00  0.00    +0.007 A 
BRANCH  28  31
ATOM     31  O   UNL     1      -4.046  -3.751  -0.851  0.00  0.00    -0.507 OA
ATOM     32  H   UNL     1      -5.008  -3.821  -0.774  0.00  0.00    +0.292 HD
ENDBRANCH  28  31
ENDBRANCH  24  25
ENDBRANCH  11  24
BRANCH  14  33
ATOM     33  C   UNL     1      -0.909   5.326   1.431  0.00  0.00    +0.151 C 
BRANCH  33  34
ATOM     34  C   UNL     1      -0.644   6.739   0.977  0.00  0.00    -0.026 A 
ATOM     35  C   UNL     1      -1.545   7.375   0.144  0.00  0.00    +0.009 A 
ATOM     36  C   UNL     1      -1.306   8.671  -0.275  0.00  0.00    +0.050 A 
ATOM     37  C   UNL     1      -0.164   9.335   0.141  0.00  0.00    +0.166 A 
ATOM     38  C   UNL     1       0.743   8.694   0.980  0.00  0.00    +0.167 A 
ATOM     39  C   UNL     1       0.496   7.397   1.400  0.00  0.00    +0.054 A 
ATOM     40  O   UNL     1       1.774   9.549   1.244  0.00  0.00    -0.453 OA
ATOM     41  C   UNL     1       1.288  10.857   0.890  0.00  0.00    +0.466 C 
ATOM     42  O   UNL     1       0.299  10.592  -0.122  0.00  0.00    -0.453 OA
ENDBRANCH  33  34
ENDBRANCH  14  33
TORSDOF 5
