REMARK  Name = ZINC01778640
REMARK  8 active torsions:
REMARK  status: ('A' for Active; 'I' for Inactive)
REMARK    1  A    between atoms: C_1  and  C_2
REMARK    2  A    between atoms: C_2  and  O_3
REMARK    3  A    between atoms: O_3  and  C_4
REMARK    4  A    between atoms: C_7  and  N_10
REMARK    5  A    between atoms: C_24  and  C_33
REMARK    6  A    between atoms: C_34  and  C_36
REMARK    7  A    between atoms: C_39  and  O_43
REMARK    8  A    between atoms: C_40  and  O_42
REMARK                            x       y       z     vdW  Elec       q    Type
REMARK                         _______ _______ _______ _____ _____    ______ ____
ROOT
ATOM      1  N   UNL     1      -1.121   7.277   0.051  0.00  0.00    -0.297 N 
ATOM      2  C   UNL     1      -1.151   5.905  -0.120  0.00  0.00    +0.164 C 
ATOM      3  N   UNL     1      -0.034   5.244  -0.297  0.00  0.00    -0.227 NA
ATOM      4  C   UNL     1      -0.022   3.898  -0.469  0.00  0.00    +0.087 A 
ATOM      5  C   UNL     1       1.192   3.226  -0.655  0.00  0.00    +0.030 A 
ATOM      6  C   UNL     1       1.202   1.861  -0.829  0.00  0.00    +0.002 A 
ATOM      7  C   UNL     1       0.016   1.143  -0.822  0.00  0.00    +0.002 A 
ATOM      8  C   UNL     1      -1.190   1.788  -0.645  0.00  0.00    +0.025 A 
ATOM      9  C   UNL     1      -1.222   3.165  -0.462  0.00  0.00    +0.062 A 
ATOM     10  N   UNL     1      -2.425   3.822  -0.278  0.00  0.00    -0.269 N 
ATOM     11  C   UNL     1      -2.439   5.188  -0.104  0.00  0.00    +0.169 C 
ATOM     12  N   UNL     1      -3.554   5.852   0.072  0.00  0.00    -0.209 NA
ATOM     13  C   UNL     1      -4.783   5.291   0.103  0.00  0.00    +0.165 A 
ATOM     14  C   UNL     1      -4.942   3.925  -0.057  0.00  0.00    +0.045 A 
ATOM     15  C   UNL     1      -6.296   3.634   0.018  0.00  0.00    +0.068 A 
ATOM     16  N   UNL     1      -6.953   4.752   0.213  0.00  0.00    -0.168 NA
ATOM     17  N   UNL     1      -6.038   5.811   0.272  0.00  0.00    -0.196 N 
ATOM     18  C   UNL     1      -6.351   7.158   0.467  0.00  0.00    +0.156 A 
ATOM     19  C   UNL     1      -7.608   7.632   0.109  0.00  0.00    +0.048 A 
ATOM     20  C   UNL     1      -7.907   8.968   0.312  0.00  0.00    +0.005 A 
ATOM     21  C   UNL     1      -6.930   9.789   0.859  0.00  0.00    +0.020 A 
ATOM     22  C   UNL     1      -5.701   9.252   1.187  0.00  0.00    +0.113 A 
ATOM     23  N   UNL     1      -5.447   7.973   0.986  0.00  0.00    -0.236 NA
ATOM     24  C   UNL     1      -6.909   2.263  -0.105  0.00  0.00    +0.068 C 
ATOM     25  C   UNL     1      -3.699   3.089  -0.265  0.00  0.00    +0.146 C 
ATOM     26  H   UNL     1      -1.951   7.777   0.104  0.00  0.00    +0.154 HD
ENDROOT
BRANCH   1  30
ATOM     27  C   UNL     1       2.531   9.264   0.340  0.00  0.00    +0.121 A 
ATOM     28  C   UNL     1       1.445   9.892  -0.252  0.00  0.00    +0.047 A 
ATOM     29  C   UNL     1       0.235   9.235  -0.348  0.00  0.00    +0.027 A 
ATOM     30  C   UNL     1       0.105   7.944   0.148  0.00  0.00    +0.033 A 
ATOM     31  C   UNL     1       1.191   7.318   0.746  0.00  0.00    +0.027 A 
ATOM     32  C   UNL     1       2.402   7.975   0.836  0.00  0.00    +0.047 A 
BRANCH  27  33
ATOM     33  O   UNL     1       3.723   9.912   0.434  0.00  0.00    -0.492 OA
BRANCH  33  35
ATOM     34  C   UNL     1       6.048  10.089   1.070  0.00  0.00    +0.048 C 
ATOM     35  C   UNL     1       4.798   9.206   1.056  0.00  0.00    +0.225 C 
ENDBRANCH  33  35
ENDBRANCH  27  33
ENDBRANCH   1  30
BRANCH  25  36
ATOM     36  C   UNL     1      -3.833   2.365  -1.580  0.00  0.00    -0.018 A 
ATOM     37  C   UNL     1      -3.564   3.028  -2.763  0.00  0.00    +0.009 A 
ATOM     38  C   UNL     1      -3.686   2.369  -3.971  0.00  0.00    +0.049 A 
ATOM     39  C   UNL     1      -4.078   1.040  -3.999  0.00  0.00    +0.158 A 
ATOM     40  C   UNL     1      -4.349   0.373  -2.809  0.00  0.00    +0.159 A 
ATOM     41  C   UNL     1      -4.220   1.038  -1.600  0.00  0.00    +0.055 A 
BRANCH  40  42
ATOM     42  O   UNL     1      -4.735  -0.931  -2.831  0.00  0.00    -0.503 OA
ATOM     43  H   UNL     1      -4.001  -1.559  -2.785  0.00  0.00    +0.292 HD
ENDBRANCH  40  42
BRANCH  39  44
ATOM     44  O   UNL     1      -4.198   0.390  -5.188  0.00  0.00    -0.503 OA
ATOM     45  H   UNL     1      -3.388  -0.049  -5.479  0.00  0.00    +0.292 HD
ENDBRANCH  39  44
ENDBRANCH  25  36
TORSDOF 6
