REMARK  Name = ZINC01251406
REMARK  13 active torsions:
REMARK  status: ('A' for Active; 'I' for Inactive)
REMARK    1  A    between atoms: C_1  and  C_2
REMARK    2  A    between atoms: C_14  and  C_34
REMARK    3  A    between atoms: C_19  and  C_21
REMARK    4  A    between atoms: C_23  and  O_31
REMARK    5  A    between atoms: C_24  and  O_29
REMARK    6  A    between atoms: C_25  and  O_27
REMARK    7  A    between atoms: O_27  and  C_28
REMARK    8  A    between atoms: O_29  and  C_30
REMARK    9  A    between atoms: O_31  and  C_32
REMARK   10  A    between atoms: C_37  and  C_40
REMARK   11  A    between atoms: C_40  and  C_41
REMARK   12  A    between atoms: C_40  and  C_42
REMARK   13  A    between atoms: C_40  and  C_43
REMARK                            x       y       z     vdW  Elec       q    Type
REMARK                         _______ _______ _______ _____ _____    ______ ____
ROOT
ATOM      1  C   UNL     1      -0.420   0.991   0.812  0.00  0.00    +0.110 C 
ATOM      2  C   UNL     1      -0.298  -0.493   0.582  0.00  0.00    +0.218 C 
ATOM      3  O   UNL     1       0.798  -1.006   0.497  0.00  0.00    -0.276 OA
ATOM      4  N   UNL     1      -1.407  -1.252   0.472  0.00  0.00    -0.258 N 
ATOM      5  C   UNL     1      -2.662  -0.649   0.567  0.00  0.00    +0.058 A 
ATOM      6  C   UNL     1      -3.100   0.264  -0.378  0.00  0.00    +0.025 A 
ATOM      7  C   UNL     1      -4.370   0.802  -0.267  0.00  0.00    +0.002 A 
ATOM      8  C   UNL     1      -5.199   0.431   0.777  0.00  0.00    +0.002 A 
ATOM      9  C   UNL     1      -4.758  -0.467   1.733  0.00  0.00    +0.025 A 
ATOM     10  C   UNL     1      -3.480  -0.990   1.634  0.00  0.00    +0.053 A 
ATOM     11  N   UNL     1      -2.938  -1.813   2.614  0.00  0.00    -0.316 N 
ATOM     12  C   UNL     1      -2.551  -3.099   2.417  0.00  0.00    +0.017 C 
ATOM     13  C   UNL     1      -3.047  -4.078   3.468  0.00  0.00    +0.059 C 
ATOM     14  C   UNL     1      -2.017  -5.188   3.670  0.00  0.00    +0.032 C 
ATOM     15  C   UNL     1      -1.834  -5.905   2.327  0.00  0.00    +0.088 C 
ATOM     16  C   UNL     1      -1.436  -4.893   1.294  0.00  0.00    +0.163 C 
ATOM     17  C   UNL     1      -1.803  -3.529   1.388  0.00  0.00    +0.037 C 
ATOM     18  C   UNL     1      -1.276  -2.676   0.252  0.00  0.00    +0.147 C 
ATOM     19  O   UNL     1      -0.775  -5.257   0.342  0.00  0.00    -0.292 OA
ATOM     20  H   UNL     1      -2.827  -1.441   3.502  0.00  0.00    +0.152 HD
ENDROOT
BRANCH  18  21
ATOM     21  C   UNL     1      -2.021  -3.036  -1.007  0.00  0.00    -0.015 A 
ATOM     22  C   UNL     1      -1.340  -3.576  -2.082  0.00  0.00    +0.055 A 
ATOM     23  C   UNL     1      -2.022  -3.908  -3.242  0.00  0.00    +0.165 A 
ATOM     24  C   UNL     1      -3.393  -3.697  -3.324  0.00  0.00    +0.204 A 
ATOM     25  C   UNL     1      -4.075  -3.154  -2.242  0.00  0.00    +0.165 A 
ATOM     26  C   UNL     1      -3.386  -2.830  -1.083  0.00  0.00    +0.055 A 
BRANCH  25  27
ATOM     27  O   UNL     1      -5.417  -2.946  -2.317  0.00  0.00    -0.491 OA
ATOM     28  C   UNL     1      -6.052  -2.385  -1.166  0.00  0.00    +0.277 C 
ENDBRANCH  25  27
BRANCH  24  29
ATOM     29  O   UNL     1      -4.067  -4.021  -4.462  0.00  0.00    -0.488 OA
ATOM     30  C   UNL     1      -4.595  -5.346  -4.548  0.00  0.00    +0.277 C 
ENDBRANCH  24  29
BRANCH  23  31
ATOM     31  O   UNL     1      -1.350  -4.438  -4.299  0.00  0.00    -0.491 OA
ATOM     32  C   UNL     1       0.033  -4.739  -4.104  0.00  0.00    +0.277 C 
ENDBRANCH  23  31
ENDBRANCH  18  21
BRANCH  14  33
ATOM     33  C   UNL     1      -2.514  -6.163   4.707  0.00  0.00    -0.043 A 
ATOM     34  C   UNL     1      -3.695  -6.851   4.499  0.00  0.00    +0.004 A 
ATOM     35  C   UNL     1      -4.150  -7.745   5.450  0.00  0.00    +0.004 A 
ATOM     36  C   UNL     1      -3.424  -7.952   6.608  0.00  0.00    -0.042 A 
ATOM     37  C   UNL     1      -2.242  -7.266   6.815  0.00  0.00    +0.004 A 
ATOM     38  C   UNL     1      -1.785  -6.375   5.862  0.00  0.00    +0.004 A 
BRANCH  36  39
ATOM     39  C   UNL     1      -3.921  -8.927   7.644  0.00  0.00    -0.013 C 
ATOM     40  C   UNL     1      -4.031 -10.320   7.023  0.00  0.00    +0.015 C 
ATOM     41  C   UNL     1      -2.939  -8.968   8.818  0.00  0.00    +0.015 C 
ATOM     42  C   UNL     1      -5.296  -8.481   8.146  0.00  0.00    +0.015 C 
ENDBRANCH  36  39
ENDBRANCH  14  33
TORSDOF 6
