REMARK  Name = ZINC08635412
REMARK  9 active torsions:
REMARK  status: ('A' for Active; 'I' for Inactive)
REMARK    1  A    between atoms: C_1  and  N_2
REMARK    2  A    between atoms: C_3  and  C_12
REMARK    3  A    between atoms: C_5  and  C_7
REMARK    4  A    between atoms: C_20  and  C_22
REMARK    5  A    between atoms: C_22  and  N_23
REMARK    6  A    between atoms: N_23  and  C_24
REMARK    7  A    between atoms: C_24  and  N_26
REMARK    8  A    between atoms: N_26  and  C_27
REMARK    9  A    between atoms: C_31  and  C_33
REMARK                            x       y       z     vdW  Elec       q    Type
REMARK                         _______ _______ _______ _____ _____    ______ ____
ROOT
ATOM      1  C   UNL     1       1.450  -0.037   1.530  0.00  0.00    +0.024 C 
ATOM      2  C   UNL     1       2.454   0.502   0.508  0.00  0.00    -0.068 C 
ATOM      3  C   UNL     1       0.881   2.190  -0.230  0.00  0.00    -0.078 C 
ATOM      4  C   UNL     1      -0.169   1.698   0.771  0.00  0.00    -0.015 C 
ATOM      5  C   UNL     1       0.029   0.195   0.998  0.00  0.00    -0.007 C 
ATOM      6  C   UNL     1      -0.112  -0.526  -0.348  0.00  0.00    -0.010 C 
ATOM      7  C   UNL     1       0.936   0.026  -1.318  0.00  0.00    -0.051 C 
ATOM      8  N   UNL     1       1.748   1.071  -0.659  0.00  0.00    +0.383 N 
ATOM      9  H   UNL     1       2.442   1.426  -1.328  0.00  0.00    -0.081 HD
ENDROOT
BRANCH   1  12
ATOM     10  C   UNL     1      -0.380  -1.990   3.086  0.00  0.00    +0.172 C 
ATOM     11  N   UNL     1       0.871  -2.354   2.416  0.00  0.00    -0.270 N 
ATOM     12  C   UNL     1       1.678  -1.512   1.734  0.00  0.00    +0.041 A 
ATOM     13  C   UNL     1       2.728  -2.224   1.272  0.00  0.00    +0.056 A 
ATOM     14  C   UNL     1       2.558  -3.562   1.682  0.00  0.00    +0.128 A 
ATOM     15  N   UNL     1       1.435  -3.635   2.368  0.00  0.00    -0.168 NA
BRANCH  14  16
ATOM     16  C   UNL     1       3.476  -4.685   1.393  0.00  0.00    +0.155 A 
ATOM     17  C   UNL     1       3.311  -5.973   1.795  0.00  0.00    +0.051 A 
ATOM     18  C   UNL     1       4.415  -6.697   1.299  0.00  0.00    +0.042 A 
ATOM     19  C   UNL     1       5.194  -5.822   0.634  0.00  0.00    +0.196 A 
ATOM     20  O   UNL     1       4.623  -4.607   0.693  0.00  0.00    -0.461 OA
ENDBRANCH  14  16
ENDBRANCH   1  12
BRANCH   7  21
ATOM     21  C   UNL     1       1.859  -1.107  -1.771  0.00  0.00    +0.088 C 
BRANCH  21  22
ATOM     22  N   UNL     1       2.946  -0.555  -2.584  0.00  0.00    -0.328 N 
ATOM     23  H   UNL     1       2.989   0.399  -2.754  0.00  0.00    +0.148 HD
BRANCH  22  24
ATOM     24  C   UNL     1       3.887  -1.374  -3.096  0.00  0.00    +0.134 C 
ATOM     25  S   UNL     1       3.811  -3.058  -2.797  0.00  0.00    -0.019 S 
BRANCH  24  26
ATOM     26  N   UNL     1       4.887  -0.867  -3.844  0.00  0.00    -0.297 N 
ATOM     27  H   UNL     1       4.967   0.093  -3.960  0.00  0.00    +0.154 HD
BRANCH  26  28
ATOM     28  C   UNL     1       5.809  -1.724  -4.454  0.00  0.00    +0.034 A 
ATOM     29  C   UNL     1       6.384  -2.758  -3.724  0.00  0.00    +0.023 A 
ATOM     30  C   UNL     1       7.291  -3.612  -4.322  0.00  0.00    +0.003 A 
ATOM     31  C   UNL     1       7.641  -3.437  -5.646  0.00  0.00    +0.019 A 
ATOM     32  C   UNL     1       7.074  -2.398  -6.386  0.00  0.00    +0.054 A 
ATOM     33  C   UNL     1       6.153  -1.540  -5.783  0.00  0.00    +0.042 A 
BRANCH  32  34
ATOM     34  C   UNL     1       7.435  -2.213  -7.760  0.00  0.00    +0.099 C 
ATOM     35  N   UNL     1       7.722  -2.067  -8.849  0.00  0.00    -0.191 NA
ENDBRANCH  32  34
ENDBRANCH  26  28
ENDBRANCH  24  26
ENDBRANCH  22  24
ENDBRANCH  21  22
ENDBRANCH   7  21
TORSDOF 8
