REMARK  Name = ZINC01936506
REMARK  9 active torsions:
REMARK  status: ('A' for Active; 'I' for Inactive)
REMARK    1  A    between atoms: C_1  and  C_2
REMARK    2  A    between atoms: C_4  and  O_10
REMARK    3  A    between atoms: C_6  and  C_9
REMARK    4  A    between atoms: O_10  and  C_11
REMARK    5  A    between atoms: C_16  and  O_22
REMARK    6  A    between atoms: O_22  and  C_23
REMARK    7  A    between atoms: C_23  and  C_24
REMARK    8  A    between atoms: N_26  and  C_27
REMARK    9  A    between atoms: C_28  and  C_35
REMARK                            x       y       z     vdW  Elec       q    Type
REMARK                         _______ _______ _______ _____ _____    ______ ____
ROOT
ATOM      1  C   UNL     1       1.157   6.271   0.331  0.00  0.00    +0.210 A 
ATOM      2  C   UNL     1       2.236   5.566   0.725  0.00  0.00    +0.245 A 
ATOM      3  O   UNL     1       2.178   4.265   1.035  0.00  0.00    -0.459 OA
ATOM      4  C   UNL     1       1.031   3.558   0.975  0.00  0.00    +0.142 A 
ATOM      5  C   UNL     1       1.005   2.210   1.303  0.00  0.00    +0.092 A 
ATOM      6  C   UNL     1      -0.187   1.509   1.232  0.00  0.00    +0.125 A 
ATOM      7  C   UNL     1      -1.361   2.144   0.831  0.00  0.00    +0.046 A 
ATOM      8  C   UNL     1      -1.353   3.471   0.511  0.00  0.00    +0.019 A 
ATOM      9  C   UNL     1      -0.160   4.192   0.576  0.00  0.00    +0.068 A 
ATOM     10  C   UNL     1      -0.107   5.624   0.233  0.00  0.00    +0.234 A 
ATOM     11  O   UNL     1      -1.106   6.229  -0.119  0.00  0.00    -0.283 OA
ENDROOT
BRANCH   1  12
ATOM     12  O   UNL     1       1.275   7.593   0.029  0.00  0.00    -0.449 OA
BRANCH  12  16
ATOM     13  C   UNL     1       5.526   8.761  -2.065  0.00  0.00    +0.045 C 
ATOM     14  C   UNL     1       4.604   8.751  -0.873  0.00  0.00    -0.028 A 
ATOM     15  C   UNL     1       3.354   8.172  -0.972  0.00  0.00    +0.051 A 
ATOM     16  C   UNL     1       2.505   8.162   0.125  0.00  0.00    +0.129 A 
ATOM     17  C   UNL     1       2.912   8.740   1.319  0.00  0.00    +0.051 A 
ATOM     18  C   UNL     1       4.165   9.313   1.417  0.00  0.00    -0.028 A 
ATOM     19  C   UNL     1       5.010   9.321   0.321  0.00  0.00    +0.047 A 
ATOM     20 CL   UNL     1       6.582  10.048   0.444  0.00  0.00    -0.083 Cl
ATOM     21  C   UNL     1       4.610   9.935   2.715  0.00  0.00    +0.045 C 
ENDBRANCH  12  16
ENDBRANCH   1  12
BRANCH   6  22
ATOM     22  O   UNL     1      -0.212   0.190   1.553  0.00  0.00    -0.483 OA
BRANCH  22  23
ATOM     23  C   UNL     1      -1.472  -0.477   1.460  0.00  0.00    +0.324 C 
BRANCH  23  24
ATOM     24  C   UNL     1      -1.306  -1.923   1.850  0.00  0.00    +0.255 C 
ATOM     25  O   UNL     1      -0.215  -2.341   2.176  0.00  0.00    -0.272 OA
ATOM     26  N   UNL     1      -2.369  -2.751   1.838  0.00  0.00    -0.276 N 
ATOM     27  H   UNL     1      -3.241  -2.416   1.578  0.00  0.00    +0.155 HD
BRANCH  26  28
ATOM     28  C   UNL     1      -2.215  -4.083   2.197  0.00  0.00    +0.090 A 
ATOM     29  C   UNL     1      -3.178  -5.075   2.252  0.00  0.00    +0.084 A 
ATOM     30  C   UNL     1      -2.751  -6.412   2.662  0.00  0.00    -0.018 A 
ATOM     31  C   UNL     1      -1.443  -6.528   2.957  0.00  0.00    -0.004 A 
ATOM     32  S   UNL     1      -0.775  -4.904   2.694  0.00  0.00    -0.077 S 
ATOM     33  C   UNL     1      -1.081  -7.928   3.373  0.00  0.00    +0.043 C 
ATOM     34  C   UNL     1      -2.262  -8.796   2.886  0.00  0.00    +0.010 C 
ATOM     35  C   UNL     1      -3.416  -7.774   2.864  0.00  0.00    +0.037 C 
BRANCH  29  36
ATOM     36  C   UNL     1      -4.543  -4.803   1.914  0.00  0.00    +0.102 C 
ATOM     37  N   UNL     1      -5.625  -4.588   1.646  0.00  0.00    -0.191 NA
ENDBRANCH  29  36
ENDBRANCH  26  28
ENDBRANCH  23  24
ENDBRANCH  22  23
ENDBRANCH   6  22
TORSDOF 7
