REMARK  Name = ZINC15106316
REMARK  10 active torsions:
REMARK  status: ('A' for Active; 'I' for Inactive)
REMARK    1  A    between atoms: C_1  and  C_2
REMARK    2  A    between atoms: C_2  and  C_3
REMARK    3  A    between atoms: C_3  and  C_4
REMARK    4  A    between atoms: C_4  and  C_5
REMARK    5  A    between atoms: C_6  and  C_31
REMARK    6  A    between atoms: N_7  and  C_21
REMARK    7  A    between atoms: N_13  and  C_20
REMARK    8  A    between atoms: N_16  and  C_19
REMARK    9  A    between atoms: C_24  and  S_27
REMARK   10  A    between atoms: S_27  and  N_30
REMARK                            x       y       z     vdW  Elec       q    Type
REMARK                         _______ _______ _______ _____ _____    ______ ____
ROOT
ATOM      1  C   UNL     1      -1.694   5.944   2.897  0.00  0.00    +0.052 A 
ATOM      2  C   UNL     1      -2.283   6.571   3.929  0.00  0.00    +0.077 A 
ATOM      3  N   UNL     1      -2.765   5.601   4.800  0.00  0.00    -0.278 N 
ATOM      4  C   UNL     1      -2.453   4.373   4.272  0.00  0.00    +0.223 A 
ATOM      5  N   UNL     1      -1.794   4.583   3.101  0.00  0.00    -0.274 N 
ATOM      6  C   UNL     1      -1.488   3.334   2.582  0.00  0.00    +0.157 A 
ATOM      7  C   UNL     1      -1.990   2.399   3.486  0.00  0.00    +0.170 A 
ATOM      8  N   UNL     1      -2.560   3.070   4.484  0.00  0.00    -0.193 NA
ATOM      9  N   UNL     1      -1.822   1.050   3.213  0.00  0.00    -0.280 N 
ATOM     10  C   UNL     1      -1.185   0.664   2.091  0.00  0.00    +0.333 A 
ATOM     11  O   UNL     1      -1.046  -0.523   1.866  0.00  0.00    -0.246 OA
ATOM     12  N   UNL     1      -0.698   1.558   1.213  0.00  0.00    -0.262 N 
ATOM     13  C   UNL     1      -0.827   2.884   1.427  0.00  0.00    +0.283 A 
ATOM     14  O   UNL     1      -0.377   3.683   0.625  0.00  0.00    -0.265 OA
ATOM     15  C   UNL     1      -0.013   1.086   0.008  0.00  0.00    +0.157 C 
ATOM     16  C   UNL     1      -2.338   0.044   4.144  0.00  0.00    +0.155 C 
ENDROOT
BRANCH   3  17
ATOM     17  C   UNL     1      -3.445   5.835   6.001  0.00  0.00    +0.050 A 
ATOM     18  C   UNL     1      -2.795   6.456   7.060  0.00  0.00    +0.028 A 
ATOM     19  C   UNL     1      -3.470   6.690   8.242  0.00  0.00    +0.030 A 
ATOM     20  C   UNL     1      -4.789   6.296   8.375  0.00  0.00    +0.105 A 
ATOM     21  C   UNL     1      -5.438   5.672   7.325  0.00  0.00    +0.030 A 
ATOM     22  C   UNL     1      -4.769   5.440   6.139  0.00  0.00    +0.028 A 
BRANCH  20  23
ATOM     23  S   UNL     1      -5.645   6.589   9.887  0.00  0.00    +0.056 S 
ATOM     24  O   UNL     1      -4.986   7.676  10.523  0.00  0.00    -0.153 OA
ATOM     25  O   UNL     1      -7.030   6.618   9.571  0.00  0.00    -0.153 OA
BRANCH  23  26
ATOM     26  N   UNL     1      -5.407   5.263  10.850  0.00  0.00    -0.204 NA
ATOM     27  H   UNL     1      -5.394   5.360  11.815  0.00  0.00    +0.144 HD
ATOM     28  H   UNL     1      -5.279   4.389  10.449  0.00  0.00    +0.144 HD
ENDBRANCH  23  26
ENDBRANCH  20  23
ENDBRANCH   3  17
BRANCH   2  29
ATOM     29  C   UNL     1      -2.399   8.035   4.107  0.00  0.00    +0.001 A 
ATOM     30  C   UNL     1      -1.296   8.858   3.880  0.00  0.00    +0.010 A 
ATOM     31  C   UNL     1      -1.412  10.223   4.042  0.00  0.00    +0.001 A 
ATOM     32  C   UNL     1      -2.617  10.776   4.440  0.00  0.00    +0.000 A 
ATOM     33  C   UNL     1      -3.713   9.964   4.671  0.00  0.00    +0.001 A 
ATOM     34  C   UNL     1      -3.611   8.598   4.507  0.00  0.00    +0.010 A 
ENDBRANCH   2  29
BRANCH   1  35
ATOM     35  C   UNL     1      -1.035   6.613   1.718  0.00  0.00    +0.056 C 
BRANCH  35  36
ATOM     36  C   UNL     1      -2.068   6.826   0.610  0.00  0.00    +0.006 C 
BRANCH  36  38
ATOM     37  C   UNL     1      -2.432   7.718  -1.696  0.00  0.00    +0.004 C 
ATOM     38  C   UNL     1      -1.399   7.505  -0.587  0.00  0.00    -0.003 C 
ENDBRANCH  36  38
ENDBRANCH  35  36
ENDBRANCH   1  35
TORSDOF 7
