REMARK  Name = ZINC44737068
REMARK  8 active torsions:
REMARK  status: ('A' for Active; 'I' for Inactive)
REMARK    1  A    between atoms: C_1  and  C_2
REMARK    2  A    between atoms: C_9  and  C_11
REMARK    3  A    between atoms: C_11  and  C_13
REMARK    4  A    between atoms: C_11  and  N_14
REMARK    5  A    between atoms: C_15  and  C_17
REMARK    6  A    between atoms: C_28  and  C_30
REMARK    7  A    between atoms: C_30  and  C_31
REMARK    8  A    between atoms: C_31  and  C_32
REMARK                            x       y       z     vdW  Elec       q    Type
REMARK                         _______ _______ _______ _____ _____    ______ ____
ROOT
ATOM      1  C   UNL     1      -1.623  -8.782   1.003  0.00  0.00    +0.100 C 
ATOM      2  C   UNL     1      -2.893  -8.243   0.306  0.00  0.00    +0.121 C 
ATOM      3  N   UNL     1      -3.816  -9.402   0.262  0.00  0.00    -0.300 N 
ATOM      4  C   UNL     1      -3.623 -10.076   1.568  0.00  0.00    +0.115 C 
ATOM      5  C   UNL     1      -2.107  -9.984   1.830  0.00  0.00    -0.004 C 
ATOM      6  C   UNL     1      -1.412 -11.260   1.364  0.00  0.00    -0.010 C 
ATOM      7  C   UNL     1      -1.867 -12.432   2.238  0.00  0.00    -0.082 C 
ATOM      8  N   UNL     1      -1.536 -12.155   3.641  0.00  0.00    +0.379 N 
ATOM      9  C   UNL     1      -2.280 -10.980   4.109  0.00  0.00    -0.082 C 
ATOM     10  C   UNL     1      -1.843  -9.746   3.314  0.00  0.00    -0.010 C 
ATOM     11  C   UNL     1      -4.644  -9.761  -0.739  0.00  0.00    +0.216 C 
ATOM     12  O   UNL     1      -5.344 -10.744  -0.624  0.00  0.00    -0.276 OA
ATOM     13  H   UNL     1      -1.780 -12.954   4.207  0.00  0.00    -0.086 HD
ATOM     14  H   UNL     1      -0.545 -11.979   3.723  0.00  0.00    -0.086 HD
ENDROOT
BRANCH   1  16
ATOM     15  N   UNL     1       0.293  -7.715   2.146  0.00  0.00    -0.305 N 
ATOM     16  C   UNL     1      -1.032  -7.728   1.904  0.00  0.00    +0.219 C 
ATOM     17  O   UNL     1      -1.750  -6.893   2.412  0.00  0.00    -0.275 OA
ATOM     18  H   UNL     1       0.867  -8.383   1.740  0.00  0.00    +0.149 HD
BRANCH  15  19
ATOM     19  C   UNL     1       0.868  -6.691   3.022  0.00  0.00    +0.136 C 
ATOM     20  C   UNL     1       0.755  -7.145   4.479  0.00  0.00    +0.036 C 
BRANCH  19  29
ATOM     21  C   UNL     1       7.863  -4.460   1.812  0.00  0.00    +0.044 C 
ATOM     22  C   UNL     1       6.613  -5.300   1.857  0.00  0.00    -0.048 A 
ATOM     23  C   UNL     1       6.632  -6.592   1.351  0.00  0.00    +0.005 A 
ATOM     24  C   UNL     1       5.509  -7.369   1.383  0.00  0.00    +0.030 A 
ATOM     25  C   UNL     1       4.327  -6.863   1.930  0.00  0.00    +0.089 A 
ATOM     26  C   UNL     1       4.307  -5.555   2.442  0.00  0.00    +0.067 A 
ATOM     27  C   UNL     1       5.460  -4.781   2.406  0.00  0.00    +0.031 A 
ATOM     28  N   UNL     1       3.023  -5.346   2.904  0.00  0.00    -0.340 N 
ATOM     29  C   UNL     1       2.319  -6.486   2.671  0.00  0.00    +0.128 A 
ATOM     30  N   UNL     1       3.080  -7.373   2.101  0.00  0.00    -0.231 NA
ATOM     31  H   UNL     1       2.686  -4.536   3.318  0.00  0.00    +0.167 HD
ENDBRANCH  19  29
ENDBRANCH  15  19
ENDBRANCH   1  16
BRANCH  11  32
ATOM     32  C   UNL     1      -4.699  -8.940  -2.002  0.00  0.00    +0.100 C 
BRANCH  32  33
ATOM     33  C   UNL     1      -5.710  -9.560  -2.969  0.00  0.00    +0.044 C 
BRANCH  33  34
ATOM     34  C   UNL     1      -5.765  -8.739  -4.232  0.00  0.00    -0.047 A 
ATOM     35  C   UNL     1      -6.654  -7.686  -4.333  0.00  0.00    +0.003 A 
ATOM     36  C   UNL     1      -6.705  -6.933  -5.492  0.00  0.00    +0.000 A 
ATOM     37  C   UNL     1      -5.866  -7.234  -6.549  0.00  0.00    +0.000 A 
ATOM     38  C   UNL     1      -4.976  -8.287  -6.447  0.00  0.00    +0.000 A 
ATOM     39  C   UNL     1      -4.922  -9.037  -5.287  0.00  0.00    +0.003 A 
ENDBRANCH  33  34
ENDBRANCH  32  33
ENDBRANCH  11  32
TORSDOF 6
