REMARK  Name = ZINC05200342
REMARK  11 active torsions:
REMARK  status: ('A' for Active; 'I' for Inactive)
REMARK    1  A    between atoms: C_1  and  C_2
REMARK    2  A    between atoms: C_2  and  N_3
REMARK    3  A    between atoms: N_3  and  C_4
REMARK    4  A    between atoms: N_3  and  C_24
REMARK    5  A    between atoms: C_7  and  N_10
REMARK    6  A    between atoms: C_11  and  C_13
REMARK    7  A    between atoms: C_13  and  S_14
REMARK    8  A    between atoms: S_14  and  C_15
REMARK    9  A    between atoms: C_18  and  N_21
REMARK   10  A    between atoms: C_24  and  C_25
REMARK   11  A    between atoms: C_24  and  C_26
REMARK                            x       y       z     vdW  Elec       q    Type
REMARK                         _______ _______ _______ _____ _____    ______ ____
ROOT
ATOM      1  N   UNL     1       0.921  -5.921   1.792  0.00  0.00    -0.285 N 
ATOM      2  C   UNL     1       1.753  -6.596   0.974  0.00  0.00    +0.227 C 
ATOM      3  O   UNL     1       2.521  -5.990   0.256  0.00  0.00    -0.275 OA
ATOM      4  H   UNL     1       0.360  -6.405   2.418  0.00  0.00    +0.155 HD
ENDROOT
BRANCH   1   8
ATOM      5  C   UNL     1       0.757  -1.762   1.630  0.00  0.00    +0.014 A 
ATOM      6  C   UNL     1       0.999  -2.488   0.478  0.00  0.00    +0.023 A 
ATOM      7  C   UNL     1       1.054  -3.867   0.528  0.00  0.00    +0.025 A 
ATOM      8  C   UNL     1       0.866  -4.524   1.737  0.00  0.00    +0.034 A 
ATOM      9  C   UNL     1       0.624  -3.792   2.892  0.00  0.00    +0.025 A 
ATOM     10  C   UNL     1       0.575  -2.413   2.836  0.00  0.00    +0.023 A 
BRANCH   5  11
ATOM     11  N   UNL     1       0.702  -0.366   1.575  0.00  0.00    -0.392 NA
ATOM     12  H   UNL     1       0.522  -0.000   2.499  0.00  0.00    +0.127 HD
BRANCH  11  13
ATOM     13  C   UNL     1       1.983   0.156   1.083  0.00  0.00    +0.049 C 
ATOM     14  C   UNL     1       1.956   1.685   1.110  0.00  0.00    +0.026 C 
ATOM     15  C   UNL     1       3.117  -0.350   1.976  0.00  0.00    +0.026 C 
ENDBRANCH  11  13
BRANCH  11  17
ATOM     16  C   UNL     1      -1.726  -0.378   1.252  0.00  0.00    +0.022 C 
ATOM     17  C   UNL     1      -0.377   0.047   0.667  0.00  0.00    +0.082 C 
ENDBRANCH  11  17
ENDBRANCH   5  11
ENDBRANCH   1   8
BRANCH   2  18
ATOM     18  C   UNL     1       1.730  -8.102   0.950  0.00  0.00    +0.170 C 
BRANCH  18  19
ATOM     19  S   UNL     1       2.955  -8.707  -0.243  0.00  0.00    -0.116 S 
BRANCH  19  20
ATOM     20  C   UNL     1       2.807 -10.461  -0.154  0.00  0.00    +0.008 A 
ATOM     21  C   UNL     1       1.882 -11.039   0.707  0.00  0.00    +0.017 A 
ATOM     22  C   UNL     1       1.769 -12.413   0.774  0.00  0.00    +0.034 A 
ATOM     23  C   UNL     1       2.574 -13.215  -0.014  0.00  0.00    +0.126 A 
ATOM     24  C   UNL     1       3.496 -12.643  -0.872  0.00  0.00    +0.034 A 
ATOM     25  C   UNL     1       3.611 -11.269  -0.949  0.00  0.00    +0.017 A 
BRANCH  23  26
ATOM     26  N   UNL     1       2.450 -14.688   0.060  0.00  0.00    +0.056 N 
ATOM     27  O   UNL     1       1.645 -15.189   0.810  0.00  0.00    -0.126 OA
ATOM     28  O   UNL     1       3.153 -15.389  -0.628  0.00  0.00    -0.126 OA
ENDBRANCH  23  26
ENDBRANCH  19  20
ENDBRANCH  18  19
ENDBRANCH   2  18
TORSDOF 8
