REMARK  Name = ZINC52789959
REMARK  6 active torsions:
REMARK  status: ('A' for Active; 'I' for Inactive)
REMARK    1  A    between atoms: C_1  and  C_2
REMARK    2  A    between atoms: C_4  and  C_9
REMARK    3  A    between atoms: C_5  and  C_8
REMARK    4  A    between atoms: N_6  and  C_7
REMARK    5  A    between atoms: C_9  and  N_10
REMARK    6  A    between atoms: N_10  and  C_11
REMARK                            x       y       z     vdW  Elec       q    Type
REMARK                         _______ _______ _______ _____ _____    ______ ____
ROOT
ATOM      1  N   UNL     1      -1.313  -3.908  -1.615  0.00  0.00    -0.338 N 
ATOM      2  H   UNL     1      -2.042  -3.479  -1.141  0.00  0.00    +0.146 HD
ENDROOT
BRANCH   1   3
ATOM      3  C   UNL     1      -1.552  -5.057  -2.378  0.00  0.00    +0.050 A 
ATOM      4  C   UNL     1      -0.507  -5.674  -3.051  0.00  0.00    +0.074 A 
ATOM      5  C   UNL     1      -0.745  -6.811  -3.806  0.00  0.00    +0.168 A 
ATOM      6  C   UNL     1      -2.033  -7.333  -3.888  0.00  0.00    +0.168 A 
ATOM      7  C   UNL     1      -3.074  -6.715  -3.214  0.00  0.00    +0.071 A 
ATOM      8  C   UNL     1      -2.836  -5.583  -2.457  0.00  0.00    +0.065 A 
ATOM      9 CL   UNL     1      -4.142  -4.815  -1.610  0.00  0.00    -0.082 Cl
ATOM     10  O   UNL     1      -2.004  -8.444  -4.684  0.00  0.00    -0.453 OA
ATOM     11  C   UNL     1      -0.767  -8.359  -5.416  0.00  0.00    +0.466 C 
ATOM     12  O   UNL     1       0.091  -7.593  -4.550  0.00  0.00    -0.453 OA
ENDBRANCH   1   3
BRANCH   1  13
ATOM     13  C   UNL     1       0.041  -3.353  -1.532  0.00  0.00    +0.138 C 
BRANCH  13  17
ATOM     14  C   UNL     1      -0.018   1.503   0.010  0.00  0.00    +0.063 C 
ATOM     15  C   UNL     1       0.002  -0.004   0.002  0.00  0.00    +0.016 A 
ATOM     16  C   UNL     1       0.008  -0.789  -1.095  0.00  0.00    +0.028 A 
ATOM     17  C   UNL     1       0.028  -2.127  -0.656  0.00  0.00    -0.010 A 
ATOM     18  C   UNL     1       0.034  -2.110   0.693  0.00  0.00    +0.020 A 
ATOM     19  N   UNL     1       0.024  -0.809   1.102  0.00  0.00    -0.351 N 
ATOM     20  C   UNL     1       0.030  -0.352   2.494  0.00  0.00    +0.148 C 
ATOM     21  C   UNL     1       0.053  -3.319   1.592  0.00  0.00    +0.064 C 
ENDBRANCH  13  17
ENDBRANCH   1  13
TORSDOF 3
