REMARK  Name = ZINC19297404
REMARK  11 active torsions:
REMARK  status: ('A' for Active; 'I' for Inactive)
REMARK    1  A    between atoms: C_1  and  C_2
REMARK    2  A    between atoms: C_2  and  C_4
REMARK    3  A    between atoms: C_2  and  S_8
REMARK    4  A    between atoms: N_6  and  C_7
REMARK    5  A    between atoms: S_8  and  C_9
REMARK    6  A    between atoms: C_12  and  C_13
REMARK    7  A    between atoms: C_16  and  O_19
REMARK    8  A    between atoms: O_19  and  C_20
REMARK    9  A    between atoms: N_23  and  C_24
REMARK   10  A    between atoms: C_27  and  O_30
REMARK   11  A    between atoms: O_30  and  C_31
REMARK                            x       y       z     vdW  Elec       q    Type
REMARK                         _______ _______ _______ _____ _____    ______ ____
ROOT
ATOM      1  C   UNL     1       0.023   1.453  -0.108  0.00  0.00    +0.169 C 
ATOM      2  N   UNL     1       1.267   1.855  -0.104  0.00  0.00    -0.220 NA
ATOM      3  C   UNL     1       2.092   0.766  -0.044  0.00  0.00    +0.129 C 
ATOM      4  C   UNL     1       3.458   0.769  -0.021  0.00  0.00    +0.041 C 
ATOM      5  C   UNL     1       1.205  -0.411  -0.008  0.00  0.00    +0.275 C 
ATOM      6  O   UNL     1       1.536  -1.582   0.049  0.00  0.00    -0.268 OA
ATOM      7  N   UNL     1      -0.052   0.082  -0.050  0.00  0.00    -0.214 N 
ENDROOT
BRANCH   4   8
ATOM      8  C   UNL     1       4.187   2.036   0.083  0.00  0.00    -0.023 A 
ATOM      9  C   UNL     1       5.584   2.055  -0.025  0.00  0.00    +0.011 A 
ATOM     10  C   UNL     1       6.263   3.249   0.068  0.00  0.00    +0.046 A 
ATOM     11  C   UNL     1       5.565   4.433   0.280  0.00  0.00    +0.120 A 
ATOM     12  C   UNL     1       4.180   4.420   0.394  0.00  0.00    +0.046 A 
ATOM     13  C   UNL     1       3.490   3.233   0.297  0.00  0.00    +0.011 A 
BRANCH  11  14
ATOM     14  O   UNL     1       6.240   5.607   0.376  0.00  0.00    -0.495 OA
ATOM     15  C   UNL     1       7.663   5.550   0.249  0.00  0.00    +0.277 C 
ENDBRANCH  11  14
ENDBRANCH   4   8
BRANCH   7  16
ATOM     16  C   UNL     1      -1.233  -0.676  -0.036  0.00  0.00    +0.044 A 
ATOM     17  C   UNL     1      -2.101  -0.589   1.044  0.00  0.00    +0.027 A 
ATOM     18  C   UNL     1      -3.266  -1.331   1.054  0.00  0.00    +0.048 A 
ATOM     19  C   UNL     1      -3.563  -2.171  -0.009  0.00  0.00    +0.127 A 
ATOM     20  C   UNL     1      -2.693  -2.263  -1.086  0.00  0.00    +0.048 A 
ATOM     21  C   UNL     1      -1.530  -1.517  -1.100  0.00  0.00    +0.027 A 
BRANCH  19  22
ATOM     22  O   UNL     1      -4.707  -2.905   0.004  0.00  0.00    -0.434 OA
BRANCH  22  23
ATOM     23  C   UNL     1      -5.557  -2.762   1.144  0.00  0.00    +0.541 C 
ATOM     24  F   UNL     1      -4.857  -3.135   2.297  0.00  0.00    -0.166 F 
ATOM     25  F   UNL     1      -5.964  -1.428   1.257  0.00  0.00    -0.166 F 
ENDBRANCH  22  23
ENDBRANCH  19  22
ENDBRANCH   7  16
BRANCH   1  26
ATOM     26  S   UNL     1      -1.372   2.526  -0.184  0.00  0.00    -0.077 S 
BRANCH  26  28
ATOM     27  C   UNL     1       0.272   4.242  -1.533  0.00  0.00    +0.029 C 
ATOM     28  C   UNL     1      -0.533   4.129  -0.236  0.00  0.00    +0.137 C 
BRANCH  28  29
ATOM     29  C   UNL     1      -1.556   5.234  -0.182  0.00  0.00    +0.226 C 
ATOM     30  O   UNL     1      -2.711   5.006  -0.476  0.00  0.00    -0.275 OA
ATOM     31  N   UNL     1      -1.189   6.475   0.194  0.00  0.00    -0.317 N 
ATOM     32  C   UNL     1      -2.184   7.549   0.246  0.00  0.00    +0.128 C 
ATOM     33  H   UNL     1      -0.142   6.681   0.461  0.00  0.00    +0.148 HD
ENDBRANCH  28  29
ENDBRANCH  26  28
ENDBRANCH   1  26
TORSDOF 8
