REMARK  Name = ZINC22496284
REMARK  9 active torsions:
REMARK  status: ('A' for Active; 'I' for Inactive)
REMARK    1  A    between atoms: C_1  and  C_2
REMARK    2  A    between atoms: C_2  and  C_3
REMARK    3  A    between atoms: C_2  and  C_4
REMARK    4  A    between atoms: C_7  and  C_10
REMARK    5  A    between atoms: C_10  and  C_33
REMARK    6  A    between atoms: N_13  and  C_17
REMARK    7  A    between atoms: C_17  and  C_18
REMARK    8  A    between atoms: N_20  and  C_21
REMARK    9  A    between atoms: C_30  and  C_32
REMARK                            x       y       z     vdW  Elec       q    Type
REMARK                         _______ _______ _______ _____ _____    ______ ____
ROOT
ATOM      1  C   UNL     1       0.102  -2.253  -0.009  0.00  0.00    +0.135 C 
ATOM      2  C   UNL     1       0.105  -0.893   0.661  0.00  0.00    +0.251 C 
ATOM      3  O   UNL     1       0.168  -0.663   1.850  0.00  0.00    -0.272 OA
ATOM      4  N   UNL     1       0.022   0.006  -0.339  0.00  0.00    -0.215 N 
ATOM      5  C   UNL     1      -0.037  -0.590  -1.535  0.00  0.00    +0.310 C 
ATOM      6  O   UNL     1      -0.119   0.013  -2.587  0.00  0.00    -0.252 OA
ATOM      7  N   UNL     1       0.010  -1.931  -1.444  0.00  0.00    -0.281 N 
ATOM      8  C   UNL     1       1.400  -3.004   0.292  0.00  0.00    +0.047 C 
ATOM      9  H   UNL     1      -0.009  -2.741  -2.189  0.00  0.00    +0.152 HD
ENDROOT
BRANCH   1  13
ATOM     10  C   UNL     1      -3.284  -4.538   1.240  0.00  0.00    -0.045 A 
ATOM     11  C   UNL     1      -2.748  -4.729  -0.019  0.00  0.00    +0.004 A 
ATOM     12  C   UNL     1      -1.653  -3.989  -0.424  0.00  0.00    +0.006 A 
ATOM     13  C   UNL     1      -1.093  -3.059   0.432  0.00  0.00    -0.015 A 
ATOM     14  C   UNL     1      -1.625  -2.872   1.694  0.00  0.00    +0.006 A 
ATOM     15  C   UNL     1      -2.724  -3.608   2.096  0.00  0.00    +0.004 A 
BRANCH  10  17
ATOM     16  C   UNL     1      -4.113  -6.158   2.925  0.00  0.00    +0.012 C 
ATOM     17  C   UNL     1      -4.478  -5.345   1.682  0.00  0.00    +0.013 C 
ATOM     18  C   UNL     1      -5.637  -4.402   2.011  0.00  0.00    +0.012 C 
ENDBRANCH  10  17
ENDBRANCH   1  13
BRANCH   4  19
ATOM     19  C   UNL     1      -0.006   1.457  -0.141  0.00  0.00    +0.214 C 
BRANCH  19  20
ATOM     20  C   UNL     1       1.403   1.994  -0.155  0.00  0.00    +0.235 C 
ATOM     21  O   UNL     1       2.338   1.238  -0.315  0.00  0.00    -0.274 OA
ATOM     22  N   UNL     1       1.623   3.313   0.011  0.00  0.00    -0.284 N 
ATOM     23  H   UNL     1       0.773   4.009   0.071  0.00  0.00    +0.155 HD
BRANCH  22  24
ATOM     24  C   UNL     1       2.934   3.797   0.105  0.00  0.00    +0.034 A 
ATOM     25  C   UNL     1       3.922   3.025   0.701  0.00  0.00    +0.025 A 
ATOM     26  C   UNL     1       5.212   3.500   0.790  0.00  0.00    +0.025 A 
ATOM     27  C   UNL     1       5.535   4.764   0.292  0.00  0.00    +0.040 A 
ATOM     28  C   UNL     1       4.543   5.531  -0.297  0.00  0.00    -0.023 A 
ATOM     29  C   UNL     1       3.250   5.054  -0.391  0.00  0.00    +0.028 A 
ATOM     30  C   UNL     1       5.151   6.841  -0.747  0.00  0.00    +0.056 C 
ATOM     31  C   UNL     1       6.631   6.740  -0.345  0.00  0.00    +0.118 C 
ATOM     32  N   UNL     1       6.769   5.426   0.287  0.00  0.00    -0.271 N 
ATOM     33  C   UNL     1       7.915   4.927   0.790  0.00  0.00    +0.217 C 
ATOM     34  O   UNL     1       7.949   3.790   1.212  0.00  0.00    -0.276 OA
ATOM     35  C   UNL     1       9.156   5.781   0.830  0.00  0.00    +0.109 C 
ENDBRANCH  22  24
ENDBRANCH  19  20
ENDBRANCH   4  19
TORSDOF 5
