REMARK  Name = ZINC42168468
REMARK  6 active torsions:
REMARK  status: ('A' for Active; 'I' for Inactive)
REMARK    1  A    between atoms: C_1  and  O_2
REMARK    2  A    between atoms: O_2  and  C_3
REMARK    3  A    between atoms: C_3  and  C_5
REMARK    4  A    between atoms: C_10  and  N_11
REMARK    5  A    between atoms: C_12  and  C_14
REMARK    6  A    between atoms: C_14  and  C_15
REMARK                            x       y       z     vdW  Elec       q    Type
REMARK                         _______ _______ _______ _____ _____    ______ ____
ROOT
ATOM      1  C   UNL     1      -0.204  -2.821  -2.109  0.00  0.00    +0.082 A 
ATOM      2  C   UNL     1      -0.720  -3.555  -1.037  0.00  0.00    +0.032 A 
ATOM      3  C   UNL     1       0.136  -4.199  -0.169  0.00  0.00    +0.020 A 
ATOM      4  C   UNL     1       1.508  -4.122  -0.353  0.00  0.00    +0.032 A 
ATOM      5  C   UNL     1       2.032  -3.400  -1.407  0.00  0.00    +0.041 A 
ATOM      6  C   UNL     1       1.185  -2.750  -2.295  0.00  0.00    +0.062 A 
ATOM      7 BR   UNL     1       3.906  -3.302  -1.645  0.00  0.00    -0.048 Br
ATOM      8 BR   UNL     1      -0.565  -5.191   1.280  0.00  0.00    -0.050 Br
ENDROOT
BRANCH   6   9
ATOM      9  N   UNL     1       1.712  -2.026  -3.363  0.00  0.00    -0.284 N 
ATOM     10  C   UNL     1       2.393  -2.661  -4.336  0.00  0.00    +0.216 C 
ATOM     11  O   UNL     1       2.495  -3.869  -4.316  0.00  0.00    -0.276 OA
ATOM     12  H   UNL     1       1.587  -1.065  -3.405  0.00  0.00    +0.155 HD
BRANCH  10  13
ATOM     13  C   UNL     1       3.030  -1.869  -5.450  0.00  0.00    +0.080 C 
BRANCH  13  14
ATOM     14  C   UNL     1       3.736  -2.824  -6.415  0.00  0.00    -0.063 C 
ATOM     15  C   UNL     1       4.355  -2.036  -7.596  0.00  0.00    -0.017 C 
ATOM     16  C   UNL     1       5.485  -2.994  -8.055  0.00  0.00    -0.021 C 
ATOM     17  C   UNL     1       5.980  -3.608  -6.729  0.00  0.00    -0.082 C 
ATOM     18  N   UNL     1       4.885  -3.472  -5.748  0.00  0.00    +0.381 N 
ATOM     19  H   UNL     1       5.193  -2.904  -4.973  0.00  0.00    -0.086 HD
ATOM     20  H   UNL     1       4.613  -4.384  -5.412  0.00  0.00    -0.086 HD
ENDBRANCH  13  14
ENDBRANCH  10  13
ENDBRANCH   6   9
BRANCH   1  21
ATOM     21  C   UNL     1      -1.113  -2.131  -3.041  0.00  0.00    +0.341 C 
ATOM     22  O   UNL     1      -0.669  -1.586  -4.032  0.00  0.00    -0.245 OA
BRANCH  21  24
ATOM     23  C   UNL     1      -3.260  -1.417  -3.740  0.00  0.00    +0.280 C 
ATOM     24  O   UNL     1      -2.438  -2.104  -2.794  0.00  0.00    -0.464 OA
ENDBRANCH  21  24
ENDBRANCH   1  21
TORSDOF 5
