REMARK  Name = ZINC06193636
REMARK  12 active torsions:
REMARK  status: ('A' for Active; 'I' for Inactive)
REMARK    1  A    between atoms: C_1  and  C_2
REMARK    2  A    between atoms: C_2  and  N_67
REMARK    3  A    between atoms: C_3  and  C_4
REMARK    4  A    between atoms: C_3  and  N_67
REMARK    5  A    between atoms: C_10  and  C_12
REMARK    6  A    between atoms: C_10  and  C_27
REMARK    7  A    between atoms: C_10  and  N_67
REMARK    8  A    between atoms: C_16  and  O_24
REMARK    9  A    between atoms: O_24  and  C_25
REMARK   10  A    between atoms: C_25  and  C_26
REMARK   11  A    between atoms: N_31  and  C_32
REMARK   12  A    between atoms: C_32  and  C_33
REMARK                            x       y       z     vdW  Elec       q    Type
REMARK                         _______ _______ _______ _____ _____    ______ ____
ROOT
ATOM      1  C   UNL     1      -2.384   1.259   0.397  0.00  0.00    +0.039 C 
ENDROOT
BRANCH   1   2
ATOM      2  C   UNL     1      -1.094   1.925  -0.010  0.00  0.00    +0.011 A 
ATOM      3  C   UNL     1      -0.452   2.743   0.860  0.00  0.00    +0.017 A 
ATOM      4  C   UNL     1       0.801   3.369   0.436  0.00  0.00    +0.002 A 
ATOM      5  C   UNL     1       1.510   4.218   1.293  0.00  0.00    +0.055 A 
ATOM      6  C   UNL     1       2.689   4.791   0.862  0.00  0.00    +0.121 A 
ATOM      7  C   UNL     1       3.172   4.530  -0.418  0.00  0.00    +0.047 A 
ATOM      8  C   UNL     1       2.483   3.697  -1.272  0.00  0.00    +0.030 A 
ATOM      9  C   UNL     1       1.293   3.107  -0.857  0.00  0.00    +0.049 A 
ATOM     10  N   UNL     1       0.588   2.269  -1.696  0.00  0.00    -0.322 N 
ATOM     11  H   UNL     1       0.938   2.083  -2.615  0.00  0.00    +0.169 HD
ATOM     12  C   UNL     1      -0.562   1.698  -1.298  0.00  0.00    +0.251 A 
ATOM     13  O   UNL     1      -1.158   0.964  -2.066  0.00  0.00    -0.268 OA
BRANCH   6  14
ATOM     14  O   UNL     1       3.383   5.617   1.691  0.00  0.00    -0.492 OA
BRANCH  14  15
ATOM     15  C   UNL     1       4.595   6.177   1.183  0.00  0.00    +0.225 C 
ATOM     16  C   UNL     1       5.230   7.072   2.249  0.00  0.00    +0.048 C 
ENDBRANCH  14  15
ENDBRANCH   6  14
ENDBRANCH   1   2
BRANCH   1  17
ATOM     17  C   UNL     1      -2.616   1.473   1.871  0.00  0.00    +0.143 A 
ATOM     18  N   UNL     1      -3.082   2.558   2.440  0.00  0.00    -0.115 NA
ATOM     19  N   UNL     1      -3.135   2.349   3.710  0.00  0.00    -0.023 NA
ATOM     20  N   UNL     1      -2.714   1.159   3.966  0.00  0.00    -0.044 NA
ATOM     21  N   UNL     1      -2.390   0.585   2.857  0.00  0.00    -0.226 N 
BRANCH  21  22
ATOM     22  C   UNL     1      -1.870  -0.775   2.700  0.00  0.00    +0.182 C 
BRANCH  22  23
ATOM     23  C   UNL     1      -0.364  -0.745   2.731  0.00  0.00    -0.026 A 
ATOM     24  C   UNL     1       0.347  -0.550   1.561  0.00  0.00    +0.008 A 
ATOM     25  C   UNL     1       1.728  -0.517   1.589  0.00  0.00    +0.038 A 
ATOM     26  C   UNL     1       2.400  -0.689   2.787  0.00  0.00    +0.123 A 
ATOM     27  C   UNL     1       1.688  -0.889   3.957  0.00  0.00    +0.038 A 
ATOM     28  C   UNL     1       0.306  -0.916   3.928  0.00  0.00    +0.008 A 
ATOM     29  F   UNL     1       3.751  -0.661   2.815  0.00  0.00    -0.205 F 
ENDBRANCH  22  23
ENDBRANCH  21  22
ENDBRANCH   1  17
BRANCH   1  30
ATOM     30  N   UNL     1      -3.520   1.843  -0.346  0.00  0.00    +0.392 N 
ATOM     31  H   UNL     1      -4.333   1.901   0.278  0.00  0.00    -0.080 HD
BRANCH  30  33
ATOM     32  C   UNL     1      -3.241   4.161   0.381  0.00  0.00    -0.017 C 
ATOM     33  C   UNL     1      -3.174   3.204  -0.811  0.00  0.00    -0.080 C 
ENDBRANCH  30  33
BRANCH  30  34
ATOM     34  C   UNL     1      -3.862   0.987  -1.502  0.00  0.00    -0.042 C 
BRANCH  34  35
ATOM     35  C   UNL     1      -4.675  -0.183  -1.010  0.00  0.00    -0.064 A 
ATOM     36  C   UNL     1      -4.042  -1.346  -0.614  0.00  0.00    +0.002 A 
ATOM     37  C   UNL     1      -4.787  -2.418  -0.159  0.00  0.00    +0.000 A 
ATOM     38  C   UNL     1      -6.166  -2.330  -0.110  0.00  0.00    +0.000 A 
ATOM     39  C   UNL     1      -6.799  -1.169  -0.512  0.00  0.00    +0.000 A 
ATOM     40  C   UNL     1      -6.053  -0.095  -0.962  0.00  0.00    +0.002 A 
ENDBRANCH  34  35
ENDBRANCH  30  34
ENDBRANCH   1  30
TORSDOF 10
