REMARK  Name = ZINC49868057
REMARK  6 active torsions:
REMARK  status: ('A' for Active; 'I' for Inactive)
REMARK    1  A    between atoms: C_1  and  C_2
REMARK    2  A    between atoms: C_4  and  C_9
REMARK    3  A    between atoms: C_10  and  C_20
REMARK    4  A    between atoms: C_12  and  C_17
REMARK    5  A    between atoms: C_13  and  N_15
REMARK    6  A    between atoms: N_15  and  C_16
REMARK                            x       y       z     vdW  Elec       q    Type
REMARK                         _______ _______ _______ _____ _____    ______ ____
ROOT
ATOM      1  C   UNL     1       0.218  -2.666  -2.618  0.00  0.00    +0.051 A 
ATOM      2  C   UNL     1      -0.608  -3.782  -2.471  0.00  0.00    -0.026 A 
ATOM      3  C   UNL     1      -0.801  -4.624  -3.533  0.00  0.00    +0.024 A 
ATOM      4  C   UNL     1      -0.156  -4.334  -4.746  0.00  0.00    +0.101 A 
ATOM      5  C   UNL     1       0.663  -3.191  -4.826  0.00  0.00    +0.111 A 
ATOM      6  N   UNL     1       0.815  -2.404  -3.774  0.00  0.00    -0.342 N 
ATOM      7  C   UNL     1      -1.282  -4.058  -1.152  0.00  0.00    +0.046 C 
ATOM      8  H   UNL     1       1.380  -1.619  -3.848  0.00  0.00    +0.167 HD
ENDROOT
BRANCH   1  12
ATOM      9  C   UNL     1       3.295  -0.095   0.354  0.00  0.00    +0.047 C 
ATOM     10  C   UNL     1       1.902  -0.517  -0.036  0.00  0.00    -0.015 A 
ATOM     11  C   UNL     1       1.714  -1.365  -1.108  0.00  0.00    +0.016 A 
ATOM     12  C   UNL     1       0.425  -1.755  -1.468  0.00  0.00    -0.001 A 
ATOM     13  C   UNL     1      -0.670  -1.286  -0.742  0.00  0.00    +0.013 A 
ATOM     14  C   UNL     1      -0.472  -0.438   0.328  0.00  0.00    +0.039 A 
ATOM     15  C   UNL     1       0.812  -0.057   0.685  0.00  0.00    +0.126 A 
ATOM     16  F   UNL     1       1.001   0.769   1.737  0.00  0.00    -0.205 F 
ENDBRANCH   1  12
BRANCH   5  17
ATOM     17  N   UNL     1       1.306  -2.889  -6.010  0.00  0.00    -0.333 N 
ATOM     18  C   UNL     1       2.058  -1.637  -6.137  0.00  0.00    +0.127 C 
ATOM     19  H   UNL     1       1.261  -3.505  -6.758  0.00  0.00    +0.147 HD
ENDBRANCH   5  17
BRANCH   4  20
ATOM     20  C   UNL     1      -0.333  -5.208  -5.912  0.00  0.00    +0.390 C 
ATOM     21  O   UNL     1      -1.131  -6.135  -5.867  0.00  0.00    -0.240 OA
ATOM     22  O   UNL     1       0.318  -5.010  -6.930  0.00  0.00    -0.240 OA
ENDBRANCH   4  20
TORSDOF 3
