REMARK  Name = ZINC38636658
REMARK  14 active torsions:
REMARK  status: ('A' for Active; 'I' for Inactive)
REMARK    1  A    between atoms: C_1  and  C_2
REMARK    2  A    between atoms: C_2  and  C_3
REMARK    3  A    between atoms: C_6  and  O_32
REMARK    4  A    between atoms: C_7  and  S_9
REMARK    5  A    between atoms: S_9  and  N_12
REMARK    6  A    between atoms: N_12  and  C_13
REMARK    7  A    between atoms: C_13  and  C_14
REMARK    8  A    between atoms: C_14  and  C_16
REMARK    9  A    between atoms: C_14  and  N_25
REMARK   10  A    between atoms: C_19  and  N_22
REMARK   11  A    between atoms: N_22  and  C_23
REMARK   12  A    between atoms: N_22  and  C_24
REMARK   13  A    between atoms: N_28  and  C_31
REMARK   14  A    between atoms: O_32  and  C_33
REMARK                            x       y       z     vdW  Elec       q    Type
REMARK                         _______ _______ _______ _____ _____    ______ ____
ROOT
ATOM      1  C   UNL     1       4.978  -5.059  -3.917  0.00  0.00    +0.102 C 
ENDROOT
BRANCH   1   2
ATOM      2  N   UNL     1       6.291  -4.401  -3.957  0.00  0.00    -0.298 NA
ATOM      3  C   UNL     1       6.288  -3.274  -4.900  0.00  0.00    +0.066 C 
ATOM      4  C   UNL     1       7.653  -2.582  -4.867  0.00  0.00    -0.064 C 
ATOM      5  N   UNL     1       8.700  -3.545  -5.231  0.00  0.00    +0.379 N 
ATOM      6  C   UNL     1       8.707  -4.652  -4.266  0.00  0.00    -0.064 C 
ATOM      7  C   UNL     1       7.351  -5.362  -4.294  0.00  0.00    +0.066 C 
ATOM      8  C   UNL     1      10.007  -2.875  -5.217  0.00  0.00    -0.096 C 
ATOM      9  H   UNL     1       8.518  -3.906  -6.156  0.00  0.00    -0.082 HD
ENDBRANCH   1   2
BRANCH   1  10
ATOM     10  C   UNL     1       4.622  -5.552  -5.296  0.00  0.00    -0.029 A 
ATOM     11  C   UNL     1       4.293  -4.648  -6.289  0.00  0.00    +0.007 A 
ATOM     12  C   UNL     1       3.966  -5.097  -7.553  0.00  0.00    +0.023 A 
ATOM     13  C   UNL     1       3.969  -6.459  -7.827  0.00  0.00    +0.029 A 
ATOM     14  C   UNL     1       4.301  -7.364  -6.828  0.00  0.00    +0.023 A 
ATOM     15  C   UNL     1       4.632  -6.908  -5.567  0.00  0.00    +0.007 A 
BRANCH  13  16
ATOM     16  N   UNL     1       3.639  -6.916  -9.105  0.00  0.00    -0.336 N 
ATOM     17  C   UNL     1       3.289  -5.960 -10.158  0.00  0.00    +0.129 C 
ATOM     18  C   UNL     1       3.642  -8.353  -9.392  0.00  0.00    +0.129 C 
ENDBRANCH  13  16
ENDBRANCH   1  10
BRANCH   1  19
ATOM     19  C   UNL     1       3.921  -4.058  -3.445  0.00  0.00    +0.129 C 
BRANCH  19  20
ATOM     20  N   UNL     1       4.328  -3.489  -2.158  0.00  0.00    -0.188 NA
ATOM     21  H   UNL     1       5.032  -3.911  -1.642  0.00  0.00    +0.148 HD
BRANCH  20  22
ATOM     22  S   UNL     1       3.586  -2.124  -1.585  0.00  0.00    +0.062 S 
ATOM     23  O   UNL     1       3.583  -1.185  -2.651  0.00  0.00    -0.153 OA
ATOM     24  O   UNL     1       4.174  -1.842  -0.323  0.00  0.00    -0.153 OA
BRANCH  22  29
ATOM     25  C   UNL     1       0.089  -2.840   0.262  0.00  0.00    -0.046 A 
ATOM     26  C   UNL     1      -0.744  -3.190  -0.784  0.00  0.00    +0.007 A 
ATOM     27  C   UNL     1      -0.258  -3.216  -2.077  0.00  0.00    +0.048 A 
ATOM     28  C   UNL     1       1.068  -2.890  -2.325  0.00  0.00    +0.146 A 
ATOM     29  C   UNL     1       1.901  -2.539  -1.274  0.00  0.00    +0.147 A 
ATOM     30  C   UNL     1       1.409  -2.509   0.017  0.00  0.00    +0.036 A 
BRANCH  25  32
ATOM     31  C   UNL     1      -1.001  -1.422   1.979  0.00  0.00    +0.009 C 
ATOM     32  C   UNL     1      -0.443  -2.813   1.671  0.00  0.00    +0.032 C 
ENDBRANCH  25  32
BRANCH  28  33
ATOM     33  O   UNL     1       1.548  -2.915  -3.596  0.00  0.00    -0.493 OA
ATOM     34  C   UNL     1       0.633  -3.286  -4.629  0.00  0.00    +0.277 C 
ENDBRANCH  28  33
ENDBRANCH  22  29
ENDBRANCH  20  22
ENDBRANCH  19  20
ENDBRANCH   1  19
TORSDOF 9
