REMARK  Name = ZINC38547650
REMARK  8 active torsions:
REMARK  status: ('A' for Active; 'I' for Inactive)
REMARK    1  A    between atoms: C_1  and  C_2
REMARK    2  A    between atoms: N_8  and  C_9
REMARK    3  A    between atoms: C_9  and  C_11
REMARK    4  A    between atoms: C_9  and  C_18
REMARK    5  A    between atoms: C_19  and  C_32
REMARK    6  A    between atoms: C_20  and  C_31
REMARK    7  A    between atoms: C_22  and  N_23
REMARK    8  A    between atoms: C_24  and  C_26
REMARK                            x       y       z     vdW  Elec       q    Type
REMARK                         _______ _______ _______ _____ _____    ______ ____
ROOT
ATOM      1  C   UNL     1       0.068  -2.143   3.631  0.00  0.00    +0.135 C 
ENDROOT
BRANCH   1   9
ATOM      2  C   UNL     1       0.943   1.073  -0.262  0.00  0.00    +0.044 C 
ATOM      3  C   UNL     1       0.761  -0.417  -0.130  0.00  0.00    -0.046 A 
ATOM      4  C   UNL     1       0.821  -1.241  -1.246  0.00  0.00    +0.021 A 
ATOM      5  C   UNL     1       0.651  -2.602  -1.092  0.00  0.00    +0.084 A 
ATOM      6  N   UNL     1       0.434  -3.126   0.100  0.00  0.00    -0.350 N 
ATOM      7  C   UNL     1       0.370  -2.375   1.188  0.00  0.00    +0.097 A 
ATOM      8  C   UNL     1       0.538  -0.996   1.106  0.00  0.00    +0.045 A 
ATOM      9  N   UNL     1       0.140  -2.969   2.423  0.00  0.00    -0.320 N 
ATOM     10  H   UNL     1       0.026  -3.930   2.485  0.00  0.00    +0.148 HD
ATOM     11  H   UNL     1       0.318  -4.086   0.180  0.00  0.00    +0.166 HD
ENDBRANCH   1   9
BRANCH   1  12
ATOM     12  C   UNL     1       1.462  -1.779   4.073  0.00  0.00    -0.023 A 
ATOM     13  C   UNL     1       2.514  -2.639   3.822  0.00  0.00    +0.007 A 
ATOM     14  C   UNL     1       3.792  -2.305   4.227  0.00  0.00    +0.015 A 
ATOM     15  C   UNL     1       4.019  -1.110   4.885  0.00  0.00    +0.018 A 
ATOM     16  C   UNL     1       2.966  -0.249   5.136  0.00  0.00    +0.015 A 
ATOM     17  C   UNL     1       1.689  -0.581   4.725  0.00  0.00    +0.007 A 
ATOM     18 BR   UNL     1       5.768  -0.652   5.440  0.00  0.00    -0.050 Br
ENDBRANCH   1  12
BRANCH   1  19
ATOM     19  C   UNL     1      -0.621  -2.915   4.727  0.00  0.00    +0.009 A 
ATOM     20  C   UNL     1      -1.615  -2.324   5.486  0.00  0.00    -0.033 A 
ATOM     21  C   UNL     1      -2.214  -3.046   6.462  0.00  0.00    -0.008 A 
ATOM     22  S   UNL     1      -1.374  -4.616   6.335  0.00  0.00    -0.078 S 
ATOM     23  C   UNL     1      -0.281  -4.209   4.984  0.00  0.00    +0.078 A 
ATOM     24  C   UNL     1      -3.308  -2.631   7.412  0.00  0.00    +0.052 C 
ATOM     25  C   UNL     1      -2.025  -0.897   5.230  0.00  0.00    +0.045 C 
BRANCH  23  26
ATOM     26  N   UNL     1       0.676  -5.008   4.355  0.00  0.00    -0.273 N 
ATOM     27  C   UNL     1       0.943  -6.240   4.831  0.00  0.00    +0.284 C 
ATOM     28  O   UNL     1       0.350  -6.657   5.809  0.00  0.00    -0.266 OA
ATOM     29  H   UNL     1       1.149  -4.677   3.575  0.00  0.00    +0.156 HD
BRANCH  27  30
ATOM     30  C   UNL     1       1.948  -7.080   4.171  0.00  0.00    +0.189 A 
ATOM     31  C   UNL     1       2.309  -8.343   4.544  0.00  0.00    +0.054 A 
ATOM     32  C   UNL     1       3.295  -8.764   3.639  0.00  0.00    +0.042 A 
ATOM     33  C   UNL     1       3.490  -7.753   2.763  0.00  0.00    +0.196 A 
ATOM     34  O   UNL     1       2.673  -6.742   3.084  0.00  0.00    -0.458 OA
ENDBRANCH  27  30
ENDBRANCH  23  26
ENDBRANCH   1  19
TORSDOF 5
