REMARK  Name = ZINC10410361
REMARK  8 active torsions:
REMARK  status: ('A' for Active; 'I' for Inactive)
REMARK    1  A    between atoms: C_1  and  C_2
REMARK    2  A    between atoms: C_5  and  N_9
REMARK    3  A    between atoms: C_7  and  C_8
REMARK    4  A    between atoms: C_19  and  S_20
REMARK    5  A    between atoms: S_20  and  C_21
REMARK    6  A    between atoms: C_21  and  C_23
REMARK    7  A    between atoms: C_21  and  C_24
REMARK    8  A    between atoms: N_26  and  C_27
REMARK                            x       y       z     vdW  Elec       q    Type
REMARK                         _______ _______ _______ _____ _____    ______ ____
ROOT
ATOM      1  N   UNL     1       3.009  -4.191  -1.271  0.00  0.00    -0.255 N 
ATOM      2  C   UNL     1       4.212  -4.245  -1.890  0.00  0.00    +0.267 A 
ATOM      3  O   UNL     1       4.397  -4.975  -2.846  0.00  0.00    -0.267 OA
ATOM      4  C   UNL     1       5.286  -3.394  -1.362  0.00  0.00    +0.065 A 
ATOM      5  C   UNL     1       6.561  -3.383  -1.926  0.00  0.00    +0.015 A 
ATOM      6  C   UNL     1       7.526  -2.572  -1.395  0.00  0.00    +0.001 A 
ATOM      7  C   UNL     1       7.249  -1.762  -0.301  0.00  0.00    +0.002 A 
ATOM      8  C   UNL     1       6.009  -1.754   0.272  0.00  0.00    +0.028 A 
ATOM      9  C   UNL     1       5.001  -2.571  -0.249  0.00  0.00    +0.079 A 
ATOM     10  N   UNL     1       3.759  -2.594   0.288  0.00  0.00    -0.223 NA
ATOM     11  C   UNL     1       2.816  -3.361  -0.201  0.00  0.00    +0.177 A 
ENDROOT
BRANCH   1  16
ATOM     12  C   UNL     1      -1.268  -7.416  -3.143  0.00  0.00    +0.044 C 
ATOM     13  C   UNL     1      -0.132  -6.560  -2.646  0.00  0.00    -0.047 A 
ATOM     14  C   UNL     1       0.051  -5.289  -3.162  0.00  0.00    +0.005 A 
ATOM     15  C   UNL     1       1.088  -4.500  -2.704  0.00  0.00    +0.026 A 
ATOM     16  C   UNL     1       1.954  -4.987  -1.733  0.00  0.00    +0.052 A 
ATOM     17  C   UNL     1       1.767  -6.263  -1.218  0.00  0.00    +0.030 A 
ATOM     18  C   UNL     1       0.725  -7.045  -1.676  0.00  0.00    -0.046 A 
ATOM     19  C   UNL     1       0.522  -8.430  -1.118  0.00  0.00    +0.044 C 
ENDBRANCH   1  16
BRANCH  11  20
ATOM     20  S   UNL     1       1.227  -3.329   0.560  0.00  0.00    -0.075 S 
BRANCH  20  21
ATOM     21  C   UNL     1       1.531  -2.117   1.870  0.00  0.00    +0.137 C 
ATOM     22  C   UNL     1       2.558  -2.678   2.855  0.00  0.00    +0.029 C 
BRANCH  21  23
ATOM     23  C   UNL     1       0.242  -1.829   2.597  0.00  0.00    +0.226 C 
ATOM     24  O   UNL     1      -0.646  -2.655   2.606  0.00  0.00    -0.275 OA
ATOM     25  N   UNL     1       0.078  -0.655   3.238  0.00  0.00    -0.312 N 
ATOM     26  H   UNL     1       0.885   0.092   3.233  0.00  0.00    +0.149 HD
BRANCH  25  27
ATOM     27  C   UNL     1      -1.177  -0.373   3.939  0.00  0.00    +0.073 C 
ATOM     28  C   UNL     1      -2.199   0.190   2.950  0.00  0.00    +0.022 C 
ATOM     29  C   UNL     1      -3.510   0.484   3.683  0.00  0.00    +0.002 C 
ATOM     30  C   UNL     1      -3.255   1.508   4.792  0.00  0.00    +0.000 C 
ATOM     31  C   UNL     1      -2.233   0.944   5.781  0.00  0.00    +0.002 C 
ATOM     32  C   UNL     1      -0.922   0.649   5.048  0.00  0.00    +0.022 C 
ENDBRANCH  25  27
ENDBRANCH  21  23
ENDBRANCH  20  21
ENDBRANCH  11  20
TORSDOF 5
