REMARK  Name = ZINC02074220
REMARK  15 active torsions:
REMARK  status: ('A' for Active; 'I' for Inactive)
REMARK    1  A    between atoms: C_1  and  C_2
REMARK    2  A    between atoms: C_2  and  C_3
REMARK    3  A    between atoms: C_3  and  O_4
REMARK    4  A    between atoms: O_4  and  C_5
REMARK    5  A    between atoms: C_5  and  C_7
REMARK    6  A    between atoms: C_8  and  C_40
REMARK    7  A    between atoms: C_12  and  C_14
REMARK    8  A    between atoms: C_17  and  C_20
REMARK    9  A    between atoms: C_20  and  O_22
REMARK   10  A    between atoms: O_22  and  C_23
REMARK   11  A    between atoms: C_27  and  C_30
REMARK   12  A    between atoms: C_33  and  O_38
REMARK   13  A    between atoms: C_34  and  O_36
REMARK   14  A    between atoms: O_36  and  C_37
REMARK   15  A    between atoms: O_38  and  C_39
REMARK                            x       y       z     vdW  Elec       q    Type
REMARK                         _______ _______ _______ _____ _____    ______ ____
ROOT
ATOM      1  C   UNL     1      -0.047   0.089  -0.020  0.00  0.00    +0.065 C 
ATOM      2  C   UNL     1       0.044   1.425  -0.138  0.00  0.00    +0.016 C 
ATOM      3  N   UNL     1       1.265   2.040  -0.126  0.00  0.00    -0.321 N 
ATOM      4  C   UNL     1       2.405   1.331  -0.394  0.00  0.00    +0.016 C 
ATOM      5  C   UNL     1       2.417  -0.015  -0.283  0.00  0.00    +0.024 C 
ATOM      6  C   UNL     1       1.177  -0.764   0.136  0.00  0.00    +0.092 C 
ATOM      7  C   UNL     1       3.581  -0.754  -0.554  0.00  0.00    +0.162 C 
ATOM      8  O   UNL     1       3.554  -1.966  -0.461  0.00  0.00    -0.292 OA
ATOM      9  C   UNL     1       4.861  -0.073  -0.957  0.00  0.00    +0.088 C 
ATOM     10  C   UNL     1       4.888   1.334  -0.350  0.00  0.00    +0.032 C 
ATOM     11  C   UNL     1       3.640   2.087  -0.816  0.00  0.00    +0.059 C 
ATOM     12  C   UNL     1      -1.208   2.250  -0.291  0.00  0.00    +0.061 C 
ATOM     13  H   UNL     1       1.337   3.114   0.100  0.00  0.00    +0.152 HD
ENDROOT
BRANCH   6  14
ATOM     14  C   UNL     1       1.314  -1.174   1.580  0.00  0.00    -0.035 A 
ATOM     15  C   UNL     1       1.450  -0.207   2.560  0.00  0.00    +0.005 A 
ATOM     16  C   UNL     1       1.569  -0.575   3.885  0.00  0.00    +0.015 A 
ATOM     17  C   UNL     1       1.564  -1.927   4.234  0.00  0.00    +0.059 A 
ATOM     18  C   UNL     1       1.431  -2.897   3.239  0.00  0.00    +0.015 A 
ATOM     19  C   UNL     1       1.307  -2.515   1.919  0.00  0.00    +0.005 A 
BRANCH  17  20
ATOM     20  C   UNL     1       1.698  -2.328   5.649  0.00  0.00    +0.339 C 
ATOM     21  O   UNL     1       1.693  -3.505   5.949  0.00  0.00    -0.245 OA
BRANCH  20  22
ATOM     22  O   UNL     1       1.825  -1.389   6.606  0.00  0.00    -0.464 OA
ATOM     23  C   UNL     1       1.952  -1.857   7.975  0.00  0.00    +0.280 C 
ENDBRANCH  20  22
ENDBRANCH  17  20
ENDBRANCH   6  14
BRANCH  10  24
ATOM     24  C   UNL     1       6.123   2.065  -0.812  0.00  0.00    -0.040 A 
ATOM     25  C   UNL     1       6.340   2.267  -2.162  0.00  0.00    +0.008 A 
ATOM     26  C   UNL     1       7.471   2.937  -2.591  0.00  0.00    +0.049 A 
ATOM     27  C   UNL     1       8.389   3.408  -1.667  0.00  0.00    +0.161 A 
ATOM     28  C   UNL     1       8.170   3.205  -0.307  0.00  0.00    +0.162 A 
ATOM     29  C   UNL     1       7.032   2.537   0.116  0.00  0.00    +0.053 A 
BRANCH  28  30
ATOM     30  O   UNL     1       9.068   3.666   0.604  0.00  0.00    -0.491 OA
ATOM     31  C   UNL     1       8.778   3.422   1.982  0.00  0.00    +0.277 C 
ENDBRANCH  28  30
BRANCH  27  32
ATOM     32  O   UNL     1       9.502   4.067  -2.087  0.00  0.00    -0.491 OA
ATOM     33  C   UNL     1       9.661   4.238  -3.496  0.00  0.00    +0.277 C 
ENDBRANCH  27  32
ENDBRANCH  10  24
BRANCH   1  34
ATOM     34  C   UNL     1      -1.321  -0.525  -0.045  0.00  0.00    +0.338 C 
ATOM     35  O   UNL     1      -1.702  -1.097  -1.049  0.00  0.00    -0.245 OA
BRANCH  34  36
ATOM     36  O   UNL     1      -2.115  -0.475   1.045  0.00  0.00    -0.461 OA
BRANCH  36  37
ATOM     37  C   UNL     1      -3.389  -1.116   0.950  0.00  0.00    +0.232 C 
BRANCH  37  39
ATOM     38  C   UNL     1      -5.505  -1.641   2.171  0.00  0.00    +0.007 C 
ATOM     39  C   UNL     1      -4.141  -0.955   2.273  0.00  0.00    +0.038 C 
ENDBRANCH  37  39
ENDBRANCH  36  37
ENDBRANCH  34  36
ENDBRANCH   1  34
TORSDOF 10
