REMARK  Name = ZINC14609025
REMARK  7 active torsions:
REMARK  status: ('A' for Active; 'I' for Inactive)
REMARK    1  A    between atoms: C_1  and  C_2
REMARK    2  A    between atoms: C_5  and  C_8
REMARK    3  A    between atoms: C_12  and  C_18
REMARK    4  A    between atoms: C_18  and  N_19
REMARK    5  A    between atoms: N_19  and  C_20
REMARK    6  A    between atoms: C_25  and  O_26
REMARK    7  A    between atoms: O_26  and  C_27
REMARK                            x       y       z     vdW  Elec       q    Type
REMARK                         _______ _______ _______ _____ _____    ______ ____
ROOT
ATOM      1  C   UNL     1       0.059  -4.256  -0.021  0.00  0.00    +0.184 A 
ATOM      2  N   UNL     1       0.070  -5.022  -1.115  0.00  0.00    -0.189 NA
ATOM      3  C   UNL     1       0.087  -6.301  -0.764  0.00  0.00    +0.257 A 
ATOM      4  N   UNL     1       0.103  -7.432  -1.481  0.00  0.00    -0.214 NA
ATOM      5  C   UNL     1       0.120  -8.609  -0.892  0.00  0.00    +0.067 A 
ATOM      6  C   UNL     1       0.121  -8.701   0.499  0.00  0.00    +0.097 A 
ATOM      7  C   UNL     1       0.104  -7.554   1.244  0.00  0.00    +0.276 A 
ATOM      8  O   UNL     1       0.105  -7.612   2.595  0.00  0.00    -0.266 OA
ATOM      9  N   UNL     1       0.088  -6.351   0.602  0.00  0.00    -0.159 N 
ATOM     10  N   UNL     1       0.075  -5.024   1.050  0.00  0.00    -0.140 NA
ENDROOT
BRANCH   1  15
ATOM     11  C   UNL     1      -0.018   1.503   0.010  0.00  0.00    +0.044 C 
ATOM     12  C   UNL     1       0.002  -0.004   0.002  0.00  0.00    -0.050 A 
ATOM     13  C   UNL     1       0.006  -0.686  -1.201  0.00  0.00    +0.004 A 
ATOM     14  C   UNL     1       0.024  -2.067  -1.214  0.00  0.00    +0.012 A 
ATOM     15  C   UNL     1       0.040  -2.772  -0.013  0.00  0.00    +0.021 A 
ATOM     16  C   UNL     1       0.036  -2.080   1.196  0.00  0.00    +0.012 A 
ATOM     17  C   UNL     1       0.023  -0.700   1.198  0.00  0.00    +0.004 A 
ENDBRANCH   1  15
BRANCH   5  18
ATOM     18  C   UNL     1       0.138  -9.864  -1.726  0.00  0.00    +0.157 C 
BRANCH  18  19
ATOM     19  N   UNL     1       0.133  -9.506  -3.147  0.00  0.00    -0.335 N 
ATOM     20  H   UNL     1       0.120  -8.573  -3.412  0.00  0.00    +0.147 HD
BRANCH  19  21
ATOM     21  C   UNL     1       0.147 -10.510  -4.122  0.00  0.00    +0.071 A 
ATOM     22  C   UNL     1       0.160 -11.845  -3.744  0.00  0.00    +0.046 A 
ATOM     23  C   UNL     1       0.174 -12.836  -4.709  0.00  0.00    +0.043 A 
ATOM     24  C   UNL     1       0.174 -12.498  -6.051  0.00  0.00    +0.024 A 
ATOM     25  C   UNL     1       0.162 -11.169  -6.434  0.00  0.00    +0.049 A 
ATOM     26  C   UNL     1       0.142 -10.172  -5.473  0.00  0.00    +0.141 A 
ATOM     27 CL   UNL     1       0.190 -14.506  -4.236  0.00  0.00    -0.083 Cl
BRANCH  26  28
ATOM     28  O   UNL     1       0.124  -8.864  -5.848  0.00  0.00    -0.493 OA
ATOM     29  C   UNL     1       0.121  -8.592  -7.251  0.00  0.00    +0.277 C 
ENDBRANCH  26  28
ENDBRANCH  19  21
ENDBRANCH  18  19
ENDBRANCH   5  18
TORSDOF 5
