REMARK  Name = ZINC18021796
REMARK  8 active torsions:
REMARK  status: ('A' for Active; 'I' for Inactive)
REMARK    1  A    between atoms: C_1  and  C_2
REMARK    2  A    between atoms: C_5  and  S_9
REMARK    3  A    between atoms: C_6  and  C_8
REMARK    4  A    between atoms: S_9  and  N_12
REMARK    5  A    between atoms: C_15  and  C_18
REMARK    6  A    between atoms: N_20  and  C_21
REMARK    7  A    between atoms: C_21  and  C_23
REMARK    8  A    between atoms: C_21  and  C_24
REMARK                            x       y       z     vdW  Elec       q    Type
REMARK                         _______ _______ _______ _____ _____    ______ ____
ROOT
ATOM      1  N   UNL     1      -0.227   1.618   0.011  0.00  0.00    -0.177 NA
ATOM      2  C   UNL     1      -1.576   2.176   0.177  0.00  0.00    +0.110 C 
ATOM      3  C   UNL     1      -1.553   3.171   1.347  0.00  0.00    +0.030 C 
ATOM      4  C   UNL     1      -0.466   4.218   1.097  0.00  0.00    +0.077 C 
ATOM      5  C   UNL     1       0.899   3.532   1.023  0.00  0.00    +0.030 C 
ATOM      6  C   UNL     1       0.905   2.541  -0.146  0.00  0.00    +0.110 C 
ENDROOT
BRANCH   4   7
ATOM      7  C   UNL     1      -0.464   5.219   2.225  0.00  0.00    +0.217 C 
ATOM      8  O   UNL     1       0.531   5.367   2.902  0.00  0.00    -0.275 OA
ATOM      9  N   UNL     1      -1.569   5.948   2.481  0.00  0.00    -0.308 N 
ATOM     10  H   UNL     1      -2.365   5.829   1.939  0.00  0.00    +0.149 HD
BRANCH   9  11
ATOM     11  C   UNL     1      -1.567   6.920   3.576  0.00  0.00    +0.102 C 
ATOM     12  C   UNL     1      -1.910   6.210   4.888  0.00  0.00    +0.033 C 
BRANCH  11  13
ATOM     13  C   UNL     1      -2.592   7.989   3.301  0.00  0.00    -0.009 A 
ATOM     14  C   UNL     1      -3.672   7.717   2.482  0.00  0.00    +0.008 A 
ATOM     15  C   UNL     1      -4.615   8.696   2.233  0.00  0.00    +0.020 A 
ATOM     16  C   UNL     1      -4.474   9.952   2.795  0.00  0.00    +0.042 A 
ATOM     17  C   UNL     1      -3.391  10.227   3.610  0.00  0.00    +0.040 A 
ATOM     18  C   UNL     1      -2.450   9.245   3.863  0.00  0.00    +0.047 A 
ATOM     19 CL   UNL     1      -1.090   9.589   4.887  0.00  0.00    -0.083 Cl
ATOM     20 CL   UNL     1      -5.656  11.184   2.477  0.00  0.00    -0.083 Cl
ENDBRANCH  11  13
ENDBRANCH   9  11
ENDBRANCH   4   7
BRANCH   1  21
ATOM     21  S   UNL     1       0.012  -0.021  -0.004  0.00  0.00    +0.061 S 
ATOM     22  O   UNL     1      -1.189  -0.602  -0.493  0.00  0.00    -0.153 OA
ATOM     23  O   UNL     1       1.272  -0.241  -0.623  0.00  0.00    -0.153 OA
BRANCH  21  28
ATOM     24  C   UNL     1       0.575  -1.798   5.734  0.00  0.00    +0.044 C 
ATOM     25  C   UNL     1       0.434  -1.354   4.301  0.00  0.00    -0.050 A 
ATOM     26  C   UNL     1      -0.669  -1.739   3.563  0.00  0.00    +0.005 A 
ATOM     27  C   UNL     1      -0.798  -1.332   2.249  0.00  0.00    +0.029 A 
ATOM     28  C   UNL     1       0.176  -0.539   1.672  0.00  0.00    +0.108 A 
ATOM     29  C   UNL     1       1.282  -0.158   2.408  0.00  0.00    -0.024 A 
ATOM     30  C   UNL     1       1.409  -0.561   3.724  0.00  0.00    +0.008 A 
ATOM     31  C   UNL     1       2.348   0.701   1.777  0.00  0.00    +0.046 C 
ENDBRANCH  21  28
ENDBRANCH   1  21
TORSDOF 5
