REMARK  Name = ZINC52003248
REMARK  3 active torsions:
REMARK  status: ('A' for Active; 'I' for Inactive)
REMARK    1  A    between atoms: C_4  and  N_7
REMARK    2  A    between atoms: N_10  and  C_11
REMARK    3  A    between atoms: C_17  and  O_19
REMARK                            x       y       z     vdW  Elec       q    Type
REMARK                         _______ _______ _______ _____ _____    ______ ____
ROOT
ATOM      1  N   UNL     1       2.839  -0.440  -2.473  0.00  0.00    -0.297 N 
ATOM      2  C   UNL     1       3.424  -1.655  -2.483  0.00  0.00    +0.300 C 
ATOM      3  O   UNL     1       3.383  -2.358  -1.492  0.00  0.00    -0.253 OA
ATOM      4  N   UNL     1       4.055  -2.089  -3.592  0.00  0.00    -0.294 N 
ATOM      5  H   UNL     1       2.872   0.121  -3.264  0.00  0.00    +0.151 HD
ATOM      6  H   UNL     1       4.088  -1.528  -4.383  0.00  0.00    +0.151 HD
ENDROOT
BRANCH   1  10
ATOM      7  C   UNL     1      -0.019   1.526   0.010  0.00  0.00    +0.000 C 
ATOM      8  C   UNL     1       1.417   2.055  -0.000  0.00  0.00    +0.002 C 
ATOM      9  C   UNL     1       2.133   1.562  -1.259  0.00  0.00    +0.022 C 
ATOM     10  C   UNL     1       2.154   0.032  -1.268  0.00  0.00    +0.074 C 
ATOM     11  C   UNL     1       0.718  -0.497  -1.257  0.00  0.00    +0.022 C 
ATOM     12  C   UNL     1       0.002  -0.004   0.002  0.00  0.00    +0.002 C 
ENDBRANCH   1  10
BRANCH   4  13
ATOM     13  C   UNL     1       4.691  -3.409  -3.603  0.00  0.00    +0.103 C 
ATOM     14  C   UNL     1       6.102  -3.300  -3.021  0.00  0.00    +0.025 C 
ATOM     15  C   UNL     1       6.766  -4.678  -3.033  0.00  0.00    +0.002 C 
ATOM     16  C   UNL     1       6.846  -5.194  -4.471  0.00  0.00    +0.003 C 
ATOM     17  C   UNL     1       5.436  -5.302  -5.053  0.00  0.00    +0.033 C 
ATOM     18  C   UNL     1       4.771  -3.924  -5.042  0.00  0.00    +0.135 C 
BRANCH  18  19
ATOM     19  O   UNL     1       3.454  -4.026  -5.586  0.00  0.00    -0.390 OA
ATOM     20  H   UNL     1       3.429  -4.347  -6.497  0.00  0.00    +0.210 HD
ENDBRANCH  18  19
ENDBRANCH   4  13
TORSDOF 3
