REMARK  Name = ZINC07907981
REMARK  4 active torsions:
REMARK  status: ('A' for Active; 'I' for Inactive)
REMARK    1  A    between atoms: C_1  and  C_2
REMARK    2  A    between atoms: C_2  and  C_4
REMARK    3  A    between atoms: C_2  and  N_9
REMARK    4  A    between atoms: C_13  and  C_19
REMARK                            x       y       z     vdW  Elec       q    Type
REMARK                         _______ _______ _______ _____ _____    ______ ____
ROOT
ATOM      1  N   UNL     1       4.724   6.421  -0.009  0.00  0.00    -0.319 N 
ATOM      2  C   UNL     1       5.635   5.381  -0.023  0.00  0.00    +0.131 A 
ATOM      3  C   UNL     1       5.187   4.030  -0.026  0.00  0.00    +0.048 A 
ATOM      4  C   UNL     1       3.837   3.503  -0.017  0.00  0.00    +0.029 A 
ATOM      5  C   UNL     1       3.657   2.160  -0.022  0.00  0.00    +0.022 A 
ATOM      6  S   UNL     1       5.320   1.519  -0.034  0.00  0.00    -0.069 S 
ATOM      7  C   UNL     1       6.209   3.053  -0.041  0.00  0.00    +0.114 A 
ATOM      8  N   UNL     1       7.483   3.393  -0.050  0.00  0.00    -0.228 NA
ATOM      9  C   UNL     1       7.836   4.664  -0.047  0.00  0.00    +0.224 A 
ATOM     10  N   UNL     1       6.935   5.630  -0.033  0.00  0.00    -0.220 NA
ATOM     11  H   UNL     1       3.772   6.232  -0.001  0.00  0.00    +0.148 HD
ENDROOT
BRANCH   5  12
ATOM     12  C   UNL     1       2.385   1.407  -0.013  0.00  0.00    -0.011 A 
ATOM     13  C   UNL     1       1.167   2.088   0.002  0.00  0.00    +0.009 A 
ATOM     14  C   UNL     1      -0.017   1.379   0.010  0.00  0.00    +0.001 A 
ATOM     15  C   UNL     1       0.002  -0.004   0.002  0.00  0.00    +0.000 A 
ATOM     16  C   UNL     1       1.206  -0.686  -0.013  0.00  0.00    +0.001 A 
ATOM     17  C   UNL     1       2.397   0.011  -0.021  0.00  0.00    +0.009 A 
ENDBRANCH   5  12
BRANCH   1  19
ATOM     18  C   UNL     1       5.464   8.259  -1.442  0.00  0.00    +0.036 C 
ATOM     19  C   UNL     1       5.195   7.808  -0.005  0.00  0.00    +0.135 C 
BRANCH  19  20
ATOM     20  C   UNL     1       4.143   8.695   0.610  0.00  0.00    +0.125 A 
ATOM     21  C   UNL     1       4.372   9.724   1.445  0.00  0.00    +0.046 A 
ATOM     22  C   UNL     1       3.111  10.272   1.775  0.00  0.00    +0.041 A 
ATOM     23  C   UNL     1       2.187   9.544   1.122  0.00  0.00    +0.195 A 
ATOM     24  O   UNL     1       2.818   8.594   0.413  0.00  0.00    -0.466 OA
ENDBRANCH  19  20
ENDBRANCH   1  19
TORSDOF 3
