REMARK  Name = ZINC67321247
REMARK  7 active torsions:
REMARK  status: ('A' for Active; 'I' for Inactive)
REMARK    1  A    between atoms: C_1  and  C_2
REMARK    2  A    between atoms: C_2  and  N_3
REMARK    3  A    between atoms: N_7  and  C_8
REMARK    4  A    between atoms: C_8  and  C_9
REMARK    5  A    between atoms: C_15  and  N_16
REMARK    6  A    between atoms: C_15  and  O_26
REMARK    7  A    between atoms: N_16  and  C_17
REMARK                            x       y       z     vdW  Elec       q    Type
REMARK                         _______ _______ _______ _____ _____    ______ ____
ROOT
ATOM      1  N   UNL     1      -1.318  -0.650   2.196  0.00  0.00    -0.314 N 
ATOM      2  C   UNL     1      -1.643  -1.871   1.642  0.00  0.00    +0.220 A 
ATOM      3  N   UNL     1      -2.839  -2.413   1.851  0.00  0.00    -0.182 NA
ATOM      4  C   UNL     1      -3.157  -3.577   1.312  0.00  0.00    +0.204 A 
ATOM      5  N   UNL     1      -4.409  -4.109   1.545  0.00  0.00    -0.315 N 
ATOM      6  N   UNL     1      -2.285  -4.257   0.540  0.00  0.00    -0.246 N 
ATOM      7  C   UNL     1      -1.087  -3.700   0.364  0.00  0.00    +0.178 A 
ATOM      8  N   UNL     1      -0.768  -2.526   0.884  0.00  0.00    -0.190 NA
ATOM      9  S   UNL     1      -0.137  -4.834  -0.630  0.00  0.00    -0.081 S 
ATOM     10  C   UNL     1      -1.260  -6.289  -0.496  0.00  0.00    +0.157 C 
ATOM     11  C   UNL     1      -2.561  -5.540  -0.119  0.00  0.00    +0.230 C 
ATOM     12  H   UNL     1      -1.963  -0.180   2.747  0.00  0.00    +0.149 HD
ATOM     13  H   UNL     1      -4.654  -4.963   1.155  0.00  0.00    +0.149 HD
ENDROOT
BRANCH   1  15
ATOM     14  C   UNL     1       0.103   1.282   2.675  0.00  0.00    +0.024 C 
ATOM     15  C   UNL     1       0.002  -0.063   1.952  0.00  0.00    +0.101 C 
ENDBRANCH   1  15
BRANCH   5  16
ATOM     16  C   UNL     1      -5.369  -3.384   2.381  0.00  0.00    +0.101 C 
ATOM     17  C   UNL     1      -6.669  -4.185   2.477  0.00  0.00    +0.024 C 
ENDBRANCH   5  16
BRANCH  11  18
ATOM     18  N   UNL     1      -3.350  -6.380   0.785  0.00  0.00    -0.296 N 
ATOM     19  H   UNL     1      -3.916  -7.081   0.426  0.00  0.00    +0.151 HD
BRANCH  18  20
ATOM     20  C   UNL     1      -3.287  -6.172   2.167  0.00  0.00    +0.068 A 
ATOM     21  C   UNL     1      -2.089  -5.793   2.760  0.00  0.00    +0.065 A 
ATOM     22  C   UNL     1      -2.030  -5.587   4.126  0.00  0.00    +0.042 A 
ATOM     23  C   UNL     1      -3.162  -5.759   4.902  0.00  0.00    +0.044 A 
ATOM     24  C   UNL     1      -4.356  -6.137   4.315  0.00  0.00    +0.042 A 
ATOM     25  C   UNL     1      -4.423  -6.338   2.949  0.00  0.00    +0.065 A 
ATOM     26 CL   UNL     1      -5.924  -6.805   2.212  0.00  0.00    -0.082 Cl
ATOM     27 CL   UNL     1      -3.083  -5.501   6.617  0.00  0.00    -0.083 Cl
ATOM     28 CL   UNL     1      -0.667  -5.577   1.787  0.00  0.00    -0.082 Cl
ENDBRANCH  18  20
ENDBRANCH  11  18
BRANCH  11  29
ATOM     29  O   UNL     1      -3.320  -5.299  -1.305  0.00  0.00    -0.354 OA
ATOM     30  H   UNL     1      -3.543  -6.100  -1.799  0.00  0.00    +0.214 HD
ENDBRANCH  11  29
TORSDOF 5
