REMARK  Name = ZINC09092559
REMARK  7 active torsions:
REMARK  status: ('A' for Active; 'I' for Inactive)
REMARK    1  A    between atoms: C_1  and  C_2
REMARK    2  A    between atoms: C_2  and  C_4
REMARK    3  A    between atoms: C_2  and  N_14
REMARK    4  A    between atoms: C_15  and  C_17
REMARK    5  A    between atoms: C_17  and  N_18
REMARK    6  A    between atoms: C_21  and  C_25
REMARK    7  A    between atoms: C_21  and  C_26
REMARK                            x       y       z     vdW  Elec       q    Type
REMARK                         _______ _______ _______ _____ _____    ______ ____
ROOT
ATOM      1  N   UNL     1       1.356   2.010  -0.000  0.00  0.00    -0.215 N 
ATOM      2  C   UNL     1       2.056   2.278  -1.120  0.00  0.00    +0.251 C 
ATOM      3  O   UNL     1       1.681   2.149  -2.266  0.00  0.00    -0.272 OA
ATOM      4  C   UNL     1       3.409   2.774  -0.650  0.00  0.00    +0.135 C 
ATOM      5  N   UNL     1       3.304   2.723   0.819  0.00  0.00    -0.281 N 
ATOM      6  C   UNL     1       2.070   2.269   1.101  0.00  0.00    +0.310 C 
ATOM      7  O   UNL     1       1.651   2.110   2.231  0.00  0.00    -0.252 OA
ATOM      8  C   UNL     1       3.650   4.209  -1.123  0.00  0.00    +0.047 C 
ATOM      9  H   UNL     1       3.991   2.971   1.458  0.00  0.00    +0.152 HD
ENDROOT
BRANCH   4  10
ATOM     10  C   UNL     1       4.506   1.864  -1.139  0.00  0.00    -0.012 A 
ATOM     11  C   UNL     1       4.355   1.180  -2.330  0.00  0.00    +0.010 A 
ATOM     12  C   UNL     1       5.359   0.344  -2.783  0.00  0.00    +0.050 A 
ATOM     13  C   UNL     1       6.520   0.192  -2.043  0.00  0.00    +0.166 A 
ATOM     14  C   UNL     1       6.673   0.881  -0.843  0.00  0.00    +0.167 A 
ATOM     15  C   UNL     1       5.664   1.720  -0.397  0.00  0.00    +0.055 A 
ATOM     16  O   UNL     1       7.889   0.566  -0.309  0.00  0.00    -0.453 OA
ATOM     17  C   UNL     1       8.306  -0.634  -0.987  0.00  0.00    +0.466 C 
ATOM     18  O   UNL     1       7.641  -0.556  -2.262  0.00  0.00    -0.453 OA
ENDBRANCH   4  10
BRANCH   1  19
ATOM     19  C   UNL     1      -0.018   1.503   0.010  0.00  0.00    +0.213 C 
BRANCH  19  21
ATOM     20  N   UNL     1      -1.156  -0.694   0.009  0.00  0.00    -0.307 N 
ATOM     21  C   UNL     1       0.002  -0.004   0.002  0.00  0.00    +0.231 C 
ATOM     22  O   UNL     1       1.060  -0.596  -0.011  0.00  0.00    -0.274 OA
ATOM     23  H   UNL     1      -2.002  -0.220   0.020  0.00  0.00    +0.149 HD
BRANCH  20  25
ATOM     24  C   UNL     1      -1.017  -2.659  -1.440  0.00  0.00    +0.033 C 
ATOM     25  C   UNL     1      -1.136  -2.159   0.001  0.00  0.00    +0.100 C 
BRANCH  25  26
ATOM     26  C   UNL     1      -2.411  -2.682   0.611  0.00  0.00    -0.027 A 
ATOM     27  C   UNL     1      -3.618  -2.046   0.328  0.00  0.00    +0.006 A 
ATOM     28  C   UNL     1      -4.788  -2.496   0.858  0.00  0.00    +0.009 A 
ATOM     29  C   UNL     1      -4.781  -3.611   1.713  0.00  0.00    -0.018 A 
ATOM     30  C   UNL     1      -5.968  -4.101   2.285  0.00  0.00    +0.008 A 
ATOM     31  C   UNL     1      -5.922  -5.184   3.108  0.00  0.00    +0.001 A 
ATOM     32  C   UNL     1      -4.714  -5.816   3.395  0.00  0.00    +0.001 A 
ATOM     33  C   UNL     1      -3.545  -5.370   2.860  0.00  0.00    +0.008 A 
ATOM     34  C   UNL     1      -3.552  -4.255   2.005  0.00  0.00    -0.018 A 
ATOM     35  C   UNL     1      -2.365  -3.764   1.434  0.00  0.00    +0.014 A 
ENDBRANCH  25  26
ENDBRANCH  20  25
ENDBRANCH  19  21
ENDBRANCH   1  19
TORSDOF 5
