REMARK  Name = ZINC63438513
REMARK  7 active torsions:
REMARK  status: ('A' for Active; 'I' for Inactive)
REMARK    1  A    between atoms: C_1  and  O_2
REMARK    2  A    between atoms: O_2  and  C_3
REMARK    3  A    between atoms: C_6  and  C_11
REMARK    4  A    between atoms: C_8  and  O_9
REMARK    5  A    between atoms: O_9  and  C_10
REMARK    6  A    between atoms: C_14  and  C_15
REMARK    7  A    between atoms: C_18  and  C_20
REMARK                            x       y       z     vdW  Elec       q    Type
REMARK                         _______ _______ _______ _____ _____    ______ ____
ROOT
ATOM      1  C   UNL     1      -4.964  -2.630   0.160  0.00  0.00    +0.232 C 
ATOM      2  N   UNL     1      -6.115  -2.030   0.284  0.00  0.00    -0.205 NA
ATOM      3  C   UNL     1      -7.114  -2.925   0.031  0.00  0.00    +0.154 C 
ATOM      4  C   UNL     1      -8.476  -2.689   0.057  0.00  0.00    +0.063 C 
ATOM      5  C   UNL     1      -6.436  -4.194  -0.276  0.00  0.00    +0.364 C 
ATOM      6  O   UNL     1      -6.954  -5.258  -0.561  0.00  0.00    -0.243 OA
ATOM      7  O   UNL     1      -5.116  -3.925  -0.180  0.00  0.00    -0.402 OA
ENDROOT
BRANCH   1  11
ATOM      8  C   UNL     1      -1.206  -0.731   0.739  0.00  0.00    +0.162 A 
ATOM      9  C   UNL     1      -2.380  -0.009   0.899  0.00  0.00    +0.050 A 
ATOM     10  C   UNL     1      -3.601  -0.622   0.712  0.00  0.00    +0.017 A 
ATOM     11  C   UNL     1      -3.658  -1.973   0.360  0.00  0.00    +0.041 A 
ATOM     12  C   UNL     1      -2.475  -2.699   0.198  0.00  0.00    +0.062 A 
ATOM     13  C   UNL     1      -1.255  -2.077   0.382  0.00  0.00    +0.162 A 
BRANCH   8  15
ATOM     14  C   UNL     1      -0.028   1.259   1.290  0.00  0.00    +0.277 C 
ATOM     15  O   UNL     1      -0.005  -0.123   0.925  0.00  0.00    -0.491 OA
ENDBRANCH   8  15
BRANCH  13  16
ATOM     16  O   UNL     1      -0.102  -2.780   0.221  0.00  0.00    -0.491 OA
ATOM     17  C   UNL     1      -0.227  -4.156  -0.145  0.00  0.00    +0.277 C 
ENDBRANCH  13  16
ENDBRANCH   1  11
BRANCH   4  18
ATOM     18  C   UNL     1      -9.386  -3.772  -0.042  0.00  0.00    +0.074 A 
ATOM     19  C   UNL     1     -10.751  -3.546  -0.140  0.00  0.00    +0.075 A 
ATOM     20  S   UNL     1     -11.374  -5.107  -0.231  0.00  0.00    -0.072 S 
ATOM     21  C   UNL     1      -9.837  -6.007  -0.137  0.00  0.00    +0.144 A 
ATOM     22  N   UNL     1      -8.948  -5.032  -0.048  0.00  0.00    -0.236 NA
BRANCH  21  23
ATOM     23  C   UNL     1      -9.615  -7.461  -0.159  0.00  0.00    +0.160 A 
ATOM     24  C   UNL     1     -10.581  -8.416  -0.265  0.00  0.00    +0.052 A 
ATOM     25  C   UNL     1      -9.924  -9.661  -0.245  0.00  0.00    +0.042 A 
ATOM     26  C   UNL     1      -8.604  -9.409  -0.130  0.00  0.00    +0.196 A 
ATOM     27  O   UNL     1      -8.421  -8.080  -0.084  0.00  0.00    -0.461 OA
ENDBRANCH  21  23
ENDBRANCH   4  18
TORSDOF 5
