REMARK  Name = ZINC39855572
REMARK  9 active torsions:
REMARK  status: ('A' for Active; 'I' for Inactive)
REMARK    1  A    between atoms: C_1  and  C_2
REMARK    2  A    between atoms: C_4  and  C_28
REMARK    3  A    between atoms: C_5  and  N_11
REMARK    4  A    between atoms: C_6  and  N_8
REMARK    5  A    between atoms: C_12  and  C_14
REMARK    6  A    between atoms: C_15  and  C_27
REMARK    7  A    between atoms: C_20  and  C_25
REMARK    8  A    between atoms: C_20  and  C_26
REMARK    9  A    between atoms: C_22  and  O_24
REMARK                            x       y       z     vdW  Elec       q    Type
REMARK                         _______ _______ _______ _____ _____    ______ ____
ROOT
ATOM      1  N   UNL     1      -1.219  -3.864   0.019  0.00  0.00    -0.277 N 
ATOM      2  C   UNL     1      -1.020  -4.545   1.165  0.00  0.00    +0.284 C 
ATOM      3  O   UNL     1      -0.814  -3.943   2.202  0.00  0.00    -0.266 OA
ATOM      4  H   UNL     1      -1.303  -4.342  -0.821  0.00  0.00    +0.155 HD
ENDROOT
BRANCH   2   5
ATOM      5  C   UNL     1      -1.052  -6.011   1.161  0.00  0.00    +0.193 A 
ATOM      6  C   UNL     1      -0.873  -6.821   2.249  0.00  0.00    +0.006 A 
ATOM      7  C   UNL     1      -0.985  -8.134   1.789  0.00  0.00    +0.025 A 
ATOM      8  C   UNL     1      -1.227  -8.078   0.456  0.00  0.00    +0.112 A 
ATOM      9  O   UNL     1      -1.270  -6.797   0.084  0.00  0.00    -0.454 OA
ATOM     10  C   UNL     1      -1.416  -9.297  -0.415  0.00  0.00    +0.081 C 
ATOM     11  C   UNL     1      -1.705 -10.500   0.491  0.00  0.00    -0.025 C 
ATOM     12  C   UNL     1      -0.653 -10.570   1.601  0.00  0.00    +0.043 C 
ATOM     13  C   UNL     1      -0.867  -9.411   2.581  0.00  0.00    +0.149 C 
ATOM     14  C   UNL     1      -1.658 -11.785  -0.338  0.00  0.00    +0.011 C 
ATOM     15  C   UNL     1      -3.094 -10.346   1.114  0.00  0.00    +0.011 C 
ATOM     16  C   UNL     1      -0.605  -6.381   3.666  0.00  0.00    +0.048 C 
BRANCH  13  17
ATOM     17  O   UNL     1       0.246  -9.322   3.473  0.00  0.00    -0.387 OA
ATOM     18  H   UNL     1       0.409 -10.130   3.979  0.00  0.00    +0.210 HD
ENDBRANCH  13  17
ENDBRANCH   2   5
BRANCH   1  23
ATOM     19  C   UNL     1      -1.564   1.797   0.106  0.00  0.00    +0.044 C 
ATOM     20  C   UNL     1      -1.473   0.293   0.083  0.00  0.00    -0.048 A 
ATOM     21  C   UNL     1      -0.349  -0.337   0.586  0.00  0.00    +0.008 A 
ATOM     22  C   UNL     1      -0.262  -1.715   0.566  0.00  0.00    -0.027 A 
ATOM     23  C   UNL     1      -1.304  -2.468   0.041  0.00  0.00    +0.067 A 
ATOM     24  C   UNL     1      -2.431  -1.832  -0.463  0.00  0.00    +0.148 A 
ATOM     25  C   UNL     1      -2.514  -0.453  -0.435  0.00  0.00    +0.038 A 
ATOM     26  C   UNL     1       0.963  -2.402   1.114  0.00  0.00    +0.046 C 
BRANCH  24  27
ATOM     27  N   UNL     1      -3.544  -2.630  -1.024  0.00  0.00    +0.058 N 
ATOM     28  O   UNL     1      -4.525  -2.075  -1.463  0.00  0.00    -0.126 OA
ATOM     29  O   UNL     1      -3.473  -3.837  -1.043  0.00  0.00    -0.126 OA
ENDBRANCH  24  27
ENDBRANCH   1  23
TORSDOF 4
