REMARK  Name = ZINC37364364
REMARK  3 active torsions:
REMARK  status: ('A' for Active; 'I' for Inactive)
REMARK    1  A    between atoms: C_6  and  C_7
REMARK    2  A    between atoms: C_7  and  C_9
REMARK    3  A    between atoms: C_16  and  N_19
REMARK                            x       y       z     vdW  Elec       q    Type
REMARK                         _______ _______ _______ _____ _____    ______ ____
ROOT
ATOM      1  C   UNL     1      -1.246  -2.226  -0.108  0.00  0.00    +0.047 A 
ATOM      2  C   UNL     1      -0.141  -3.030  -0.132  0.00  0.00    +0.095 A 
ATOM      3  N   UNL     1      -0.519  -4.324  -0.252  0.00  0.00    -0.360 N 
ATOM      4  H   UNL     1       0.090  -5.077  -0.290  0.00  0.00    +0.165 HD
ATOM      5  C   UNL     1      -1.895  -4.421  -0.313  0.00  0.00    +0.047 A 
ATOM      6  C   UNL     1      -2.414  -3.120  -0.220  0.00  0.00    +0.013 A 
ATOM      7  C   UNL     1      -3.790  -2.913  -0.248  0.00  0.00    +0.043 A 
ATOM      8  C   UNL     1      -4.640  -3.992  -0.365  0.00  0.00    +0.127 A 
ATOM      9  C   UNL     1      -4.129  -5.278  -0.453  0.00  0.00    +0.035 A 
ATOM     10  C   UNL     1      -2.768  -5.496  -0.434  0.00  0.00    +0.028 A 
ENDROOT
BRANCH   8  11
ATOM     11  N   UNL     1      -6.104  -3.777  -0.396  0.00  0.00    +0.056 N 
ATOM     12  O   UNL     1      -6.552  -2.656  -0.319  0.00  0.00    -0.126 OA
ATOM     13  O   UNL     1      -6.852  -4.721  -0.498  0.00  0.00    -0.126 OA
ENDBRANCH   8  11
BRANCH   1  14
ATOM     14  C   UNL     1      -1.266  -0.764   0.011  0.00  0.00    +0.195 C 
ATOM     15  O   UNL     1      -2.326  -0.178   0.131  0.00  0.00    -0.287 OA
BRANCH  14  21
ATOM     16  C   UNL     1       0.104   1.211   0.668  0.00  0.00    +0.013 A 
ATOM     17  C   UNL     1       1.289   1.916   0.639  0.00  0.00    +0.016 A 
ATOM     18  C   UNL     1       2.374   1.424  -0.066  0.00  0.00    +0.018 A 
ATOM     19  C   UNL     1       2.278   0.222  -0.747  0.00  0.00    +0.016 A 
ATOM     20  C   UNL     1       1.099  -0.493  -0.726  0.00  0.00    +0.013 A 
ATOM     21  C   UNL     1       0.001  -0.002  -0.016  0.00  0.00    +0.022 A 
ATOM     22 BR   UNL     1       3.995   2.398  -0.100  0.00  0.00    -0.050 Br
ENDBRANCH  14  21
ENDBRANCH   1  14
TORSDOF 3
