REMARK  Name = ZINC06637931
REMARK  8 active torsions:
REMARK  status: ('A' for Active; 'I' for Inactive)
REMARK    1  A    between atoms: C_1  and  C_2
REMARK    2  A    between atoms: C_2  and  C_17
REMARK    3  A    between atoms: N_5  and  C_9
REMARK    4  A    between atoms: C_9  and  C_10
REMARK    5  A    between atoms: C_20  and  C_23
REMARK    6  A    between atoms: C_23  and  C_24
REMARK    7  A    between atoms: C_23  and  C_25
REMARK    8  A    between atoms: C_23  and  C_26
REMARK                            x       y       z     vdW  Elec       q    Type
REMARK                         _______ _______ _______ _____ _____    ______ ____
ROOT
ATOM      1  C   UNL     1       3.022   0.765  -1.281  0.00  0.00    +0.047 C 
ATOM      2  C   UNL     1       2.164   0.734  -0.015  0.00  0.00    +0.135 C 
ATOM      3  C   UNL     1       1.261  -0.484  -0.013  0.00  0.00    +0.251 C 
ATOM      4  O   UNL     1       1.601  -1.648  -0.023  0.00  0.00    -0.272 OA
ATOM      5  N   UNL     1       0.002  -0.004   0.002  0.00  0.00    -0.219 N 
ATOM      6  C   UNL     1      -0.016   1.334   0.009  0.00  0.00    +0.310 C 
ATOM      7  O   UNL     1      -1.035   1.996   0.018  0.00  0.00    -0.252 OA
ATOM      8  N   UNL     1       1.220   1.865   0.000  0.00  0.00    -0.281 N 
ATOM      9  H   UNL     1       1.446   2.808   0.003  0.00  0.00    +0.152 HD
ENDROOT
BRANCH   2  10
ATOM     10  C   UNL     1       3.033   0.752   1.217  0.00  0.00    -0.015 A 
ATOM     11  C   UNL     1       3.411  -0.436   1.813  0.00  0.00    +0.006 A 
ATOM     12  C   UNL     1       4.212  -0.420   2.939  0.00  0.00    +0.004 A 
ATOM     13  C   UNL     1       4.626   0.785   3.476  0.00  0.00    -0.042 A 
ATOM     14  C   UNL     1       4.243   1.973   2.883  0.00  0.00    +0.004 A 
ATOM     15  C   UNL     1       3.446   1.957   1.753  0.00  0.00    +0.006 A 
BRANCH  13  16
ATOM     16  C   UNL     1       5.494   0.803   4.708  0.00  0.00    -0.013 C 
ATOM     17  C   UNL     1       4.776   1.560   5.827  0.00  0.00    +0.015 C 
ATOM     18  C   UNL     1       5.769  -0.633   5.159  0.00  0.00    +0.015 C 
ATOM     19  C   UNL     1       6.818   1.500   4.388  0.00  0.00    +0.015 C 
ENDBRANCH  13  16
ENDBRANCH   2  10
BRANCH   5  20
ATOM     20  C   UNL     1      -1.199  -0.844   0.010  0.00  0.00    +0.156 C 
BRANCH  20  21
ATOM     21  C   UNL     1      -1.624  -1.124  -1.408  0.00  0.00    +0.006 A 
ATOM     22  C   UNL     1      -1.396  -2.368  -1.966  0.00  0.00    +0.008 A 
ATOM     23  C   UNL     1      -1.787  -2.626  -3.266  0.00  0.00    +0.000 A 
ATOM     24  C   UNL     1      -2.407  -1.640  -4.011  0.00  0.00    +0.003 A 
ATOM     25  C   UNL     1      -2.636  -0.396  -3.456  0.00  0.00    +0.038 A 
ATOM     26  C   UNL     1      -2.250  -0.138  -2.152  0.00  0.00    +0.128 A 
ATOM     27  F   UNL     1      -2.479   1.077  -1.606  0.00  0.00    -0.205 F 
ENDBRANCH  20  21
ENDBRANCH   5  20
TORSDOF 4
