REMARK  Name = ZINC19144338
REMARK  5 active torsions:
REMARK  status: ('A' for Active; 'I' for Inactive)
REMARK    1  A    between atoms: C_10  and  C_12
REMARK    2  A    between atoms: C_12  and  N_56
REMARK    3  A    between atoms: C_13  and  N_56
REMARK    4  A    between atoms: N_16  and  C_19
REMARK    5  A    between atoms: C_22  and  C_25
REMARK                            x       y       z     vdW  Elec       q    Type
REMARK                         _______ _______ _______ _____ _____    ______ ____
ROOT
ATOM      1  C   UNL     1      -6.337   1.190  -0.924  0.00  0.00    -0.069 C 
ATOM      2  C   UNL     1      -6.369  -0.332  -1.080  0.00  0.00    +0.003 C 
ATOM      3  C   UNL     1      -7.812  -0.824  -0.947  0.00  0.00    +0.103 C 
ATOM      4  N   UNL     1      -8.645  -0.189  -1.978  0.00  0.00    -0.330 N 
ATOM      5  C   UNL     1      -8.667   1.270  -1.818  0.00  0.00    +0.103 C 
ATOM      6  C   UNL     1      -7.249   1.824  -1.978  0.00  0.00    +0.003 C 
ENDROOT
BRANCH   4   7
ATOM      7  C   UNL     1      -9.938  -0.713  -1.968  0.00  0.00    +0.030 A 
ATOM      8  C   UNL     1     -11.029   0.135  -1.814  0.00  0.00    +0.024 A 
ATOM      9  C   UNL     1     -12.308  -0.380  -1.810  0.00  0.00    +0.012 A 
ATOM     10  C   UNL     1     -12.506  -1.754  -1.949  0.00  0.00    -0.000 A 
ATOM     11  C   UNL     1     -11.409  -2.603  -2.098  0.00  0.00    +0.012 A 
ATOM     12  C   UNL     1     -10.133  -2.083  -2.107  0.00  0.00    +0.024 A 
BRANCH  10  13
ATOM     13  C   UNL     1     -13.877  -2.309  -1.940  0.00  0.00    +0.066 A 
ATOM     14  C   UNL     1     -15.037  -1.601  -1.798  0.00  0.00    +0.049 A 
ATOM     15  C   UNL     1     -16.099  -2.504  -1.848  0.00  0.00    +0.135 A 
ATOM     16  N   UNL     1     -15.614  -3.710  -2.004  0.00  0.00    -0.182 NA
ATOM     17  N   UNL     1     -14.217  -3.623  -2.066  0.00  0.00    -0.277 N 
ATOM     18  H   UNL     1     -13.584  -4.388  -2.181  0.00  0.00    +0.189 HD
ENDBRANCH  10  13
ENDBRANCH   4   7
BRANCH   1  19
ATOM     19  N   UNL     1      -4.958   1.678  -1.119  0.00  0.00    +0.383 N 
ATOM     20  H   UNL     1      -4.493   1.101  -1.830  0.00  0.00    -0.085 HD
ATOM     21  H   UNL     1      -4.986   2.655  -1.435  0.00  0.00    -0.085 HD
BRANCH  19  22
ATOM     22  C   UNL     1      -4.202   1.596   0.145  0.00  0.00    -0.045 C 
BRANCH  22  32
ATOM     23  C   UNL     1      -0.653   1.967   3.616  0.00  0.00    +0.000 A 
ATOM     24  C   UNL     1      -1.952   2.439   3.570  0.00  0.00    +0.000 A 
ATOM     25  C   UNL     1      -2.625   2.478   2.369  0.00  0.00    +0.006 A 
ATOM     26  C   UNL     1      -2.009   2.045   1.205  0.00  0.00    -0.017 A 
ATOM     27  C   UNL     1      -0.716   1.571   1.250  0.00  0.00    -0.040 A 
ATOM     28  C   UNL     1      -0.038   1.534   2.458  0.00  0.00    +0.004 A 
ATOM     29  C   UNL     1      -0.013   1.086   0.008  0.00  0.00    +0.063 C 
ATOM     30  C   UNL     1      -0.750   1.591  -1.233  0.00  0.00    +0.165 C 
ATOM     31  O   UNL     1      -2.145   1.302  -1.081  0.00  0.00    -0.374 OA
ATOM     32  C   UNL     1      -2.779   2.107  -0.088  0.00  0.00    +0.132 C 
ENDBRANCH  22  32
ENDBRANCH  19  22
ENDBRANCH   1  19
TORSDOF 5
