REMARK  Name = ZINC21113679
REMARK  6 active torsions:
REMARK  status: ('A' for Active; 'I' for Inactive)
REMARK    1  A    between atoms: C_1  and  C_2
REMARK    2  A    between atoms: C_7  and  N_8
REMARK    3  A    between atoms: C_9  and  C_11
REMARK    4  A    between atoms: N_16  and  S_18
REMARK    5  A    between atoms: S_18  and  C_21
REMARK    6  A    between atoms: C_31  and  C_33
REMARK                            x       y       z     vdW  Elec       q    Type
REMARK                         _______ _______ _______ _____ _____    ______ ____
ROOT
ATOM      1  C   UNL     1       6.120   2.344   0.259  0.00  0.00    +0.091 C 
ATOM      2  C   UNL     1       6.299   3.247  -0.964  0.00  0.00    +0.015 C 
ATOM      3  C   UNL     1       7.604   4.035  -0.831  0.00  0.00    +0.018 C 
ATOM      4  C   UNL     1       8.783   3.058  -0.775  0.00  0.00    +0.109 C 
ATOM      5  N   UNL     1       8.547   2.094   0.309  0.00  0.00    -0.176 NA
ATOM      6  C   UNL     1       7.282   1.347   0.327  0.00  0.00    +0.122 C 
ENDROOT
BRANCH   1   8
ATOM      7  N   UNL     1       3.655   2.267   0.067  0.00  0.00    -0.285 N 
ATOM      8  C   UNL     1       4.819   1.592   0.143  0.00  0.00    +0.222 C 
ATOM      9  O   UNL     1       4.819   0.379   0.117  0.00  0.00    -0.275 OA
ATOM     10  H   UNL     1       3.660   3.365  -0.005  0.00  0.00    +0.155 HD
BRANCH   7  17
ATOM     11  C   UNL     1       1.387   3.502  -1.127  0.00  0.00    +0.046 C 
ATOM     12  C   UNL     1       1.309   2.138  -0.491  0.00  0.00    -0.028 A 
ATOM     13  C   UNL     1       0.111   1.450  -0.476  0.00  0.00    +0.025 A 
ATOM     14  C   UNL     1       0.039   0.197   0.108  0.00  0.00    +0.041 A 
ATOM     15  C   UNL     1       1.165  -0.369   0.678  0.00  0.00    +0.022 A 
ATOM     16  C   UNL     1       2.365   0.315   0.666  0.00  0.00    +0.025 A 
ATOM     17  C   UNL     1       2.440   1.572   0.081  0.00  0.00    +0.036 A 
ATOM     18 CL   UNL     1      -1.468  -0.665   0.125  0.00  0.00    -0.084 Cl
ENDBRANCH   7  17
ENDBRANCH   1   8
BRANCH   5  19
ATOM     19  S   UNL     1       9.686   1.854   1.487  0.00  0.00    +0.061 S 
ATOM     20  O   UNL     1      10.474   3.035   1.536  0.00  0.00    -0.153 OA
ATOM     21  O   UNL     1       8.996   1.350   2.622  0.00  0.00    -0.153 OA
BRANCH  19  22
ATOM     22  C   UNL     1      10.748   0.563   0.929  0.00  0.00    +0.106 A 
ATOM     23  C   UNL     1      11.875   0.869   0.189  0.00  0.00    +0.030 A 
ATOM     24  C   UNL     1      12.706  -0.143  -0.249  0.00  0.00    +0.026 A 
ATOM     25  C   UNL     1      12.410  -1.467   0.055  0.00  0.00    +0.040 A 
ATOM     26  C   UNL     1      11.283  -1.772   0.800  0.00  0.00    -0.024 A 
ATOM     27  C   UNL     1      10.456  -0.751   1.238  0.00  0.00    +0.034 A 
ATOM     28  C   UNL     1      10.937  -3.194   1.157  0.00  0.00    +0.038 C 
ATOM     29  C   UNL     1      11.631  -4.169   0.207  0.00  0.00    +0.024 C 
ATOM     30  C   UNL     1      13.127  -3.831   0.155  0.00  0.00    +0.114 C 
ATOM     31  N   UNL     1      13.263  -2.480  -0.405  0.00  0.00    -0.271 N 
ATOM     32  C   UNL     1      14.192  -2.219  -1.346  0.00  0.00    +0.217 C 
ATOM     33  O   UNL     1      14.343  -1.085  -1.751  0.00  0.00    -0.276 OA
ATOM     34  C   UNL     1      15.044  -3.334  -1.894  0.00  0.00    +0.109 C 
ENDBRANCH  19  22
ENDBRANCH   5  19
TORSDOF 4
