REMARK  Name = ZINC05130871
REMARK  13 active torsions:
REMARK  status: ('A' for Active; 'I' for Inactive)
REMARK    1  A    between atoms: C_1  and  C_2
REMARK    2  A    between atoms: C_2  and  C_3
REMARK    3  A    between atoms: C_2  and  O_4
REMARK    4  A    between atoms: O_4  and  C_5
REMARK    5  A    between atoms: C_8  and  C_13
REMARK    6  A    between atoms: C_10  and  O_11
REMARK    7  A    between atoms: O_11  and  C_12
REMARK    8  A    between atoms: C_16  and  C_27
REMARK    9  A    between atoms: C_22  and  N_26
REMARK   10  A    between atoms: C_23  and  C_24
REMARK   11  A    between atoms: C_27  and  C_28
REMARK   12  A    between atoms: C_27  and  C_29
REMARK   13  A    between atoms: C_27  and  C_30
REMARK                            x       y       z     vdW  Elec       q    Type
REMARK                         _______ _______ _______ _____ _____    ______ ____
ROOT
ATOM      1  C   UNL     1       6.751  -0.844  -0.977  0.00  0.00    +0.101 C 
ATOM      2  C   UNL     1       7.037   0.511  -0.384  0.00  0.00    +0.050 A 
ATOM      3  C   UNL     1       6.936   1.728  -0.940  0.00  0.00    +0.049 A 
ATOM      4  N   UNL     1       7.302   2.638  -0.008  0.00  0.00    -0.277 N 
ATOM      5  H   UNL     1       7.325   3.600  -0.129  0.00  0.00    +0.189 HD
ATOM      6  N   UNL     1       7.641   1.946   1.166  0.00  0.00    -0.135 NA
ATOM      7  C   UNL     1       7.485   0.673   0.946  0.00  0.00    +0.245 A 
ATOM      8  O   UNL     1       7.689  -0.388   1.772  0.00  0.00    -0.421 OA
ATOM      9  C   UNL     1       7.713  -1.614   1.213  0.00  0.00    +0.201 C 
ATOM     10  C   UNL     1       7.300  -1.892  -0.042  0.00  0.00    +0.098 C 
ENDROOT
BRANCH   1  14
ATOM     11  C   UNL     1       2.528  -1.364  -1.406  0.00  0.00    +0.162 A 
ATOM     12  C   UNL     1       3.046  -0.804  -0.250  0.00  0.00    +0.050 A 
ATOM     13  C   UNL     1       4.412  -0.638  -0.114  0.00  0.00    +0.008 A 
ATOM     14  C   UNL     1       5.263  -1.029  -1.130  0.00  0.00    -0.031 A 
ATOM     15  C   UNL     1       4.753  -1.588  -2.287  0.00  0.00    +0.054 A 
ATOM     16  C   UNL     1       3.386  -1.763  -2.427  0.00  0.00    +0.162 A 
BRANCH  16  17
ATOM     17  O   UNL     1       2.882  -2.318  -3.562  0.00  0.00    -0.491 OA
ATOM     18  C   UNL     1       3.822  -2.704  -4.567  0.00  0.00    +0.277 C 
ENDBRANCH  16  17
BRANCH  11  19
ATOM     19  O   UNL     1       1.185  -1.529  -1.541  0.00  0.00    -0.486 OA
BRANCH  19  21
ATOM     20  C   UNL     1       0.116   0.469  -0.701  0.00  0.00    +0.051 C 
ATOM     21  C   UNL     1       0.360  -1.026  -0.488  0.00  0.00    +0.167 C 
ATOM     22  C   UNL     1      -0.979  -1.767  -0.491  0.00  0.00    +0.051 C 
ENDBRANCH  19  21
ENDBRANCH  11  19
ENDBRANCH   1  14
BRANCH   3  23
ATOM     23  C   UNL     1       6.495   2.027  -2.350  0.00  0.00    +0.004 C 
ATOM     24  C   UNL     1       6.683   3.518  -2.638  0.00  0.00    +0.017 C 
ATOM     25  C   UNL     1       7.334   1.208  -3.332  0.00  0.00    +0.017 C 
ATOM     26  C   UNL     1       5.018   1.660  -2.511  0.00  0.00    +0.017 C 
ENDBRANCH   3  23
BRANCH   9  27
ATOM     27  N   UNL     1       8.190  -2.653   1.973  0.00  0.00    -0.328 N 
ATOM     28  H   UNL     1       8.495  -2.491   2.879  0.00  0.00    +0.145 HD
ATOM     29  H   UNL     1       8.222  -3.549   1.603  0.00  0.00    +0.145 HD
ENDBRANCH   9  27
BRANCH  10  30
ATOM     30  C   UNL     1       7.388  -3.244  -0.507  0.00  0.00    +0.101 C 
ATOM     31  N   UNL     1       7.457  -4.316  -0.876  0.00  0.00    -0.191 NA
ENDBRANCH  10  30
TORSDOF 7
