REMARK  Name = ZINC16694237
REMARK  7 active torsions:
REMARK  status: ('A' for Active; 'I' for Inactive)
REMARK    1  A    between atoms: C_1  and  C_2
REMARK    2  A    between atoms: N_4  and  C_27
REMARK    3  A    between atoms: C_8  and  N_9
REMARK    4  A    between atoms: N_9  and  C_10
REMARK    5  A    between atoms: C_13  and  S_16
REMARK    6  A    between atoms: S_16  and  N_19
REMARK    7  A    between atoms: N_19  and  C_20
REMARK                            x       y       z     vdW  Elec       q    Type
REMARK                         _______ _______ _______ _____ _____    ______ ____
ROOT
ATOM      1  C   UNL     1      -2.590  -2.850   5.668  0.00  0.00    +0.031 A 
ATOM      2  C   UNL     1      -2.036  -1.621   5.333  0.00  0.00    +0.025 A 
ATOM      3  C   UNL     1      -1.358  -0.889   6.288  0.00  0.00    +0.030 A 
ATOM      4  C   UNL     1      -1.230  -1.378   7.575  0.00  0.00    +0.109 A 
ATOM      5  C   UNL     1      -1.780  -2.601   7.911  0.00  0.00    +0.030 A 
ATOM      6  C   UNL     1      -2.465  -3.336   6.963  0.00  0.00    +0.025 A 
ENDROOT
BRANCH   4   7
ATOM      7  S   UNL     1      -0.363  -0.440   8.789  0.00  0.00    +0.072 S 
ATOM      8  O   UNL     1       0.195  -1.375   9.703  0.00  0.00    -0.150 OA
ATOM      9  O   UNL     1       0.432   0.502   8.083  0.00  0.00    -0.150 OA
BRANCH   7  10
ATOM     10  N   UNL     1      -1.491   0.430   9.633  0.00  0.00    -0.216 N 
ATOM     11  H   UNL     1      -1.613   0.275  10.583  0.00  0.00    +0.174 HD
BRANCH  10  12
ATOM     12  C   UNL     1      -2.268   1.389   8.977  0.00  0.00    +0.048 A 
ATOM     13  C   UNL     1      -1.710   2.609   8.618  0.00  0.00    +0.026 A 
ATOM     14  C   UNL     1      -2.479   3.555   7.969  0.00  0.00    +0.022 A 
ATOM     15  C   UNL     1      -3.805   3.288   7.678  0.00  0.00    +0.041 A 
ATOM     16  C   UNL     1      -4.364   2.073   8.034  0.00  0.00    +0.022 A 
ATOM     17  C   UNL     1      -3.597   1.121   8.678  0.00  0.00    +0.026 A 
ATOM     18 CL   UNL     1      -4.770   4.479   6.863  0.00  0.00    -0.084 Cl
ENDBRANCH  10  12
ENDBRANCH   7  10
ENDBRANCH   4   7
BRANCH   1  19
ATOM     19  N   UNL     1      -3.277  -3.594   4.705  0.00  0.00    -0.320 N 
ATOM     20  H   UNL     1      -3.667  -4.450   4.941  0.00  0.00    +0.152 HD
BRANCH  19  28
ATOM     21  C   UNL     1      -3.841  -2.249   0.393  0.00  0.00    +0.068 C 
ATOM     22  C   UNL     1      -4.309  -3.504   1.083  0.00  0.00    +0.070 C 
ATOM     23  N   UNL     1      -4.985  -4.471   0.542  0.00  0.00    -0.176 NA
ATOM     24  N   UNL     1      -5.254  -5.481   1.465  0.00  0.00    -0.156 N 
ATOM     25  C   UNL     1      -4.731  -5.162   2.667  0.00  0.00    +0.273 C 
ATOM     26  O   UNL     1      -4.785  -5.824   3.689  0.00  0.00    -0.268 OA
ATOM     27  C   UNL     1      -4.079  -3.858   2.492  0.00  0.00    +0.075 C 
ATOM     28  C   UNL     1      -3.398  -3.121   3.447  0.00  0.00    +0.087 C 
BRANCH  24  29
ATOM     29  C   UNL     1      -5.964  -6.656   1.186  0.00  0.00    +0.060 A 
ATOM     30  C   UNL     1      -6.179  -7.594   2.187  0.00  0.00    +0.027 A 
ATOM     31  C   UNL     1      -6.879  -8.751   1.909  0.00  0.00    +0.022 A 
ATOM     32  C   UNL     1      -7.366  -8.977   0.633  0.00  0.00    +0.041 A 
ATOM     33  C   UNL     1      -7.153  -8.044  -0.367  0.00  0.00    +0.022 A 
ATOM     34  C   UNL     1      -6.459  -6.882  -0.092  0.00  0.00    +0.027 A 
ATOM     35 CL   UNL     1      -8.246 -10.433   0.286  0.00  0.00    -0.084 Cl
ENDBRANCH  24  29
ENDBRANCH  19  28
ENDBRANCH   1  19
TORSDOF 6
