REMARK  Name = ZINC41004961
REMARK  12 active torsions:
REMARK  status: ('A' for Active; 'I' for Inactive)
REMARK    1  A    between atoms: C_1  and  C_2
REMARK    2  A    between atoms: C_2  and  O_3
REMARK    3  A    between atoms: O_3  and  C_4
REMARK    4  A    between atoms: C_6  and  C_19
REMARK    5  A    between atoms: C_9  and  O_10
REMARK    6  A    between atoms: O_10  and  C_11
REMARK    7  A    between atoms: C_11  and  C_12
REMARK    8  A    between atoms: C_21  and  C_33
REMARK    9  A    between atoms: C_22  and  C_32
REMARK   10  A    between atoms: C_27  and  S_29
REMARK   11  A    between atoms: S_29  and  C_30
REMARK   12  A    between atoms: C_30  and  C_31
REMARK                            x       y       z     vdW  Elec       q    Type
REMARK                         _______ _______ _______ _____ _____    ______ ____
ROOT
ATOM      1  C   UNL     1       0.718  -4.970   0.071  0.00  0.00    +0.177 C 
ATOM      2  C   UNL     1       0.822  -5.797  -1.183  0.00  0.00    +0.060 C 
ATOM      3  C   UNL     1       0.487  -7.095  -1.233  0.00  0.00    +0.018 C 
ATOM      4  N   UNL     1       0.030  -7.776  -0.131  0.00  0.00    -0.287 N 
ATOM      5  C   UNL     1       0.171  -7.159   1.105  0.00  0.00    +0.219 A 
ATOM      6  N   UNL     1       0.497  -5.848   1.217  0.00  0.00    -0.220 N 
ATOM      7  N   UNL     1       0.562  -5.567   2.581  0.00  0.00    -0.141 NA
ATOM      8  C   UNL     1       0.275  -6.686   3.211  0.00  0.00    +0.210 A 
ATOM      9  N   UNL     1       0.037  -7.648   2.308  0.00  0.00    -0.187 NA
ATOM     10  C   UNL     1       0.616  -7.830  -2.542  0.00  0.00    +0.061 C 
ATOM     11  H   UNL     1      -0.374  -8.653  -0.213  0.00  0.00    +0.155 HD
ENDROOT
BRANCH   1  14
ATOM     12  C   UNL     1      -1.270  -1.762  -0.097  0.00  0.00    +0.162 A 
ATOM     13  C   UNL     1      -0.210  -2.647   0.019  0.00  0.00    +0.055 A 
ATOM     14  C   UNL     1      -0.435  -4.009  -0.056  0.00  0.00    -0.015 A 
ATOM     15  C   UNL     1      -1.717  -4.491  -0.246  0.00  0.00    +0.010 A 
ATOM     16  C   UNL     1      -2.779  -3.613  -0.363  0.00  0.00    +0.050 A 
ATOM     17  C   UNL     1      -2.561  -2.247  -0.283  0.00  0.00    +0.162 A 
BRANCH  12  18
ATOM     18  O   UNL     1      -1.050  -0.422  -0.024  0.00  0.00    -0.489 OA
BRANCH  18  20
ATOM     19  C   UNL     1       0.350   1.533   0.225  0.00  0.00    +0.048 C 
ATOM     20  C   UNL     1       0.300   0.004   0.168  0.00  0.00    +0.226 C 
ENDBRANCH  18  20
ENDBRANCH  12  18
BRANCH  17  21
ATOM     21  O   UNL     1      -3.605  -1.383  -0.392  0.00  0.00    -0.484 OA
BRANCH  21  22
ATOM     22  C   UNL     1      -4.902  -1.953  -0.581  0.00  0.00    +0.264 C 
BRANCH  22  23
ATOM     23  C   UNL     1      -5.925  -0.851  -0.679  0.00  0.00    -0.010 A 
ATOM     24  C   UNL     1      -6.546  -0.381   0.463  0.00  0.00    +0.008 A 
ATOM     25  C   UNL     1      -7.485   0.630   0.373  0.00  0.00    +0.020 A 
ATOM     26  C   UNL     1      -7.803   1.171  -0.860  0.00  0.00    +0.041 A 
ATOM     27  C   UNL     1      -7.181   0.700  -2.002  0.00  0.00    +0.020 A 
ATOM     28  C   UNL     1      -6.238  -0.306  -1.911  0.00  0.00    +0.008 A 
ATOM     29 CL   UNL     1      -8.982   2.440  -0.973  0.00  0.00    -0.084 Cl
ENDBRANCH  22  23
ENDBRANCH  21  22
ENDBRANCH  17  21
ENDBRANCH   1  14
BRANCH   2  30
ATOM     30  C   UNL     1       1.294  -5.176  -2.363  0.00  0.00    +0.241 C 
ATOM     31  O   UNL     1       2.490  -5.028  -2.537  0.00  0.00    -0.271 OA
ATOM     32  N   UNL     1       0.420  -4.749  -3.296  0.00  0.00    -0.325 N 
ATOM     33  H   UNL     1      -0.532  -4.867  -3.158  0.00  0.00    +0.145 HD
ATOM     34  H   UNL     1       0.744  -4.324  -4.105  0.00  0.00    +0.145 HD
ENDBRANCH   2  30
BRANCH   8  35
ATOM     35  S   UNL     1       0.213  -6.887   4.961  0.00  0.00    -0.085 S 
BRANCH  35  36
ATOM     36  C   UNL     1      -0.229  -8.632   5.186  0.00  0.00    +0.074 C 
ATOM     37  C   UNL     1      -0.318  -8.946   6.681  0.00  0.00    +0.016 C 
ENDBRANCH  35  36
ENDBRANCH   8  35
TORSDOF 9
