REMARK  Name = ZINC11692013
REMARK  4 active torsions:
REMARK  status: ('A' for Active; 'I' for Inactive)
REMARK    1  A    between atoms: C_7  and  O_8
REMARK    2  A    between atoms: C_9  and  C_24
REMARK    3  A    between atoms: C_13  and  C_15
REMARK    4  A    between atoms: C_19  and  N_21
REMARK                            x       y       z     vdW  Elec       q    Type
REMARK                         _______ _______ _______ _____ _____    ______ ____
ROOT
ATOM      1  C   UNL     1       0.384  12.773   0.056  0.00  0.00    +0.001 A 
ATOM      2  C   UNL     1      -0.935  12.343   0.066  0.00  0.00    +0.001 A 
ATOM      3  C   UNL     1      -1.221  10.991   0.063  0.00  0.00    +0.016 A 
ATOM      4  C   UNL     1      -0.180  10.086   0.050  0.00  0.00    +0.025 A 
ATOM      5  C   UNL     1       1.166  10.506   0.039  0.00  0.00    +0.031 A 
ATOM      6  C   UNL     1       1.421  11.886   0.043  0.00  0.00    +0.012 A 
ATOM      7  C   UNL     1       2.264   9.548   0.024  0.00  0.00    +0.135 A 
ATOM      8  C   UNL     1       2.235   8.160   0.018  0.00  0.00    +0.052 A 
ATOM      9  C   UNL     1       1.069   7.390   0.026  0.00  0.00    +0.084 A 
ATOM     10  S   UNL     1      -0.446   8.333   0.038  0.00  0.00    -0.073 S 
ATOM     11  N   UNL     1       1.088   6.012   0.020  0.00  0.00    -0.275 N 
ATOM     12  C   UNL     1      -0.070   5.322   0.029  0.00  0.00    +0.249 C 
ATOM     13  O   UNL     1      -1.131   5.916   0.041  0.00  0.00    -0.270 OA
ATOM     14  H   UNL     1       2.048   5.475   0.009  0.00  0.00    +0.156 HD
ENDROOT
BRANCH   8  15
ATOM     15  C   UNL     1       3.531   7.444   0.002  0.00  0.00    -0.011 A 
ATOM     16  C   UNL     1       3.911   6.659   1.091  0.00  0.00    +0.010 A 
ATOM     17  C   UNL     1       5.118   5.990   1.069  0.00  0.00    +0.022 A 
ATOM     18  C   UNL     1       5.956   6.105  -0.027  0.00  0.00    +0.059 A 
ATOM     19  C   UNL     1       5.587   6.888  -1.109  0.00  0.00    +0.060 A 
ATOM     20  C   UNL     1       4.379   7.557  -1.099  0.00  0.00    +0.030 A 
ATOM     21 CL   UNL     1       6.644   7.027  -2.478  0.00  0.00    -0.082 Cl
ATOM     22 CL   UNL     1       7.476   5.266  -0.045  0.00  0.00    -0.082 Cl
ENDBRANCH   8  15
BRANCH  12  23
ATOM     23  C   UNL     1      -0.050   3.845   0.022  0.00  0.00    +0.039 A 
ATOM     24  C   UNL     1       1.167   3.160   0.007  0.00  0.00    +0.013 A 
ATOM     25  C   UNL     1       1.178   1.781   0.000  0.00  0.00    +0.003 A 
ATOM     26  C   UNL     1      -0.013   1.076   0.008  0.00  0.00    +0.033 A 
ATOM     27  C   UNL     1      -1.222   1.748   0.017  0.00  0.00    +0.127 A 
ATOM     28  C   UNL     1      -1.248   3.127   0.030  0.00  0.00    +0.045 A 
BRANCH  27  29
ATOM     29  N   UNL     1      -2.490   0.986   0.019  0.00  0.00    +0.056 N 
ATOM     30  O   UNL     1      -2.469  -0.232   0.013  0.00  0.00    -0.126 OA
ATOM     31  O   UNL     1      -3.556   1.576   0.028  0.00  0.00    -0.126 OA
ENDBRANCH  27  29
ENDBRANCH  12  23
BRANCH   7  32
ATOM     32  O   UNL     1       3.381  10.041   0.016  0.00  0.00    -0.505 OA
ATOM     33  H   UNL     1       4.269   9.392   0.004  0.00  0.00    +0.292 HD
ENDBRANCH   7  32
TORSDOF 4
