REMARK  Name = ZINC35745671
REMARK  9 active torsions:
REMARK  status: ('A' for Active; 'I' for Inactive)
REMARK    1  A    between atoms: C_4  and  C_7
REMARK    2  A    between atoms: C_7  and  C_8
REMARK    3  A    between atoms: C_8  and  C_10
REMARK    4  A    between atoms: C_8  and  O_36
REMARK    5  A    between atoms: C_10  and  N_11
REMARK    6  A    between atoms: N_11  and  C_12
REMARK    7  A    between atoms: N_11  and  C_30
REMARK    8  A    between atoms: C_12  and  C_13
REMARK    9  A    between atoms: C_19  and  C_24
REMARK                            x       y       z     vdW  Elec       q    Type
REMARK                         _______ _______ _______ _____ _____    ______ ____
ROOT
ATOM      1  N   UNL     1       6.086  -1.686   2.793  0.00  0.00    +0.388 N 
ATOM      2  H   UNL     1       5.443  -2.133   3.430  0.00  0.00    -0.081 HD
ENDROOT
BRANCH   1   3
ATOM      3  C   UNL     1       6.304  -0.296   3.214  0.00  0.00    -0.068 C 
ATOM      4  C   UNL     1       7.319   0.366   2.279  0.00  0.00    -0.015 C 
ATOM      5  C   UNL     1       7.546   1.815   2.717  0.00  0.00    -0.002 C 
ATOM      6  C   UNL     1       8.082   1.836   4.150  0.00  0.00    -0.000 C 
ATOM      7  C   UNL     1       7.067   1.174   5.084  0.00  0.00    -0.002 C 
ATOM      8  C   UNL     1       6.840  -0.274   4.646  0.00  0.00    -0.015 C 
ENDBRANCH   1   3
BRANCH   1   9
ATOM      9  C   UNL     1       5.524  -1.705   1.436  0.00  0.00    -0.046 C 
BRANCH   9  10
ATOM     10  C   UNL     1       4.129  -1.077   1.452  0.00  0.00    +0.102 C 
BRANCH  10  11
ATOM     11  O   UNL     1       3.256  -1.877   2.252  0.00  0.00    -0.393 OA
ATOM     12  H   UNL     1       3.156  -2.786   1.937  0.00  0.00    +0.210 HD
ENDBRANCH  10  11
BRANCH  10  13
ATOM     13  C   UNL     1       3.587  -1.002   0.024  0.00  0.00    +0.064 C 
BRANCH  13  17
ATOM     14  C   UNL     1      -0.152   1.063   0.025  0.00  0.00    +0.000 A 
ATOM     15  C   UNL     1       1.026   1.767  -0.138  0.00  0.00    +0.000 A 
ATOM     16  C   UNL     1       2.236   1.099  -0.138  0.00  0.00    +0.004 A 
ATOM     17  C   UNL     1       2.268  -0.274   0.025  0.00  0.00    -0.045 A 
ATOM     18  C   UNL     1       1.089  -0.978   0.188  0.00  0.00    +0.004 A 
ATOM     19  C   UNL     1      -0.121  -0.310   0.187  0.00  0.00    +0.000 A 
ENDBRANCH  13  17
ENDBRANCH  10  13
ENDBRANCH   9  10
ENDBRANCH   1   9
BRANCH   1  20
ATOM     20  C   UNL     1       7.366  -2.407   2.804  0.00  0.00    -0.003 C 
BRANCH  20  21
ATOM     21  C   UNL     1       7.684  -2.844   4.211  0.00  0.00    +0.094 A 
ATOM     22  N   UNL     1       8.898  -3.390   4.481  0.00  0.00    -0.312 N 
ATOM     23  H   UNL     1       9.543  -3.492   3.764  0.00  0.00    +0.170 HD
ATOM     24  C   UNL     1       9.222  -3.793   5.723  0.00  0.00    +0.260 A 
ATOM     25  O   UNL     1      10.316  -4.281   5.950  0.00  0.00    -0.267 OA
ATOM     26  C   UNL     1       8.263  -3.639   6.775  0.00  0.00    +0.080 A 
ATOM     27  C   UNL     1       8.376  -3.993   8.185  0.00  0.00    +0.004 A 
ATOM     28  C   UNL     1       7.323  -3.750   9.004  0.00  0.00    +0.056 A 
ATOM     29  S   UNL     1       6.112  -3.026   7.915  0.00  0.00    -0.076 S 
ATOM     30  C   UNL     1       7.037  -3.066   6.401  0.00  0.00    +0.116 A 
ATOM     31  N   UNL     1       6.791  -2.686   5.150  0.00  0.00    -0.229 NA
BRANCH  27  32
ATOM     32  C   UNL     1       9.617  -4.607   8.713  0.00  0.00    -0.017 A 
ATOM     33  C   UNL     1      10.184  -5.705   8.067  0.00  0.00    +0.008 A 
ATOM     34  C   UNL     1      11.340  -6.272   8.563  0.00  0.00    +0.001 A 
ATOM     35  C   UNL     1      11.937  -5.754   9.699  0.00  0.00    +0.000 A 
ATOM     36  C   UNL     1      11.379  -4.664  10.344  0.00  0.00    +0.001 A 
ATOM     37  C   UNL     1      10.226  -4.085   9.854  0.00  0.00    +0.008 A 
ENDBRANCH  27  32
ENDBRANCH  20  21
ENDBRANCH   1  20
TORSDOF 9
