REMARK  Name = ZINC39685714
REMARK  11 active torsions:
REMARK  status: ('A' for Active; 'I' for Inactive)
REMARK    1  A    between atoms: C_1  and  C_2
REMARK    2  A    between atoms: C_2  and  C_3
REMARK    3  A    between atoms: C_2  and  C_4
REMARK    4  A    between atoms: C_4  and  C_6
REMARK    5  A    between atoms: C_4  and  N_13
REMARK    6  A    between atoms: N_8  and  C_9
REMARK    7  A    between atoms: C_9  and  C_10
REMARK    8  A    between atoms: C_9  and  C_11
REMARK    9  A    between atoms: C_9  and  C_12
REMARK   10  A    between atoms: C_14  and  C_16
REMARK   11  A    between atoms: C_27  and  C_29
REMARK                            x       y       z     vdW  Elec       q    Type
REMARK                         _______ _______ _______ _____ _____    ______ ____
ROOT
ATOM      1  C   UNL     1      -0.440  -3.955   1.571  0.00  0.00    +0.100 C 
ATOM      2  C   UNL     1      -1.546  -4.868   0.994  0.00  0.00    +0.121 C 
ATOM      3  N   UNL     1      -1.581  -6.035   1.905  0.00  0.00    -0.296 N 
ATOM      4  C   UNL     1      -1.394  -5.455   3.256  0.00  0.00    +0.115 C 
ATOM      5  C   UNL     1      -0.344  -4.343   3.056  0.00  0.00    -0.004 C 
ATOM      6  C   UNL     1      -0.674  -3.142   3.938  0.00  0.00    -0.010 C 
ATOM      7  C   UNL     1      -0.515  -3.536   5.409  0.00  0.00    -0.082 C 
ATOM      8  N   UNL     1       0.862  -3.984   5.652  0.00  0.00    +0.379 N 
ATOM      9  C   UNL     1       1.140  -5.194   4.869  0.00  0.00    -0.082 C 
ATOM     10  C   UNL     1       1.051  -4.870   3.375  0.00  0.00    -0.010 C 
ATOM     11  C   UNL     1      -1.747  -7.333   1.579  0.00  0.00    +0.249 C 
ATOM     12  O   UNL     1      -1.754  -8.182   2.450  0.00  0.00    -0.270 OA
ATOM     13  H   UNL     1       1.504  -3.255   5.380  0.00  0.00    -0.086 HD
ATOM     14  H   UNL     1       0.981  -4.185   6.633  0.00  0.00    -0.086 HD
ENDROOT
BRANCH  11  15
ATOM     15  C   UNL     1      -1.919  -7.723   0.166  0.00  0.00    +0.073 A 
ATOM     16  C   UNL     1      -0.805  -8.039  -0.617  0.00  0.00    +0.054 A 
ATOM     17  C   UNL     1      -0.975  -8.403  -1.938  0.00  0.00    +0.021 A 
ATOM     18  C   UNL     1      -2.244  -8.456  -2.487  0.00  0.00    +0.003 A 
ATOM     19  C   UNL     1      -3.351  -8.145  -1.719  0.00  0.00    +0.021 A 
ATOM     20  C   UNL     1      -3.198  -7.784  -0.395  0.00  0.00    +0.054 A 
ATOM     21 CL   UNL     1      -4.590  -7.401   0.569  0.00  0.00    -0.083 Cl
ATOM     22 CL   UNL     1       0.787  -7.972   0.070  0.00  0.00    -0.083 Cl
ENDBRANCH  11  15
BRANCH   1  24
ATOM     23  N   UNL     1      -2.060  -2.100   1.804  0.00  0.00    -0.303 N 
ATOM     24  C   UNL     1      -0.830  -2.506   1.431  0.00  0.00    +0.219 C 
ATOM     25  O   UNL     1      -0.036  -1.706   0.983  0.00  0.00    -0.275 OA
ATOM     26  H   UNL     1      -2.669  -2.724   2.228  0.00  0.00    +0.149 HD
BRANCH  23  27
ATOM     27  C   UNL     1      -2.476  -0.715   1.569  0.00  0.00    +0.161 C 
BRANCH  27  28
ATOM     28  C   UNL     1      -3.550  -0.339   2.557  0.00  0.00    +0.234 C 
ATOM     29  O   UNL     1      -4.151  -1.204   3.158  0.00  0.00    -0.274 OA
ATOM     30  N   UNL     1      -3.841   0.959   2.774  0.00  0.00    -0.309 N 
ATOM     31  H   UNL     1      -3.312   1.652   2.350  0.00  0.00    +0.149 HD
BRANCH  30  32
ATOM     32  C   UNL     1      -4.957   1.323   3.650  0.00  0.00    +0.026 C 
ATOM     33  C   UNL     1      -4.709   0.761   5.052  0.00  0.00    +0.031 C 
ATOM     34  C   UNL     1      -5.071   2.847   3.725  0.00  0.00    +0.031 C 
ATOM     35  C   UNL     1      -6.256   0.741   3.090  0.00  0.00    +0.031 C 
ENDBRANCH  30  32
ENDBRANCH  27  28
BRANCH  27  37
ATOM     36  C   UNL     1      -1.916  -0.905  -0.859  0.00  0.00    +0.009 C 
ATOM     37  C   UNL     1      -3.023  -0.582   0.146  0.00  0.00    +0.012 C 
ATOM     38  C   UNL     1      -4.187  -1.556  -0.046  0.00  0.00    +0.009 C 
ENDBRANCH  27  37
ENDBRANCH  23  27
ENDBRANCH   1  24
TORSDOF 6
