REMARK  Name = ZINC01817123
REMARK  8 active torsions:
REMARK  status: ('A' for Active; 'I' for Inactive)
REMARK    1  A    between atoms: C_1  and  C_2
REMARK    2  A    between atoms: C_2  and  O_3
REMARK    3  A    between atoms: O_3  and  C_4
REMARK    4  A    between atoms: C_4  and  C_6
REMARK    5  A    between atoms: C_7  and  N_37
REMARK    6  A    between atoms: C_12  and  C_13
REMARK    7  A    between atoms: C_23  and  C_34
REMARK    8  A    between atoms: C_24  and  C_26
REMARK                            x       y       z     vdW  Elec       q    Type
REMARK                         _______ _______ _______ _____ _____    ______ ____
ROOT
ATOM      1  C   UNL     1       1.543  -2.318  -2.408  0.00  0.00    +0.087 C 
ATOM      2  C   UNL     1       1.618  -3.657  -2.596  0.00  0.00    +0.115 C 
ATOM      3  N   UNL     1       2.126  -4.251  -3.754  0.00  0.00    -0.257 N 
ATOM      4  C   UNL     1       2.195  -5.585  -3.930  0.00  0.00    +0.271 A 
ATOM      5  O   UNL     1       1.808  -6.348  -3.065  0.00  0.00    -0.266 OA
ATOM      6  C   UNL     1       2.747  -6.096  -5.190  0.00  0.00    +0.080 A 
ATOM      7  C   UNL     1       2.919  -7.380  -5.598  0.00  0.00    +0.032 C 
ATOM      8  S   UNL     1       3.132  -4.575  -6.041  0.00  0.00    -0.065 S 
ATOM      9  C   UNL     1       2.582  -3.445  -4.778  0.00  0.00    +0.099 A 
ATOM     10  C   UNL     1       2.576  -2.087  -4.746  0.00  0.00    +0.057 C 
ATOM     11  C   UNL     1       2.028  -1.399  -3.511  0.00  0.00    +0.101 C 
ENDROOT
BRANCH   7  12
ATOM     12  C   UNL     1       3.499  -7.659  -6.917  0.00  0.00    +0.030 A 
ATOM     13  C   UNL     1       2.997  -7.019  -8.059  0.00  0.00    +0.132 A 
ATOM     14  C   UNL     1       3.550  -7.288  -9.296  0.00  0.00    +0.039 A 
ATOM     15  C   UNL     1       4.596  -8.187  -9.409  0.00  0.00    +0.004 A 
ATOM     16  C   UNL     1       5.098  -8.824  -8.287  0.00  0.00    +0.021 A 
ATOM     17  C   UNL     1       4.562  -8.563  -7.043  0.00  0.00    +0.051 A 
ATOM     18 CL   UNL     1       5.199  -9.358  -5.637  0.00  0.00    -0.083 Cl
ATOM     19  F   UNL     1       1.975  -6.142  -7.950  0.00  0.00    -0.205 F 
ENDBRANCH   7  12
BRANCH  11  20
ATOM     20  C   UNL     1       0.880  -0.515  -3.927  0.00  0.00    +0.018 A 
ATOM     21  C   UNL     1      -0.285  -1.079  -4.418  0.00  0.00    +0.129 A 
ATOM     22  C   UNL     1      -1.338  -0.266  -4.801  0.00  0.00    +0.039 A 
ATOM     23  C   UNL     1      -1.226   1.108  -4.692  0.00  0.00    +0.004 A 
ATOM     24  C   UNL     1      -0.063   1.670  -4.202  0.00  0.00    +0.020 A 
ATOM     25  C   UNL     1       0.989   0.859  -3.814  0.00  0.00    +0.048 A 
ATOM     26 CL   UNL     1       2.447   1.566  -3.192  0.00  0.00    -0.083 Cl
ATOM     27  F   UNL     1      -0.394  -2.421  -4.525  0.00  0.00    -0.205 F 
ENDBRANCH  11  20
BRANCH  10  28
ATOM     28  C   UNL     1       3.060  -1.339  -5.832  0.00  0.00    +0.241 C 
ATOM     29  O   UNL     1       3.492  -1.907  -6.819  0.00  0.00    -0.271 OA
ATOM     30  N   UNL     1       3.046   0.008  -5.782  0.00  0.00    -0.326 N 
ATOM     31  H   UNL     1       2.701   0.461  -4.996  0.00  0.00    +0.145 HD
ATOM     32  H   UNL     1       3.380   0.525  -6.531  0.00  0.00    +0.145 HD
ENDBRANCH  10  28
BRANCH   2  33
ATOM     33  N   UNL     1       1.170  -4.476  -1.592  0.00  0.00    -0.344 N 
ATOM     34  H   UNL     1       0.353  -4.259  -1.117  0.00  0.00    +0.144 HD
ATOM     35  H   UNL     1       1.671  -5.273  -1.358  0.00  0.00    +0.144 HD
ENDBRANCH   2  33
BRANCH   1  36
ATOM     36  C   UNL     1       1.021  -1.791  -1.217  0.00  0.00    +0.339 C 
ATOM     37  O   UNL     1       0.732  -2.535  -0.297  0.00  0.00    -0.245 OA
BRANCH  36  38
ATOM     38  O   UNL     1       0.839  -0.459  -1.091  0.00  0.00    -0.462 OA
BRANCH  38  40
ATOM     39  C   UNL     1       0.170   1.532   0.106  0.00  0.00    +0.048 C 
ATOM     40  C   UNL     1       0.304   0.008   0.149  0.00  0.00    +0.229 C 
ENDBRANCH  38  40
ENDBRANCH  36  38
ENDBRANCH   1  36
TORSDOF 7
