REMARK  Name = ZINC63295980
REMARK  7 active torsions:
REMARK  status: ('A' for Active; 'I' for Inactive)
REMARK    1  A    between atoms: C_1  and  O_2
REMARK    2  A    between atoms: O_2  and  C_3
REMARK    3  A    between atoms: C_8  and  N_9
REMARK    4  A    between atoms: C_10  and  C_12
REMARK    5  A    between atoms: C_12  and  C_13
REMARK    6  A    between atoms: C_13  and  C_14
REMARK    7  A    between atoms: C_14  and  N_15
REMARK                            x       y       z     vdW  Elec       q    Type
REMARK                         _______ _______ _______ _____ _____    ______ ____
ROOT
ATOM      1  N   UNL     1       1.778  -8.649   0.466  0.00  0.00    -0.299 N 
ATOM      2  C   UNL     1       2.767  -9.560   0.566  0.00  0.00    +0.302 C 
ATOM      3  O   UNL     1       3.922  -9.195   0.671  0.00  0.00    -0.253 OA
ATOM      4  N   UNL     1       2.475 -10.876   0.549  0.00  0.00    -0.283 N 
ATOM      5  C   UNL     1       1.073 -11.308   0.531  0.00  0.00    +0.114 C 
ATOM      6  C   UNL     1       0.801 -12.214   1.745  0.00  0.00    +0.052 C 
ATOM      7  C   UNL     1       1.948 -13.190   1.823  0.00  0.00    -0.035 C 
ATOM      8  C   UNL     1       1.971 -14.515   1.903  0.00  0.00    +0.001 A 
ATOM      9  C   UNL     1       0.892 -15.505   2.056  0.00  0.00    +0.030 A 
ATOM     10  C   UNL     1       1.276 -16.810   2.084  0.00  0.00    +0.042 A 
ATOM     11  C   UNL     1       2.609 -17.222   1.977  0.00  0.00    +0.022 A 
ATOM     12  C   UNL     1       3.664 -16.380   1.842  0.00  0.00    +0.027 A 
ATOM     13  C   UNL     1       3.387 -14.982   1.808  0.00  0.00    +0.043 A 
ATOM     14  N   UNL     1       4.195 -13.967   1.712  0.00  0.00    -0.376 N 
ATOM     15  C   UNL     1       3.404 -12.739   1.796  0.00  0.00    +0.124 C 
ATOM     16  C   UNL     1       3.566 -11.863   0.544  0.00  0.00    +0.138 C 
ATOM     17 CL   UNL     1       0.049 -18.025   2.263  0.00  0.00    -0.084 Cl
ATOM     18  H   UNL     1       0.852  -8.938   0.455  0.00  0.00    +0.150 HD
ATOM     19  H   UNL     1       5.157 -14.016   1.604  0.00  0.00    +0.160 HD
ENDROOT
BRANCH   1  20
ATOM     20  C   UNL     1       2.103  -7.223   0.373  0.00  0.00    +0.106 C 
BRANCH  20  21
ATOM     21  C   UNL     1       0.810  -6.412   0.270  0.00  0.00    +0.028 C 
BRANCH  21  22
ATOM     22  C   UNL     1       1.148  -4.923   0.173  0.00  0.00    +0.097 C 
BRANCH  22  24
ATOM     23  N   UNL     1      -0.072  -2.780  -0.024  0.00  0.00    -0.283 N 
ATOM     24  C   UNL     1      -0.125  -4.124   0.071  0.00  0.00    +0.217 C 
ATOM     25  O   UNL     1      -1.198  -4.689   0.076  0.00  0.00    -0.275 OA
ATOM     26  H   UNL     1       0.785  -2.334  -0.109  0.00  0.00    +0.155 HD
BRANCH  23  32
ATOM     27  C   UNL     1      -1.291  -0.767  -0.589  0.00  0.00    +0.141 A 
ATOM     28  C   UNL     1      -2.464  -0.030  -0.569  0.00  0.00    +0.047 A 
ATOM     29  C   UNL     1      -3.594  -0.546   0.039  0.00  0.00    +0.004 A 
ATOM     30  C   UNL     1      -3.557  -1.797   0.627  0.00  0.00    +0.002 A 
ATOM     31  C   UNL     1      -2.390  -2.538   0.610  0.00  0.00    +0.027 A 
ATOM     32  C   UNL     1      -1.254  -2.029  -0.002  0.00  0.00    +0.076 A 
BRANCH  27  34
ATOM     33  C   UNL     1      -0.290   1.040  -1.768  0.00  0.00    +0.277 C 
ATOM     34  O   UNL     1      -0.179  -0.261  -1.187  0.00  0.00    -0.493 OA
ENDBRANCH  27  34
ENDBRANCH  23  32
ENDBRANCH  22  24
ENDBRANCH  21  22
ENDBRANCH  20  21
ENDBRANCH   1  20
TORSDOF 6
