REMARK  Name = ZINC63515531
REMARK  12 active torsions:
REMARK  status: ('A' for Active; 'I' for Inactive)
REMARK    1  A    between atoms: C_1  and  C_2
REMARK    2  A    between atoms: C_4  and  C_17
REMARK    3  A    between atoms: C_7  and  O_12
REMARK    4  A    between atoms: O_12  and  C_13
REMARK    5  A    between atoms: C_17  and  C_18
REMARK    6  A    between atoms: C_18  and  N_19
REMARK    7  A    between atoms: N_19  and  S_20
REMARK    8  A    between atoms: S_20  and  C_23
REMARK    9  A    between atoms: C_25  and  O_32
REMARK   10  A    between atoms: C_28  and  O_29
REMARK   11  A    between atoms: O_29  and  C_30
REMARK   12  A    between atoms: O_32  and  C_33
REMARK                            x       y       z     vdW  Elec       q    Type
REMARK                         _______ _______ _______ _____ _____    ______ ____
ROOT
ATOM      1  C   UNL     1      -2.582  -0.090  -1.576  0.00  0.00    +0.050 C 
ENDROOT
BRANCH   1   4
ATOM      2  C   UNL     1       0.098   1.729  -1.461  0.00  0.00    +0.035 C 
ATOM      3  C   UNL     1       0.102   0.199  -1.471  0.00  0.00    +0.103 C 
ATOM      4  C   UNL     1      -1.224  -0.329  -0.969  0.00  0.00    -0.037 C 
ATOM      5  C   UNL     1      -0.943  -1.057   0.135  0.00  0.00    +0.003 A 
ATOM      6  C   UNL     1      -1.784  -1.817   1.067  0.00  0.00    +0.056 A 
ATOM      7  C   UNL     1      -1.210  -2.464   2.109  0.00  0.00    +0.131 A 
ATOM      8  C   UNL     1       0.177  -2.435   2.337  0.00  0.00    +0.048 A 
ATOM      9  C   UNL     1       1.032  -1.764   1.537  0.00  0.00    +0.029 A 
ATOM     10  C   UNL     1       0.518  -1.028   0.377  0.00  0.00    +0.043 A 
ATOM     11  N   UNL     1       1.117  -0.310  -0.542  0.00  0.00    -0.378 N 
ATOM     12  H   UNL     1       2.071  -0.143  -0.598  0.00  0.00    +0.160 HD
BRANCH   7  13
ATOM     13  O   UNL     1      -2.002  -3.164   2.964  0.00  0.00    -0.406 OA
BRANCH  13  14
ATOM     14  C   UNL     1      -1.354  -3.830   4.050  0.00  0.00    +0.575 C 
ATOM     15  F   UNL     1      -0.685  -2.890   4.841  0.00  0.00    -0.133 F 
ATOM     16  F   UNL     1      -2.309  -4.497   4.824  0.00  0.00    -0.133 F 
ATOM     17  F   UNL     1      -0.433  -4.755   3.546  0.00  0.00    -0.133 F 
ENDBRANCH  13  14
ENDBRANCH   7  13
ENDBRANCH   1   4
BRANCH   1  18
ATOM     18  C   UNL     1      -3.628  -0.919  -0.828  0.00  0.00    +0.110 C 
BRANCH  18  19
ATOM     19  N   UNL     1      -4.925  -0.785  -1.495  0.00  0.00    -0.190 NA
ATOM     20  H   UNL     1      -5.140  -1.348  -2.255  0.00  0.00    +0.148 HD
BRANCH  19  21
ATOM     21  S   UNL     1      -6.026   0.326  -0.951  0.00  0.00    +0.062 S 
ATOM     22  O   UNL     1      -7.161   0.222  -1.799  0.00  0.00    -0.153 OA
ATOM     23  O   UNL     1      -6.109   0.160   0.458  0.00  0.00    -0.153 OA
BRANCH  21  24
ATOM     24  C   UNL     1      -5.334   1.923  -1.229  0.00  0.00    +0.150 A 
ATOM     25  C   UNL     1      -5.881   2.756  -2.187  0.00  0.00    +0.079 A 
ATOM     26  C   UNL     1      -5.337   4.012  -2.406  0.00  0.00    +0.140 A 
ATOM     27  C   UNL     1      -4.243   4.433  -1.663  0.00  0.00    +0.086 A 
ATOM     28  C   UNL     1      -3.696   3.600  -0.705  0.00  0.00    +0.071 A 
ATOM     29  C   UNL     1      -4.244   2.345  -0.483  0.00  0.00    +0.148 A 
ATOM     30 CL   UNL     1      -3.561   6.006  -1.938  0.00  0.00    -0.080 Cl
BRANCH  29  31
ATOM     31  O   UNL     1      -3.709   1.528   0.462  0.00  0.00    -0.493 OA
ATOM     32  C   UNL     1      -2.645   2.060   1.254  0.00  0.00    +0.277 C 
ENDBRANCH  29  31
BRANCH  26  33
ATOM     33  O   UNL     1      -5.876   4.831  -3.349  0.00  0.00    -0.494 OA
ATOM     34  C   UNL     1      -7.000   4.332  -4.076  0.00  0.00    +0.277 C 
ENDBRANCH  26  33
ENDBRANCH  21  24
ENDBRANCH  19  21
ENDBRANCH  18  19
ENDBRANCH   1  18
TORSDOF 9
