REMARK  Name = ZINC08763173
REMARK  12 active torsions:
REMARK  status: ('A' for Active; 'I' for Inactive)
REMARK    1  A    between atoms: C_1  and  C_2
REMARK    2  A    between atoms: C_6  and  C_8
REMARK    3  A    between atoms: C_8  and  C_10
REMARK    4  A    between atoms: C_8  and  C_11
REMARK    5  A    between atoms: C_13  and  O_40
REMARK    6  A    between atoms: C_18  and  C_39
REMARK    7  A    between atoms: C_28  and  C_38
REMARK    8  A    between atoms: C_31  and  O_34
REMARK    9  A    between atoms: O_34  and  C_35
REMARK   10  A    between atoms: C_35  and  C_37
REMARK   11  A    between atoms: O_40  and  C_41
REMARK   12  A    between atoms: C_41  and  C_43
REMARK                            x       y       z     vdW  Elec       q    Type
REMARK                         _______ _______ _______ _____ _____    ______ ____
ROOT
ATOM      1  C   UNL     1       0.706   2.100  -4.541  0.00  0.00    +0.044 C 
ATOM      2  C   UNL     1       1.670   1.118  -3.825  0.00  0.00    +0.181 C 
ATOM      3  C   UNL     1       1.030   0.795  -2.449  0.00  0.00    +0.049 C 
ATOM      4  C   UNL     1      -0.394   1.358  -2.570  0.00  0.00    +0.003 C 
ATOM      5  C   UNL     1      -0.166   2.642  -3.391  0.00  0.00    -0.022 C 
ATOM      6  C   UNL     1      -1.460   3.301  -3.781  0.00  0.00    +0.007 C 
ATOM      7  C   UNL     1      -2.528   3.121  -2.689  0.00  0.00    +0.005 C 
ATOM      8  C   UNL     1      -1.883   2.932  -1.323  0.00  0.00    +0.003 C 
ATOM      9  C   UNL     1      -1.140   1.591  -1.294  0.00  0.00    +0.000 C 
ATOM     10  C   UNL     1      -0.279   1.558  -0.033  0.00  0.00    +0.031 C 
ATOM     11  C   UNL     1      -1.201   1.740   1.145  0.00  0.00    -0.027 C 
ATOM     12  C   UNL     1      -2.351   2.337   1.064  0.00  0.00    -0.064 C 
ATOM     13  C   UNL     1      -2.909   2.953  -0.195  0.00  0.00    -0.008 C 
ATOM     14  C   UNL     1      -4.190   2.218  -0.573  0.00  0.00    +0.015 C 
ATOM     15  C   UNL     1      -4.613   1.274   0.551  0.00  0.00    +0.046 C 
ATOM     16  C   UNL     1      -4.636   1.967   1.908  0.00  0.00    +0.180 C 
ATOM     17  C   UNL     1      -3.225   2.417   2.304  0.00  0.00    +0.075 C 
ATOM     18  C   UNL     1      -3.250   4.420   0.094  0.00  0.00    +0.016 C 
ATOM     19  C   UNL     1       0.727   3.643  -2.636  0.00  0.00    +0.012 C 
ENDROOT
BRANCH   1  20
ATOM     20  C   UNL     1      -0.115   1.358  -5.588  0.00  0.00    +0.035 C 
ATOM     21  C   UNL     1       0.822   0.765  -6.642  0.00  0.00    +0.014 C 
BRANCH  20  26
ATOM     22  C   UNL     1      -3.758   5.133  -7.950  0.00  0.00    +0.009 C 
ATOM     23  C   UNL     1      -3.026   4.092  -7.101  0.00  0.00    +0.005 C 
ATOM     24  C   UNL     1      -2.856   2.796  -7.906  0.00  0.00    +0.011 C 
ATOM     25  C   UNL     1      -2.242   1.738  -6.988  0.00  0.00    +0.049 C 
ATOM     26  C   UNL     1      -1.071   2.317  -6.248  0.00  0.00    -0.008 C 
ATOM     27  C   UNL     1      -1.637   4.614  -6.730  0.00  0.00    +0.115 C 
ATOM     28  N   UNL     1      -0.745   3.576  -6.091  0.00  0.00    -0.390 N 
ATOM     29  H   UNL     1       0.087   3.846  -5.553  0.00  0.00    +0.159 HD
ENDBRANCH  20  26
ENDBRANCH   1  20
BRANCH  16  30
ATOM     30  O   UNL     1      -5.527   3.112   1.864  0.00  0.00    -0.461 OA
BRANCH  30  31
ATOM     31  C   UNL     1      -6.143   3.450   3.008  0.00  0.00    +0.304 C 
ATOM     32  O   UNL     1      -5.944   2.809   4.013  0.00  0.00    -0.251 OA
ATOM     33  C   UNL     1      -7.082   4.628   3.039  0.00  0.00    +0.136 C 
ENDBRANCH  30  31
ENDBRANCH  16  30
BRANCH   2  34
ATOM     34  O   UNL     1       1.808  -0.097  -4.608  0.00  0.00    -0.461 OA
BRANCH  34  35
ATOM     35  C   UNL     1       2.965  -0.767  -4.495  0.00  0.00    +0.304 C 
ATOM     36  O   UNL     1       3.835  -0.352  -3.766  0.00  0.00    -0.251 OA
ATOM     37  C   UNL     1       3.180  -2.037  -5.278  0.00  0.00    +0.136 C 
ENDBRANCH  34  35
ENDBRANCH   2  34
TORSDOF 6
