REMARK  Name = ZINC09936027
REMARK  16 active torsions:
REMARK  status: ('A' for Active; 'I' for Inactive)
REMARK    1  A    between atoms: C_1  and  C_2
REMARK    2  A    between atoms: C_2  and  C_3
REMARK    3  A    between atoms: C_3  and  N_74
REMARK    4  A    between atoms: C_4  and  C_5
REMARK    5  A    between atoms: C_4  and  N_74
REMARK    6  A    between atoms: C_5  and  C_6
REMARK    7  A    between atoms: C_7  and  C_8
REMARK    8  A    between atoms: C_7  and  N_74
REMARK    9  A    between atoms: C_8  and  N_9
REMARK   10  A    between atoms: C_10  and  C_12
REMARK   11  A    between atoms: C_12  and  N_13
REMARK   12  A    between atoms: C_20  and  S_24
REMARK   13  A    between atoms: C_21  and  C_23
REMARK   14  A    between atoms: S_24  and  N_27
REMARK   15  A    between atoms: C_29  and  C_36
REMARK   16  A    between atoms: C_32  and  C_35
REMARK                            x       y       z     vdW  Elec       q    Type
REMARK                         _______ _______ _______ _____ _____    ______ ____
ROOT
ATOM      1  N   UNL     1      -0.556   4.708  -0.538  0.00  0.00    -0.290 N 
ATOM      2  C   UNL     1      -1.911   4.630  -0.491  0.00  0.00    +0.203 A 
ATOM      3  N   UNL     1      -2.515   3.494  -0.268  0.00  0.00    -0.230 NA
ATOM      4  C   UNL     1      -1.823   2.373  -0.088  0.00  0.00    +0.117 A 
ATOM      5  C   UNL     1      -0.416   2.354  -0.119  0.00  0.00    +0.099 A 
ATOM      6  C   UNL     1       0.214   3.618  -0.361  0.00  0.00    +0.264 A 
ATOM      7  O   UNL     1       1.429   3.705  -0.406  0.00  0.00    -0.267 OA
ATOM      8  C   UNL     1       0.185   1.052   0.100  0.00  0.00    +0.130 A 
ATOM      9  C   UNL     1      -0.609  -0.009   0.310  0.00  0.00    +0.016 A 
ATOM     10  S   UNL     1      -2.251   0.680   0.226  0.00  0.00    -0.072 S 
ATOM     11  C   UNL     1      -0.209  -1.441   0.558  0.00  0.00    +0.053 C 
ENDROOT
BRANCH   8  12
ATOM     12  S   UNL     1       1.937   0.867   0.091  0.00  0.00    +0.062 S 
ATOM     13  O   UNL     1       2.479   2.102   0.539  0.00  0.00    -0.153 OA
ATOM     14  O   UNL     1       2.219  -0.367   0.738  0.00  0.00    -0.153 OA
BRANCH  12  15
ATOM     15  N   UNL     1       2.403   0.691  -1.488  0.00  0.00    -0.176 NA
ATOM     16  C   UNL     1       2.487  -0.643  -2.099  0.00  0.00    +0.112 C 
ATOM     17  C   UNL     1       1.649  -0.644  -3.386  0.00  0.00    +0.002 C 
ATOM     18  C   UNL     1       2.119   0.494  -4.295  0.00  0.00    +0.009 C 
ATOM     19  C   UNL     1       1.910   1.834  -3.587  0.00  0.00    +0.002 C 
ATOM     20  C   UNL     1       2.746   1.864  -2.303  0.00  0.00    +0.112 C 
ATOM     21  C   UNL     1       0.430   2.001  -3.236  0.00  0.00    +0.009 C 
ATOM     22  C   UNL     1       1.828  -1.981  -4.109  0.00  0.00    +0.009 C 
ENDBRANCH  12  15
ENDBRANCH   8  12
BRANCH   1  23
ATOM     23  C   UNL     1       0.080   6.004  -0.786  0.00  0.00    +0.221 C 
BRANCH  23  25
ATOM     24  N   UNL     1       0.833   7.326  -2.736  0.00  0.00    -0.316 N 
ATOM     25  C   UNL     1       0.264   6.197  -2.269  0.00  0.00    +0.233 C 
ATOM     26  O   UNL     1      -0.100   5.337  -3.043  0.00  0.00    -0.274 OA
ATOM     27  H   UNL     1       1.125   8.014  -2.118  0.00  0.00    +0.149 HD
BRANCH  24  28
ATOM     28  C   UNL     1       1.012   7.514  -4.178  0.00  0.00    +0.086 C 
BRANCH  28  29
ATOM     29  C   UNL     1       1.677   8.868  -4.437  0.00  0.00    -0.060 C 
BRANCH  29  30
ATOM     30  N   UNL     1       1.869   9.034  -5.893  0.00  0.00    +0.381 N 
ATOM     31  H   UNL     1       2.350   8.205  -6.262  0.00  0.00    -0.082 HD
BRANCH  30  32
ATOM     32  C   UNL     1       0.559   9.168  -6.564  0.00  0.00    -0.079 C 
BRANCH  32  34
ATOM     33  C   UNL     1      -1.505  10.554  -6.803  0.00  0.00    +0.002 C 
ATOM     34  C   UNL     1      -0.189  10.396  -6.041  0.00  0.00    -0.022 C 
ENDBRANCH  32  34
ENDBRANCH  30  32
BRANCH  30  35
ATOM     35  C   UNL     1       2.698  10.228  -6.160  0.00  0.00    -0.079 C 
BRANCH  35  36
ATOM     36  C   UNL     1       3.025  10.279  -7.654  0.00  0.00    -0.022 C 
ATOM     37  C   UNL     1       4.021  11.409  -7.920  0.00  0.00    +0.002 C 
ENDBRANCH  35  36
ENDBRANCH  30  35
ENDBRANCH  29  30
ENDBRANCH  28  29
ENDBRANCH  24  28
ENDBRANCH  23  25
ENDBRANCH   1  23
TORSDOF 11
