REMARK  Name = ZINC33126323
REMARK  13 active torsions:
REMARK  status: ('A' for Active; 'I' for Inactive)
REMARK    1  A    between atoms: C_1  and  C_2
REMARK    2  A    between atoms: C_6  and  C_8
REMARK    3  A    between atoms: C_12  and  C_19
REMARK    4  A    between atoms: C_19  and  N_20
REMARK    5  A    between atoms: N_20  and  C_21
REMARK    6  A    between atoms: N_20  and  C_31
REMARK    7  A    between atoms: C_21  and  C_22
REMARK    8  A    between atoms: C_25  and  C_28
REMARK    9  A    between atoms: C_28  and  C_29
REMARK   10  A    between atoms: C_28  and  C_30
REMARK   11  A    between atoms: C_31  and  C_32
REMARK   12  A    between atoms: C_32  and  C_33
REMARK   13  A    between atoms: C_32  and  C_34
REMARK                            x       y       z     vdW  Elec       q    Type
REMARK                         _______ _______ _______ _____ _____    ______ ____
ROOT
ATOM      1  C   UNL     1       2.141   3.806  -0.910  0.00  0.00    +0.066 A 
ATOM      2  C   UNL     1       2.306   5.142  -0.707  0.00  0.00    +0.075 A 
ATOM      3  C   UNL     1       3.690   5.408  -0.629  0.00  0.00    +0.158 A 
ATOM      4  N   UNL     1       4.366   6.534  -0.440  0.00  0.00    -0.234 NA
ATOM      5  C   UNL     1       5.693   6.547  -0.408  0.00  0.00    +0.032 A 
ATOM      6  C   UNL     1       6.398   5.387  -0.571  0.00  0.00    +0.093 A 
ATOM      7  C   UNL     1       5.697   4.185  -0.772  0.00  0.00    +0.273 A 
ATOM      8  O   UNL     1       6.296   3.133  -0.920  0.00  0.00    -0.266 OA
ATOM      9  N   UNL     1       4.349   4.217  -0.798  0.00  0.00    -0.201 N 
ATOM     10  N   UNL     1       3.385   3.217  -0.973  0.00  0.00    -0.288 N 
ATOM     11  H   UNL     1       3.472   2.132  -1.138  0.00  0.00    +0.187 HD
ENDROOT
BRANCH   1  17
ATOM     12  C   UNL     1      -2.845   3.935  -1.004  0.00  0.00    +0.044 C 
ATOM     13  C   UNL     1      -1.554   3.164  -1.093  0.00  0.00    -0.050 A 
ATOM     14  C   UNL     1      -1.579   1.797  -1.309  0.00  0.00    +0.003 A 
ATOM     15  C   UNL     1      -0.398   1.081  -1.387  0.00  0.00    +0.001 A 
ATOM     16  C   UNL     1       0.815   1.727  -1.260  0.00  0.00    +0.010 A 
ATOM     17  C   UNL     1       0.848   3.107  -1.047  0.00  0.00    +0.000 A 
ATOM     18  C   UNL     1      -0.349   3.823  -0.964  0.00  0.00    +0.013 A 
ENDBRANCH   1  17
BRANCH   5  19
ATOM     19  C   UNL     1       6.426   7.846  -0.192  0.00  0.00    -0.022 C 
BRANCH  19  20
ATOM     20  N   UNL     1       6.181   8.742  -1.330  0.00  0.00    +0.386 N 
ATOM     21  H   UNL     1       6.414   8.189  -2.252  0.00  0.00    -0.081 HD
BRANCH  20  22
ATOM     22  C   UNL     1       7.059   9.917  -1.273  0.00  0.00    -0.042 C 
BRANCH  22  23
ATOM     23  C   UNL     1       8.452   9.524  -1.695  0.00  0.00    -0.064 A 
ATOM     24  C   UNL     1       9.397   9.198  -0.740  0.00  0.00    +0.002 A 
ATOM     25  C   UNL     1      10.673   8.834  -1.127  0.00  0.00    +0.004 A 
ATOM     26  C   UNL     1      11.006   8.803  -2.468  0.00  0.00    -0.045 A 
ATOM     27  C   UNL     1      10.063   9.134  -3.423  0.00  0.00    +0.004 A 
ATOM     28  C   UNL     1       8.786   9.495  -3.036  0.00  0.00    +0.002 A 
BRANCH  26  29
ATOM     29  C   UNL     1      12.399   8.409  -2.890  0.00  0.00    +0.013 C 
ATOM     30  C   UNL     1      13.411   9.381  -2.280  0.00  0.00    +0.012 C 
ATOM     31  C   UNL     1      12.697   6.990  -2.402  0.00  0.00    +0.012 C 
ENDBRANCH  26  29
ENDBRANCH  22  23
ENDBRANCH  20  22
BRANCH  20  32
ATOM     32  C   UNL     1       4.769   9.143  -1.390  0.00  0.00    -0.075 C 
BRANCH  32  33
ATOM     33  C   UNL     1       4.465   9.739  -2.766  0.00  0.00    -0.034 C 
ATOM     34  C   UNL     1       4.666   8.669  -3.841  0.00  0.00    +0.005 C 
ATOM     35  C   UNL     1       3.018  10.232  -2.800  0.00  0.00    +0.005 C 
ENDBRANCH  32  33
ENDBRANCH  20  32
ENDBRANCH  19  20
ENDBRANCH   5  19
TORSDOF 8
