REMARK  Name = ZINC39354842
REMARK  8 active torsions:
REMARK  status: ('A' for Active; 'I' for Inactive)
REMARK    1  A    between atoms: C_1  and  C_2
REMARK    2  A    between atoms: C_4  and  C_8
REMARK    3  A    between atoms: N_10  and  C_11
REMARK    4  A    between atoms: N_21  and  C_22
REMARK    5  A    between atoms: C_25  and  C_28
REMARK    6  A    between atoms: C_28  and  C_29
REMARK    7  A    between atoms: C_28  and  C_30
REMARK    8  A    between atoms: C_28  and  C_31
REMARK                            x       y       z     vdW  Elec       q    Type
REMARK                         _______ _______ _______ _____ _____    ______ ____
ROOT
ATOM      1  C   UNL     1      -2.633  -4.207  -2.597  0.00  0.00    +0.102 C 
ATOM      2  C   UNL     1      -3.211  -3.274  -3.674  0.00  0.00    +0.027 C 
ATOM      3  C   UNL     1      -4.531  -2.674  -3.195  0.00  0.00    +0.004 C 
ATOM      4  C   UNL     1      -5.591  -3.762  -2.992  0.00  0.00    +0.029 C 
ATOM      5  C   UNL     1      -5.136  -4.677  -1.853  0.00  0.00    +0.123 C 
ATOM      6  C   UNL     1      -3.737  -5.162  -2.211  0.00  0.00    -0.013 C 
ATOM      7  C   UNL     1      -3.733  -6.464  -2.132  0.00  0.00    +0.091 C 
ATOM      8  N   UNL     1      -4.989  -6.960  -1.825  0.00  0.00    -0.271 N 
ATOM      9  N   UNL     1      -5.941  -5.899  -1.774  0.00  0.00    -0.246 N 
ATOM     10  H   UNL     1      -5.193  -7.894  -1.661  0.00  0.00    +0.169 HD
ENDROOT
BRANCH   9  11
ATOM     11  C   UNL     1      -7.331  -5.993  -1.677  0.00  0.00    +0.048 A 
ATOM     12  C   UNL     1      -7.954  -7.231  -1.775  0.00  0.00    +0.025 A 
ATOM     13  C   UNL     1      -9.328  -7.321  -1.678  0.00  0.00    +0.006 A 
ATOM     14  C   UNL     1     -10.085  -6.179  -1.484  0.00  0.00    -0.042 A 
ATOM     15  C   UNL     1      -9.468  -4.945  -1.387  0.00  0.00    +0.006 A 
ATOM     16  C   UNL     1      -8.094  -4.850  -1.477  0.00  0.00    +0.025 A 
BRANCH  14  17
ATOM     17  C   UNL     1     -11.585  -6.281  -1.380  0.00  0.00    -0.013 C 
ATOM     18  C   UNL     1     -11.954  -7.176  -0.195  0.00  0.00    +0.015 C 
ATOM     19  C   UNL     1     -12.177  -4.886  -1.169  0.00  0.00    +0.015 C 
ATOM     20  C   UNL     1     -12.146  -6.884  -2.669  0.00  0.00    +0.015 C 
ENDBRANCH  14  17
ENDBRANCH   9  11
BRANCH   1  23
ATOM     21  C   UNL     1      -0.982  -2.883  -1.390  0.00  0.00    +0.244 C 
ATOM     22  O   UNL     1      -0.220  -3.039  -2.320  0.00  0.00    -0.273 OA
ATOM     23  N   UNL     1      -2.214  -3.427  -1.430  0.00  0.00    -0.307 N 
ATOM     24  H   UNL     1      -2.824  -3.302  -0.686  0.00  0.00    +0.149 HD
BRANCH  21  28
ATOM     25  C   UNL     1      -0.052   1.610  -0.368  0.00  0.00    +0.067 C 
ATOM     26  C   UNL     1      -0.026   0.105  -0.295  0.00  0.00    +0.059 C 
ATOM     27  C   UNL     1      -1.112  -0.670  -0.257  0.00  0.00    +0.035 C 
ATOM     28  C   UNL     1      -0.551  -2.080  -0.189  0.00  0.00    +0.238 C 
ATOM     29  N   UNL     1       0.905  -1.859  -0.202  0.00  0.00    -0.170 NA
ATOM     30  N   UNL     1       1.099  -0.642  -0.266  0.00  0.00    -0.159 NA
ENDBRANCH  21  28
ENDBRANCH   1  23
TORSDOF 4
