REMARK  Name = ZINC31161089
REMARK  8 active torsions:
REMARK  status: ('A' for Active; 'I' for Inactive)
REMARK    1  A    between atoms: C_1  and  C_2
REMARK    2  A    between atoms: C_2  and  C_35
REMARK    3  A    between atoms: C_14  and  C_30
REMARK    4  A    between atoms: C_15  and  C_16
REMARK    5  A    between atoms: C_16  and  C_17
REMARK    6  A    between atoms: C_30  and  C_31
REMARK    7  A    between atoms: C_30  and  C_32
REMARK    8  A    between atoms: C_30  and  C_33
REMARK                            x       y       z     vdW  Elec       q    Type
REMARK                         _______ _______ _______ _____ _____    ______ ____
ROOT
ATOM      1  C   UNK A   2      -5.947  -4.868   2.142  0.00  0.00    +0.060 C 
ATOM      2  C   UNK A   2      -6.297  -3.622   1.326  0.00  0.00    +0.124 C 
ATOM      3  C   UNK A   2      -5.881  -2.394   2.091  0.00  0.00    +0.020 C 
ATOM      4  C   UNK A   2      -4.652  -1.902   1.946  0.00  0.00    +0.011 C 
ATOM      5  C   UNK A   2      -3.734  -2.588   1.010  0.00  0.00    +0.017 A 
ATOM      6  C   UNK A   2      -2.369  -2.361   1.048  0.00  0.00    +0.021 A 
ATOM      7  C   UNK A   2      -1.539  -3.034   0.150  0.00  0.00    +0.004 A 
ATOM      8  C   UNK A   2      -2.089  -3.923  -0.793  0.00  0.00    +0.050 A 
ATOM      9  C   UNK A   2      -3.464  -4.142  -0.820  0.00  0.00    +0.072 A 
ATOM     10  C   UNK A   2      -4.282  -3.483   0.071  0.00  0.00    +0.131 A 
ATOM     11  O   UNK A   2      -5.627  -3.680   0.066  0.00  0.00    -0.482 OA
ATOM     12  N   UNK A   2      -1.043  -4.421  -1.537  0.00  0.00    -0.357 N 
ATOM     13  H   UNK A   2      -1.237  -5.146  -2.341  0.00  0.00    +0.166 HD
ATOM     14  C   UNK A   2       0.138  -3.879  -1.104  0.00  0.00    +0.030 A 
ATOM     15  C   UNK A   2      -0.093  -3.031  -0.090  0.00  0.00    -0.016 A 
ATOM     16  C   UNK A   2      -7.809  -3.581   1.092  0.00  0.00    +0.060 C 
ENDROOT
BRANCH  14  17
ATOM     17  C   UNK A   2       1.495  -4.188  -1.681  0.00  0.00    +0.023 C 
ATOM     18  C   UNK A   2       2.347  -4.900  -0.628  0.00  0.00    +0.022 C 
ATOM     19  C   UNK A   2       1.335  -5.093  -2.904  0.00  0.00    +0.022 C 
BRANCH  17  20
ATOM     20  C   UNK A   2       2.171  -2.905  -2.090  0.00  0.00    -0.022 C 
ATOM     21  C   UNK A   2       3.368  -2.623  -1.639  0.00  0.00    +0.005 C 
ENDBRANCH  17  20
ENDBRANCH  14  17
BRANCH  15  22
ATOM     22  C   UNK A   2       0.940  -2.232   0.663  0.00  0.00    +0.069 C 
BRANCH  22  23
ATOM     23  C   UNK A   2       1.068  -0.843   0.034  0.00  0.00    +0.163 C 
ATOM     24  C   UNK A   2       2.192  -0.089   0.706  0.00  0.00    +0.237 C 
ATOM     25  O   UNK A   2       3.124  -0.679   1.211  0.00  0.00    -0.274 OA
ATOM     26  N   PRO A   1       2.129   1.254   0.729  0.00  0.00    -0.288 N 
ATOM     27  CD  PRO A   1       3.077   2.203   1.316  0.00  0.00    +0.109 C 
ATOM     28  CG  PRO A   1       2.239   3.408   1.784  0.00  0.00    +0.021 C 
ATOM     29  CB  PRO A   1       0.901   3.298   1.026  0.00  0.00    +0.033 C 
ATOM     30  CA  PRO A   1       1.029   2.045   0.143  0.00  0.00    +0.162 C 
ATOM     31  C   PRO A   1      -0.235   1.228   0.243  0.00  0.00    +0.234 C 
ATOM     32  O   PRO A   1      -1.305   1.788   0.355  0.00  0.00    -0.274 OA
ATOM     33  N   UNK A   2      -0.188  -0.115   0.204  0.00  0.00    -0.302 N 
ATOM     34  H   UNK A   2      -1.134  -0.666   0.304  0.00  0.00    +0.150 HD
ENDBRANCH  22  23
ENDBRANCH  15  22
TORSDOF 4
