REMARK  Name = ZINC38831932
REMARK  12 active torsions:
REMARK  status: ('A' for Active; 'I' for Inactive)
REMARK    1  A    between atoms: C_1  and  C_2
REMARK    2  A    between atoms: N_5  and  C_8
REMARK    3  A    between atoms: C_8  and  C_9
REMARK    4  A    between atoms: C_13  and  C_15
REMARK    5  A    between atoms: C_15  and  N_16
REMARK    6  A    between atoms: C_17  and  C_19
REMARK    7  A    between atoms: N_22  and  S_34
REMARK    8  A    between atoms: C_25  and  C_30
REMARK    9  A    between atoms: C_30  and  C_31
REMARK   10  A    between atoms: C_30  and  C_32
REMARK   11  A    between atoms: C_30  and  C_33
REMARK   12  A    between atoms: S_34  and  C_37
REMARK                            x       y       z     vdW  Elec       q    Type
REMARK                         _______ _______ _______ _____ _____    ______ ____
ROOT
ATOM      1  N   UNL     1      -1.302  -3.777   6.995  0.00  0.00    -0.308 N 
ATOM      2  C   UNL     1      -2.025  -3.669   8.127  0.00  0.00    +0.256 C 
ATOM      3  O   UNL     1      -2.637  -4.627   8.550  0.00  0.00    -0.272 OA
ATOM      4  H   UNL     1      -0.813  -3.010   6.657  0.00  0.00    +0.149 HD
ENDROOT
BRANCH   2   5
ATOM      5  C   UNL     1      -2.074  -2.358   8.868  0.00  0.00    +0.277 C 
ATOM      6  C   UNL     1      -2.777  -1.303   8.002  0.00  0.00    +0.185 C 
ATOM      7  N   UNL     1      -2.844  -0.057   8.784  0.00  0.00    -0.200 N 
ATOM      8  C   UNL     1      -3.180  -0.158  10.144  0.00  0.00    +0.093 A 
ATOM      9  C   UNL     1      -3.537   0.976  10.857  0.00  0.00    +0.032 A 
ATOM     10  C   UNL     1      -3.863   0.872  12.197  0.00  0.00    -0.040 A 
ATOM     11  C   UNL     1      -3.833  -0.360  12.824  0.00  0.00    +0.008 A 
ATOM     12  C   UNL     1      -3.478  -1.494  12.116  0.00  0.00    +0.048 A 
ATOM     13  C   UNL     1      -3.151  -1.400  10.772  0.00  0.00    +0.144 A 
ATOM     14  O   UNL     1      -2.808  -2.522  10.084  0.00  0.00    -0.476 OA
BRANCH  10  15
ATOM     15  C   UNL     1      -4.253   2.103  12.974  0.00  0.00    -0.013 C 
ATOM     16  C   UNL     1      -5.492   2.736  12.340  0.00  0.00    +0.015 C 
ATOM     17  C   UNL     1      -4.562   1.715  14.422  0.00  0.00    +0.015 C 
ATOM     18  C   UNL     1      -3.099   3.107  12.951  0.00  0.00    +0.015 C 
ENDBRANCH  10  15
BRANCH   7  19
ATOM     19  S   UNL     1      -2.535   1.412   8.085  0.00  0.00    +0.043 S 
ATOM     20  O   UNL     1      -2.089   2.236   9.154  0.00  0.00    -0.155 OA
ATOM     21  O   UNL     1      -1.678   1.119   6.990  0.00  0.00    -0.155 OA
ATOM     22  C   UNL     1      -4.145   1.989   7.481  0.00  0.00    +0.218 C 
ENDBRANCH   7  19
ENDBRANCH   2   5
BRANCH   1  23
ATOM     23  C   UNL     1      -1.254  -5.051   6.275  0.00  0.00    +0.139 C 
BRANCH  23  28
ATOM     24  C   UNL     1      -0.143  -4.380   2.730  0.00  0.00    -0.064 A 
ATOM     25  C   UNL     1       1.212  -4.640   2.812  0.00  0.00    +0.002 A 
ATOM     26  C   UNL     1       1.769  -5.033   4.014  0.00  0.00    +0.001 A 
ATOM     27  C   UNL     1       0.971  -5.166   5.135  0.00  0.00    +0.005 A 
ATOM     28  C   UNL     1      -0.384  -4.906   5.053  0.00  0.00    -0.030 A 
ATOM     29  C   UNL     1      -0.940  -4.508   3.851  0.00  0.00    +0.007 A 
BRANCH  24  30
ATOM     30  C   UNL     1      -0.750  -3.952   1.419  0.00  0.00    -0.043 C 
BRANCH  30  35
ATOM     31  C   UNL     1      -0.019   1.526   0.010  0.00  0.00    +0.007 C 
ATOM     32  C   UNL     1       0.002  -0.004   0.002  0.00  0.00    -0.018 C 
ATOM     33  C   UNL     1      -1.434  -0.536   0.023  0.00  0.00    -0.016 C 
ATOM     34  C   UNL     1      -1.405  -2.064   0.095  0.00  0.00    -0.078 C 
ATOM     35  N   UNL     1      -0.707  -2.487   1.315  0.00  0.00    +0.382 N 
ATOM     36  C   UNL     1       0.691  -2.042   1.269  0.00  0.00    -0.078 C 
ATOM     37  C   UNL     1       0.743  -0.513   1.242  0.00  0.00    -0.016 C 
ATOM     38  H   UNL     1      -1.162  -2.082   2.119  0.00  0.00    -0.081 HD
ENDBRANCH  30  35
ENDBRANCH  24  30
ENDBRANCH  23  28
ENDBRANCH   1  23
TORSDOF 7
