REMARK  Name = ZINC35047286
REMARK  5 active torsions:
REMARK  status: ('A' for Active; 'I' for Inactive)
REMARK    1  A    between atoms: C_1  and  C_2
REMARK    2  A    between atoms: C_2  and  C_4
REMARK    3  A    between atoms: C_7  and  N_10
REMARK    4  A    between atoms: C_15  and  C_31
REMARK    5  A    between atoms: C_19  and  C_25
REMARK                            x       y       z     vdW  Elec       q    Type
REMARK                         _______ _______ _______ _____ _____    ______ ____
ROOT
ATOM      1  N   UNL     1      -4.901  -2.914  -0.340  0.00  0.00    -0.210 N 
ATOM      2  C   UNL     1      -6.113  -2.329  -0.299  0.00  0.00    +0.231 C 
ATOM      3  O   UNL     1      -6.365  -1.177  -0.580  0.00  0.00    -0.274 OA
ATOM      4  C   UNL     1      -7.119  -3.394   0.169  0.00  0.00    +0.100 C 
ATOM      5  C   UNL     1      -7.103  -3.303   1.697  0.00  0.00    +0.054 C 
ATOM      6  C   UNL     1      -7.289  -4.619   2.369  0.00  0.00    -0.022 C 
ATOM      7  C   UNL     1      -7.130  -5.767   1.801  0.00  0.00    -0.022 C 
ATOM      8  C   UNL     1      -6.780  -5.927   0.355  0.00  0.00    +0.054 C 
ATOM      9  C   UNL     1      -6.387  -4.651  -0.330  0.00  0.00    +0.100 C 
ATOM     10  C   UNL     1      -4.940  -4.261  -0.229  0.00  0.00    +0.231 C 
ATOM     11  O   UNL     1      -3.996  -5.006  -0.077  0.00  0.00    -0.274 OA
ENDROOT
BRANCH   1  15
ATOM     12  C   UNL     1      -1.353  -0.771  -0.781  0.00  0.00    +0.017 A 
ATOM     13  C   UNL     1      -2.580  -0.097  -0.741  0.00  0.00    +0.013 A 
ATOM     14  C   UNL     1      -3.749  -0.809  -0.596  0.00  0.00    +0.024 A 
ATOM     15  C   UNL     1      -3.712  -2.196  -0.488  0.00  0.00    +0.044 A 
ATOM     16  C   UNL     1      -2.495  -2.870  -0.527  0.00  0.00    +0.024 A 
ATOM     17  C   UNL     1      -1.322  -2.167  -0.679  0.00  0.00    +0.013 A 
BRANCH  12  19
ATOM     18  C   UNL     1      -0.139   1.487  -1.046  0.00  0.00    +0.091 C 
ATOM     19  C   UNL     1      -0.103  -0.015  -0.936  0.00  0.00    +0.160 C 
ATOM     20  O   UNL     1       0.959  -0.601  -0.976  0.00  0.00    -0.292 OA
ENDBRANCH  12  19
ENDBRANCH   1  15
BRANCH   8  21
ATOM     21  C   UNL     1      -5.643  -6.909   0.240  0.00  0.00    -0.040 A 
ATOM     22  C   UNL     1      -4.737  -7.042   1.276  0.00  0.00    +0.004 A 
ATOM     23  C   UNL     1      -3.694  -7.943   1.170  0.00  0.00    +0.000 A 
ATOM     24  C   UNL     1      -3.558  -8.712   0.029  0.00  0.00    +0.000 A 
ATOM     25  C   UNL     1      -4.465  -8.580  -1.005  0.00  0.00    +0.000 A 
ATOM     26  C   UNL     1      -5.510  -7.682  -0.898  0.00  0.00    +0.004 A 
ENDBRANCH   8  21
BRANCH   5  27
ATOM     27  C   UNL     1      -8.208  -2.378   2.137  0.00  0.00    -0.040 A 
ATOM     28  C   UNL     1      -9.522  -2.675   1.827  0.00  0.00    +0.004 A 
ATOM     29  C   UNL     1     -10.536  -1.826   2.231  0.00  0.00    +0.000 A 
ATOM     30  C   UNL     1     -10.236  -0.681   2.945  0.00  0.00    +0.000 A 
ATOM     31  C   UNL     1      -8.922  -0.385   3.255  0.00  0.00    +0.000 A 
ATOM     32  C   UNL     1      -7.909  -1.235   2.855  0.00  0.00    +0.004 A 
ENDBRANCH   5  27
TORSDOF 4
