REMARK  Name = ZINC36029864
REMARK  6 active torsions:
REMARK  status: ('A' for Active; 'I' for Inactive)
REMARK    1  A    between atoms: C_4  and  C_7
REMARK    2  A    between atoms: C_7  and  C_8
REMARK    3  A    between atoms: N_12  and  C_29
REMARK    4  A    between atoms: N_17  and  S_20
REMARK    5  A    between atoms: S_20  and  C_23
REMARK    6  A    between atoms: C_29  and  C_30
REMARK                            x       y       z     vdW  Elec       q    Type
REMARK                         _______ _______ _______ _____ _____    ______ ____
ROOT
ATOM      1  C   UNL     1       4.456  -0.798   1.455  0.00  0.00    +0.023 C 
ATOM      2  C   UNL     1       5.672  -1.695   1.546  0.00  0.00    +0.201 C 
ATOM      3  O   UNL     1       6.827  -1.329   1.503  0.00  0.00    -0.277 OA
ATOM      4  N   UNL     1       5.253  -2.970   1.682  0.00  0.00    -0.313 N 
ATOM      5  C   UNL     1       3.788  -3.007   1.685  0.00  0.00    +0.006 C 
ATOM      6  N   UNL     1       3.335  -1.625   1.963  0.00  0.00    +0.401 N 
ATOM      7  C   UNL     1       3.285  -3.945   2.781  0.00  0.00    +0.023 C 
ATOM      8  C   UNL     1       3.791  -5.365   2.506  0.00  0.00    +0.109 C 
ATOM      9  N   UNL     1       3.400  -5.750   1.143  0.00  0.00    -0.177 NA
ATOM     10  C   UNL     1       3.774  -4.872   0.026  0.00  0.00    +0.109 C 
ATOM     11  C   UNL     1       3.268  -3.456   0.321  0.00  0.00    +0.023 C 
ATOM     12  H   UNL     1       3.208  -1.483   2.954  0.00  0.00    -0.082 HD
ATOM     13  H   UNL     1       2.484  -1.419   1.460  0.00  0.00    -0.082 HD
ENDROOT
BRANCH   9  14
ATOM     14  S   UNL     1       2.555  -7.148   0.872  0.00  0.00    +0.061 S 
ATOM     15  O   UNL     1       2.813  -7.523  -0.474  0.00  0.00    -0.153 OA
ATOM     16  O   UNL     1       2.830  -8.008   1.968  0.00  0.00    -0.153 OA
BRANCH  14  17
ATOM     17  C   UNL     1       0.842  -6.747   0.963  0.00  0.00    +0.105 A 
ATOM     18  C   UNL     1       0.179  -6.818   2.174  0.00  0.00    +0.028 A 
ATOM     19  C   UNL     1      -1.165  -6.503   2.246  0.00  0.00    +0.002 A 
ATOM     20  C   UNL     1      -1.847  -6.118   1.107  0.00  0.00    +0.000 A 
ATOM     21  C   UNL     1      -1.184  -6.046  -0.104  0.00  0.00    +0.002 A 
ATOM     22  C   UNL     1       0.162  -6.357  -0.175  0.00  0.00    +0.028 A 
ENDBRANCH  14  17
ENDBRANCH   9  14
BRANCH   1  23
ATOM     23  C   UNL     1       4.202  -0.390   0.003  0.00  0.00    +0.028 C 
BRANCH  23  27
ATOM     24  C   UNL     1       0.807   2.196  -0.178  0.00  0.00    +0.000 A 
ATOM     25  C   UNL     1       2.072   2.727  -0.006  0.00  0.00    +0.000 A 
ATOM     26  C   UNL     1       3.171   1.890   0.053  0.00  0.00    +0.003 A 
ATOM     27  C   UNL     1       3.005   0.523  -0.060  0.00  0.00    -0.048 A 
ATOM     28  C   UNL     1       1.740  -0.008  -0.232  0.00  0.00    +0.003 A 
ATOM     29  C   UNL     1       0.641   0.829  -0.292  0.00  0.00    +0.000 A 
ENDBRANCH  23  27
ENDBRANCH   1  23
BRANCH   4  30
ATOM     30  C   UNL     1       6.128  -4.139   1.808  0.00  0.00    +0.109 C 
BRANCH  30  31
ATOM     31  C   UNL     1       6.535  -4.316   3.272  0.00  0.00    +0.006 C 
ATOM     32  C   UNL     1       6.289  -5.683   3.914  0.00  0.00    +0.005 C 
ATOM     33  C   UNL     1       7.714  -5.245   3.571  0.00  0.00    +0.005 C 
ENDBRANCH  30  31
ENDBRANCH   4  30
TORSDOF 6
