REMARK  Name = ZINC14997331
REMARK  9 active torsions:
REMARK  status: ('A' for Active; 'I' for Inactive)
REMARK    1  A    between atoms: C_1  and  O_2
REMARK    2  A    between atoms: O_2  and  C_3
REMARK    3  A    between atoms: C_6  and  C_11
REMARK    4  A    between atoms: C_8  and  O_9
REMARK    5  A    between atoms: O_9  and  C_10
REMARK    6  A    between atoms: C_11  and  N_69
REMARK    7  A    between atoms: C_18  and  C_22
REMARK    8  A    between atoms: C_22  and  O_35
REMARK    9  A    between atoms: N_25  and  C_28
REMARK                            x       y       z     vdW  Elec       q    Type
REMARK                         _______ _______ _______ _____ _____    ______ ____
ROOT
ATOM      1  C   UNL     1     -10.370   4.297   0.134  0.00  0.00    -0.036 C 
ATOM      2  C   UNL     1      -9.474   5.306  -0.552  0.00  0.00    +0.210 C 
ATOM      3  O   UNL     1      -8.540   5.871   0.376  0.00  0.00    -0.494 OA
ATOM      4  C   UNL     1      -7.396   5.156   0.558  0.00  0.00    +0.122 A 
ATOM      5  C   UNL     1      -6.187   5.640   0.079  0.00  0.00    +0.046 A 
ATOM      6  C   UNL     1      -5.040   4.885   0.229  0.00  0.00    +0.010 A 
ATOM      7  C   UNL     1      -5.095   3.653   0.854  0.00  0.00    -0.016 A 
ATOM      8  C   UNL     1      -6.300   3.171   1.333  0.00  0.00    +0.011 A 
ATOM      9  C   UNL     1      -7.443   3.930   1.194  0.00  0.00    -0.022 A 
ATOM     10  C   UNL     1      -8.764   3.429   1.745  0.00  0.00    -0.039 C 
ATOM     11  N   UNL     1      -9.639   3.098   0.595  0.00  0.00    +0.387 N 
ATOM     12  H   UNL     1      -9.055   2.752  -0.175  0.00  0.00    -0.081 HD
ENDROOT
BRANCH   7  13
ATOM     13  C   UNL     1      -3.841   2.830   1.008  0.00  0.00    +0.094 C 
ATOM     14  C   UNL     1      -2.629   3.760   1.117  0.00  0.00    +0.058 C 
ATOM     15  C   UNL     1      -1.354   2.920   1.212  0.00  0.00    +0.108 C 
ATOM     16  N   UNL     1      -1.236   2.071   0.019  0.00  0.00    -0.327 N 
ATOM     17  C   UNL     1      -2.365   1.137  -0.081  0.00  0.00    +0.108 C 
ATOM     18  C   UNL     1      -3.670   1.924  -0.214  0.00  0.00    +0.058 C 
BRANCH  16  19
ATOM     19  C   UNL     1      -0.017   1.387   0.010  0.00  0.00    +0.065 A 
ATOM     20  C   UNL     1       1.178   2.094   0.002  0.00  0.00    +0.026 A 
ATOM     21  C   UNL     1       2.381   1.415  -0.013  0.00  0.00    +0.002 A 
ATOM     22  C   UNL     1       2.397   0.032  -0.021  0.00  0.00    +0.003 A 
ATOM     23  C   UNL     1       1.210  -0.677  -0.013  0.00  0.00    +0.040 A 
ATOM     24  C   UNL     1       0.002  -0.004   0.002  0.00  0.00    +0.144 A 
ATOM     25  F   UNL     1      -1.158  -0.697   0.009  0.00  0.00    -0.204 F 
ENDBRANCH  16  19
BRANCH  13  26
ATOM     26  O   UNL     1      -3.937   2.030   2.188  0.00  0.00    -0.384 OA
ATOM     27  H   UNL     1      -4.683   1.416   2.187  0.00  0.00    +0.211 HD
ENDBRANCH  13  26
ENDBRANCH   7  13
BRANCH  11  28
ATOM     28  C   UNL     1     -10.595   2.046   0.977  0.00  0.00    -0.042 C 
BRANCH  28  32
ATOM     29  C   UNL     1     -13.576   1.696  -2.069  0.00  0.00    +0.161 A 
ATOM     30  C   UNL     1     -12.404   0.962  -2.155  0.00  0.00    +0.049 A 
ATOM     31  C   UNL     1     -11.443   1.077  -1.169  0.00  0.00    +0.005 A 
ATOM     32  C   UNL     1     -11.647   1.925  -0.095  0.00  0.00    -0.060 A 
ATOM     33  C   UNL     1     -12.816   2.656  -0.001  0.00  0.00    +0.051 A 
ATOM     34  C   UNL     1     -13.782   2.548  -0.988  0.00  0.00    +0.162 A 
BRANCH  29  36
ATOM     35  C   UNL     1     -14.245   0.689  -4.117  0.00  0.00    +0.277 C 
ATOM     36  O   UNL     1     -14.524   1.583  -3.038  0.00  0.00    -0.491 OA
ENDBRANCH  29  36
BRANCH  34  37
ATOM     37  O   UNL     1     -14.931   3.271  -0.899  0.00  0.00    -0.491 OA
ATOM     38  C   UNL     1     -15.074   4.125   0.237  0.00  0.00    +0.277 C 
ENDBRANCH  34  37
ENDBRANCH  28  32
ENDBRANCH  11  28
TORSDOF 7
