REMARK  Name = ZINC11685167
REMARK  10 active torsions:
REMARK  status: ('A' for Active; 'I' for Inactive)
REMARK    1  A    between atoms: C_1  and  C_2
REMARK    2  A    between atoms: C_2  and  C_4
REMARK    3  A    between atoms: C_2  and  O_14
REMARK    4  A    between atoms: N_6  and  C_7
REMARK    5  A    between atoms: O_14  and  C_15
REMARK    6  A    between atoms: C_15  and  C_17
REMARK    7  A    between atoms: C_22  and  S_23
REMARK    8  A    between atoms: S_23  and  C_24
REMARK    9  A    between atoms: C_24  and  C_25
REMARK   10  A    between atoms: N_27  and  C_28
REMARK                            x       y       z     vdW  Elec       q    Type
REMARK                         _______ _______ _______ _____ _____    ______ ____
ROOT
ATOM      1  C   UNL     1       8.909  -4.280   5.783  0.00  0.00    +0.072 A 
ATOM      2  C   UNL     1      10.155  -4.056   6.375  0.00  0.00    +0.016 A 
ATOM      3  C   UNL     1      10.753  -2.820   6.271  0.00  0.00    +0.001 A 
ATOM      4  C   UNL     1      10.126  -1.794   5.581  0.00  0.00    +0.001 A 
ATOM      5  C   UNL     1       8.899  -1.999   4.986  0.00  0.00    +0.015 A 
ATOM      6  C   UNL     1       8.276  -3.239   5.085  0.00  0.00    +0.022 A 
ENDROOT
BRANCH   1   7
ATOM      7  C   UNL     1       8.264  -5.599   5.891  0.00  0.00    +0.341 C 
ATOM      8  O   UNL     1       7.180  -5.790   5.375  0.00  0.00    -0.245 OA
BRANCH   7   9
ATOM      9  O   UNL     1       8.875  -6.596   6.562  0.00  0.00    -0.449 OA
BRANCH   9  11
ATOM     10  C   UNL     1       8.589  -8.735   5.435  0.00  0.00    +0.062 C 
ATOM     11  C   UNL     1       8.180  -7.869   6.628  0.00  0.00    +0.259 C 
BRANCH  11  12
ATOM     12  C   UNL     1       8.545  -8.575   7.909  0.00  0.00    +0.258 C 
ATOM     13  O   UNL     1       9.314  -8.055   8.689  0.00  0.00    -0.271 OA
ATOM     14  N   UNL     1       8.016  -9.783   8.187  0.00  0.00    -0.280 N 
ATOM     15  H   UNL     1       7.463 -10.233   7.530  0.00  0.00    +0.155 HD
BRANCH  14  16
ATOM     16  C   UNL     1       8.265 -10.388   9.425  0.00  0.00    +0.069 A 
ATOM     17  C   UNL     1       8.649  -9.615  10.512  0.00  0.00    +0.026 A 
ATOM     18  C   UNL     1       8.889 -10.214  11.734  0.00  0.00    +0.002 A 
ATOM     19  C   UNL     1       8.757 -11.583  11.873  0.00  0.00    +0.003 A 
ATOM     20  C   UNL     1       8.380 -12.358  10.792  0.00  0.00    +0.040 A 
ATOM     21  C   UNL     1       8.133 -11.765   9.567  0.00  0.00    +0.144 A 
ATOM     22  F   UNL     1       7.765 -12.521   8.511  0.00  0.00    -0.204 F 
ENDBRANCH  14  16
ENDBRANCH  11  12
ENDBRANCH   9  11
ENDBRANCH   7   9
ENDBRANCH   1   7
BRANCH   6  23
ATOM     23  S   UNL     1       6.705  -3.503   4.332  0.00  0.00    -0.115 S 
BRANCH  23  24
ATOM     24  C   UNL     1       6.420  -1.865   3.615  0.00  0.00    +0.170 C 
BRANCH  24  25
ATOM     25  C   UNL     1       5.094  -1.854   2.899  0.00  0.00    +0.227 C 
ATOM     26  O   UNL     1       4.409  -2.855   2.876  0.00  0.00    -0.275 OA
ATOM     27  N   UNL     1       4.670  -0.732   2.285  0.00  0.00    -0.285 N 
ATOM     28  H   UNL     1       5.249   0.044   2.239  0.00  0.00    +0.155 HD
BRANCH  27  29
ATOM     29  C   UNL     1       3.391  -0.687   1.714  0.00  0.00    +0.037 A 
ATOM     30  C   UNL     1       2.344  -1.387   2.300  0.00  0.00    +0.027 A 
ATOM     31  C   UNL     1       1.083  -1.343   1.738  0.00  0.00    +0.051 A 
ATOM     32  C   UNL     1       0.858  -0.601   0.589  0.00  0.00    +0.166 A 
ATOM     33  C   UNL     1       1.907   0.102  -0.000  0.00  0.00    +0.168 A 
ATOM     34  C   UNL     1       3.171   0.058   0.564  0.00  0.00    +0.072 A 
ATOM     35  O   UNL     1       1.433   0.745  -1.107  0.00  0.00    -0.453 OA
ATOM     36  C   UNL     1       0.000   0.761  -0.959  0.00  0.00    +0.466 C 
ATOM     37  O   UNL     1      -0.273  -0.398  -0.149  0.00  0.00    -0.453 OA
ENDBRANCH  27  29
ENDBRANCH  24  25
ENDBRANCH  23  24
ENDBRANCH   6  23
TORSDOF 9
