REMARK  Name = ZINC09673448
REMARK  5 active torsions:
REMARK  status: ('A' for Active; 'I' for Inactive)
REMARK    1  A    between atoms: C_1  and  C_2
REMARK    2  A    between atoms: C_5  and  C_8
REMARK    3  A    between atoms: N_16  and  C_19
REMARK    4  A    between atoms: C_22  and  C_25
REMARK    5  A    between atoms: C_28  and  C_30
REMARK                            x       y       z     vdW  Elec       q    Type
REMARK                         _______ _______ _______ _____ _____    ______ ____
ROOT
ATOM      1  C   UNL     1      -0.885  -5.292  -0.646  0.00  0.00    +0.117 C 
ATOM      2  C   UNL     1       0.629  -5.415  -0.475  0.00  0.00    +0.130 C 
ATOM      3  C   UNL     1       0.567  -6.664   0.486  0.00  0.00    +0.194 C 
ATOM      4  C   UNL     1       1.913  -7.184   0.387  0.00  0.00    +0.249 C 
ATOM      5  O   UNL     1       2.557  -7.735   1.253  0.00  0.00    -0.273 OA
ATOM      6  N   UNL     1       2.304  -6.919  -0.901  0.00  0.00    -0.208 N 
ATOM      7  C   UNL     1       1.467  -6.031  -1.551  0.00  0.00    +0.234 C 
ATOM      8  O   UNL     1       1.411  -5.798  -2.739  0.00  0.00    -0.274 OA
ATOM      9  N   UNL     1      -0.410  -6.320   1.425  0.00  0.00    -0.220 N 
ATOM     10  N   UNL     1      -1.376  -5.569   0.743  0.00  0.00    -0.229 NA
ATOM     11  C   UNL     1      -0.423  -6.657   2.730  0.00  0.00    +0.261 C 
ATOM     12  O   UNL     1       0.460  -7.357   3.186  0.00  0.00    -0.269 OA
ATOM     13  H   UNL     1      -1.573  -4.710   1.234  0.00  0.00    +0.145 HD
ENDROOT
BRANCH   1  18
ATOM     14  C   UNL     1      -2.350   0.039  -2.329  0.00  0.00    +0.044 C 
ATOM     15  C   UNL     1      -1.968  -1.351  -1.891  0.00  0.00    -0.050 A 
ATOM     16  C   UNL     1      -1.953  -2.386  -2.807  0.00  0.00    +0.003 A 
ATOM     17  C   UNL     1      -1.602  -3.661  -2.405  0.00  0.00    +0.005 A 
ATOM     18  C   UNL     1      -1.266  -3.901  -1.085  0.00  0.00    -0.028 A 
ATOM     19  C   UNL     1      -1.280  -2.867  -0.169  0.00  0.00    +0.005 A 
ATOM     20  C   UNL     1      -1.627  -1.591  -0.573  0.00  0.00    +0.003 A 
ENDBRANCH   1  18
BRANCH   6  21
ATOM     21  C   UNL     1       3.443  -7.477  -1.497  0.00  0.00    +0.044 A 
ATOM     22  C   UNL     1       3.774  -7.152  -2.805  0.00  0.00    +0.024 A 
ATOM     23  C   UNL     1       4.897  -7.704  -3.390  0.00  0.00    +0.005 A 
ATOM     24  C   UNL     1       5.693  -8.579  -2.673  0.00  0.00    -0.050 A 
ATOM     25  C   UNL     1       5.366  -8.904  -1.369  0.00  0.00    +0.005 A 
ATOM     26  C   UNL     1       4.247  -8.351  -0.777  0.00  0.00    +0.024 A 
ATOM     27  C   UNL     1       6.918  -9.179  -3.313  0.00  0.00    +0.044 C 
ENDBRANCH   6  21
BRANCH  11  28
ATOM     28  C   UNL     1      -1.512  -6.176   3.606  0.00  0.00    +0.039 A 
ATOM     29  C   UNL     1      -2.626  -5.539   3.056  0.00  0.00    +0.013 A 
ATOM     30  C   UNL     1      -3.639  -5.092   3.879  0.00  0.00    +0.002 A 
ATOM     31  C   UNL     1      -3.553  -5.274   5.248  0.00  0.00    +0.015 A 
ATOM     32  C   UNL     1      -2.451  -5.904   5.801  0.00  0.00    +0.019 A 
ATOM     33  C   UNL     1      -1.434  -6.362   4.987  0.00  0.00    +0.028 A 
ATOM     34 BR   UNL     1      -2.343  -6.145   7.673  0.00  0.00    -0.050 Br
ENDBRANCH  11  28
TORSDOF 3
