REMARK  Name = ZINC09009868
REMARK  6 active torsions:
REMARK  status: ('A' for Active; 'I' for Inactive)
REMARK    1  A    between atoms: C_1  and  C_2
REMARK    2  A    between atoms: C_8  and  C_9
REMARK    3  A    between atoms: C_8  and  N_64
REMARK    4  A    between atoms: C_9  and  C_10
REMARK    5  A    between atoms: C_10  and  N_11
REMARK    6  A    between atoms: N_11  and  C_12
REMARK                            x       y       z     vdW  Elec       q    Type
REMARK                         _______ _______ _______ _____ _____    ______ ____
ROOT
ATOM      1  C   UNL     1       3.599   6.126   0.002  0.00  0.00    +0.042 A 
ATOM      2  C   UNL     1       3.567   7.520   0.037  0.00  0.00    +0.072 A 
ATOM      3  C   UNL     1       2.364   8.195   0.053  0.00  0.00    +0.154 A 
ATOM      4  C   UNL     1       1.152   7.479   0.032  0.00  0.00    +0.094 A 
ATOM      5  C   UNL     1       1.165   6.085  -0.004  0.00  0.00    +0.062 A 
ATOM      6  C   UNL     1       2.403   5.397  -0.020  0.00  0.00    +0.056 A 
ATOM      7  C   UNL     1       2.429   3.932  -0.059  0.00  0.00    +0.196 A 
ATOM      8  O   UNL     1       3.493   3.342  -0.072  0.00  0.00    -0.287 OA
ATOM      9  C   UNL     1       1.162   3.173  -0.079  0.00  0.00    +0.033 A 
ATOM     10  C   UNL     1       1.177   1.780  -0.115  0.00  0.00    +0.012 A 
ATOM     11  C   UNL     1      -0.013   1.078  -0.135  0.00  0.00    +0.001 A 
ATOM     12  C   UNL     1      -1.224   1.749  -0.125  0.00  0.00    +0.001 A 
ATOM     13  C   UNL     1      -1.258   3.130  -0.085  0.00  0.00    +0.012 A 
ATOM     14  C   UNL     1      -0.068   3.854  -0.064  0.00  0.00    +0.033 A 
ATOM     15  C   UNL     1      -0.095   5.330  -0.026  0.00  0.00    +0.197 A 
ATOM     16  O   UNL     1      -1.159   5.920  -0.014  0.00  0.00    -0.287 OA
ATOM     17  N   UNL     1      -0.052   8.166   0.049  0.00  0.00    -0.349 N 
ATOM     18  H   UNL     1      -0.894   7.684   0.035  0.00  0.00    +0.166 HD
ATOM     19  C   UNL     1      -0.035   9.565   0.086  0.00  0.00    +0.083 A 
ATOM     20  C   UNL     1      -1.224  10.278   0.103  0.00  0.00    +0.029 A 
ATOM     21  C   UNL     1      -1.199  11.660   0.140  0.00  0.00    +0.002 A 
ATOM     22  C   UNL     1       0.010  12.331   0.159  0.00  0.00    +0.004 A 
ATOM     23  C   UNL     1       1.199  11.627   0.141  0.00  0.00    +0.048 A 
ATOM     24  C   UNL     1       1.184  10.241   0.105  0.00  0.00    +0.152 A 
ATOM     25  O   UNL     1       2.353   9.551   0.088  0.00  0.00    -0.452 OA
ENDROOT
BRANCH   1  26
ATOM     26  N   UNL     1       4.814   5.461  -0.013  0.00  0.00    -0.343 N 
ATOM     27  H   UNL     1       4.839   4.494   0.054  0.00  0.00    +0.146 HD
BRANCH  26  28
ATOM     28  C   UNL     1       6.063   6.219  -0.131  0.00  0.00    +0.100 C 
BRANCH  28  29
ATOM     29  C   UNL     1       7.249   5.253  -0.123  0.00  0.00    +0.000 C 
BRANCH  29  30
ATOM     30  C   UNL     1       8.552   6.045  -0.246  0.00  0.00    -0.077 C 
BRANCH  30  37
ATOM     31  C   UNL     1      13.435   5.600   0.153  0.00  0.00    +0.005 C 
ATOM     32  C   UNL     1      12.110   4.844   0.041  0.00  0.00    -0.031 C 
ATOM     33  C   UNL     1      12.146   3.927  -1.185  0.00  0.00    -0.001 C 
ATOM     34  C   UNL     1      10.796   3.219  -1.324  0.00  0.00    -0.018 C 
ATOM     35  C   UNL     1       9.685   4.266  -1.435  0.00  0.00    -0.079 C 
ATOM     36  C   UNL     1      10.961   5.844  -0.110  0.00  0.00    -0.076 C 
ATOM     37  N   UNL     1       9.688   5.100  -0.214  0.00  0.00    +0.380 N 
ATOM     38  H   UNL     1       9.591   4.490   0.606  0.00  0.00    -0.082 HD
ENDBRANCH  30  37
ENDBRANCH  29  30
ENDBRANCH  28  29
ENDBRANCH  26  28
ENDBRANCH   1  26
TORSDOF 5
