REMARK  Name = ZINC16607023
REMARK  10 active torsions:
REMARK  status: ('A' for Active; 'I' for Inactive)
REMARK    1  A    between atoms: C_1  and  C_2
REMARK    2  A    between atoms: C_3  and  C_32
REMARK    3  A    between atoms: C_4  and  C_24
REMARK    4  A    between atoms: C_10  and  C_11
REMARK    5  A    between atoms: C_27  and  O_30
REMARK    6  A    between atoms: O_30  and  C_31
REMARK    7  A    between atoms: C_32  and  O_34
REMARK    8  A    between atoms: O_34  and  C_35
REMARK    9  A    between atoms: C_35  and  C_36
REMARK   10  A    between atoms: C_35  and  C_37
REMARK                            x       y       z     vdW  Elec       q    Type
REMARK                         _______ _______ _______ _____ _____    ______ ____
ROOT
ATOM      1  C   UNL     1       4.817   3.681  -1.705  0.00  0.00    +0.066 C 
ATOM      2  C   UNL     1       3.965   2.448  -1.546  0.00  0.00    +0.053 C 
ATOM      3  C   UNL     1       4.443   1.236  -1.962  0.00  0.00    +0.085 C 
ATOM      4  C   UNL     1       3.559   0.022  -1.784  0.00  0.00    +0.162 C 
ATOM      5  N   UNL     1       2.222   0.241  -1.165  0.00  0.00    -0.275 N 
ATOM      6  C   UNL     1       1.296  -0.693  -0.922  0.00  0.00    +0.268 A 
ATOM      7  O   UNL     1       1.505  -1.857  -1.212  0.00  0.00    -0.266 OA
ATOM      8  C   UNL     1       0.065  -0.313  -0.322  0.00  0.00    +0.081 A 
ATOM      9  C   UNL     1      -1.008  -1.084   0.012  0.00  0.00    +0.030 C 
ATOM     10  S   UNL     1       0.302   1.446  -0.124  0.00  0.00    -0.046 S 
ATOM     11  C   UNL     1       1.940   1.544  -0.820  0.00  0.00    +0.178 A 
ATOM     12  N   UNL     1       2.758   2.547  -1.004  0.00  0.00    -0.228 NA
ENDROOT
BRANCH   9  13
ATOM     13  C   UNL     1      -0.919  -2.541  -0.082  0.00  0.00    +0.001 A 
ATOM     14  C   UNL     1       0.149  -3.321   0.266  0.00  0.00    +0.091 A 
ATOM     15  N   UNL     1      -0.145  -4.626   0.039  0.00  0.00    -0.360 N 
ATOM     16  H   UNL     1       0.456  -5.367   0.212  0.00  0.00    +0.165 HD
ATOM     17  C   UNL     1      -1.419  -4.750  -0.478  0.00  0.00    +0.047 A 
ATOM     18  C   UNL     1      -1.962  -3.459  -0.579  0.00  0.00    +0.007 A 
ATOM     19  C   UNL     1      -3.251  -3.280  -1.074  0.00  0.00    +0.010 A 
ATOM     20  C   UNL     1      -3.990  -4.375  -1.465  0.00  0.00    +0.001 A 
ATOM     21  C   UNL     1      -3.455  -5.651  -1.367  0.00  0.00    +0.002 A 
ATOM     22  C   UNL     1      -2.180  -5.843  -0.878  0.00  0.00    +0.026 A 
ENDBRANCH   9  13
BRANCH   4  23
ATOM     23  C   UNL     1       3.345  -0.598  -3.141  0.00  0.00    -0.020 A 
ATOM     24  C   UNL     1       2.305  -0.165  -3.942  0.00  0.00    +0.009 A 
ATOM     25  C   UNL     1       2.111  -0.728  -5.189  0.00  0.00    +0.046 A 
ATOM     26  C   UNL     1       2.954  -1.737  -5.632  0.00  0.00    +0.120 A 
ATOM     27  C   UNL     1       3.993  -2.173  -4.824  0.00  0.00    +0.046 A 
ATOM     28  C   UNL     1       4.187  -1.603  -3.581  0.00  0.00    +0.009 A 
BRANCH  26  29
ATOM     29  O   UNL     1       2.761  -2.297  -6.855  0.00  0.00    -0.495 OA
ATOM     30  C   UNL     1       1.671  -1.797  -7.632  0.00  0.00    +0.277 C 
ENDBRANCH  26  29
ENDBRANCH   4  23
BRANCH   3  31
ATOM     31  C   UNL     1       5.719   1.121  -2.536  0.00  0.00    +0.339 C 
ATOM     32  O   UNL     1       6.447   2.096  -2.602  0.00  0.00    -0.245 OA
BRANCH  31  33
ATOM     33  O   UNL     1       6.139  -0.069  -3.016  0.00  0.00    -0.459 OA
BRANCH  33  34
ATOM     34  C   UNL     1       7.449  -0.113  -3.586  0.00  0.00    +0.171 C 
ATOM     35  C   UNL     1       8.045  -1.508  -3.388  0.00  0.00    +0.052 C 
ATOM     36  C   UNL     1       7.363   0.197  -5.082  0.00  0.00    +0.052 C 
ENDBRANCH  33  34
ENDBRANCH  31  33
ENDBRANCH   3  31
TORSDOF 6
