REMARK  Name = ZINC38684347
REMARK  15 active torsions:
REMARK  status: ('A' for Active; 'I' for Inactive)
REMARK    1  A    between atoms: C_1  and  C_2
REMARK    2  A    between atoms: C_2  and  O_3
REMARK    3  A    between atoms: O_3  and  C_4
REMARK    4  A    between atoms: C_6  and  C_16
REMARK    5  A    between atoms: C_9  and  O_10
REMARK    6  A    between atoms: O_10  and  C_11
REMARK    7  A    between atoms: C_11  and  C_12
REMARK    8  A    between atoms: C_12  and  C_13
REMARK    9  A    between atoms: C_13  and  C_14
REMARK   10  A    between atoms: C_13  and  C_15
REMARK   11  A    between atoms: C_21  and  O_30
REMARK   12  A    between atoms: C_25  and  N_29
REMARK   13  A    between atoms: C_26  and  C_27
REMARK   14  A    between atoms: O_30  and  C_31
REMARK   15  A    between atoms: C_31  and  C_33
REMARK                            x       y       z     vdW  Elec       q    Type
REMARK                         _______ _______ _______ _____ _____    ______ ____
ROOT
ATOM      1  C   UNL     1       0.611  -4.994  -0.045  0.00  0.00    +0.098 C 
ATOM      2  C   UNL     1       0.606  -5.851   1.192  0.00  0.00    +0.008 A 
ATOM      3  C   UNL     1       1.069  -5.325   2.386  0.00  0.00    +0.012 A 
ATOM      4  C   UNL     1       1.072  -6.096   3.531  0.00  0.00    +0.047 A 
ATOM      5  C   UNL     1       0.610  -7.404   3.488  0.00  0.00    +0.135 A 
ATOM      6  C   UNL     1       0.146  -7.934   2.295  0.00  0.00    +0.093 A 
ATOM      7  C   UNL     1       0.143  -7.156   1.144  0.00  0.00    +0.138 A 
ATOM      8  O   UNL     1      -0.313  -7.689  -0.017  0.00  0.00    -0.441 OA
ATOM      9  C   UNL     1       0.021  -7.127  -1.190  0.00  0.00    +0.199 C 
ATOM     10  C   UNL     1       0.465  -5.853  -1.269  0.00  0.00    +0.098 C 
ENDROOT
BRANCH   1  13
ATOM     11  C   UNL     1      -1.338  -1.759   0.061  0.00  0.00    +0.162 A 
ATOM     12  C   UNL     1      -0.285  -2.658   0.002  0.00  0.00    +0.054 A 
ATOM     13  C   UNL     1      -0.535  -4.017   0.018  0.00  0.00    -0.031 A 
ATOM     14  C   UNL     1      -1.835  -4.484   0.093  0.00  0.00    +0.008 A 
ATOM     15  C   UNL     1      -2.890  -3.592   0.152  0.00  0.00    +0.050 A 
ATOM     16  C   UNL     1      -2.646  -2.228   0.142  0.00  0.00    +0.162 A 
BRANCH  11  17
ATOM     17  O   UNL     1      -1.094  -0.421   0.045  0.00  0.00    -0.489 OA
BRANCH  17  19
ATOM     18  C   UNL     1       0.348   1.516  -0.046  0.00  0.00    +0.048 C 
ATOM     19  C   UNL     1       0.273  -0.012  -0.040  0.00  0.00    +0.226 C 
ENDBRANCH  17  19
ENDBRANCH  11  17
BRANCH  16  20
ATOM     20  O   UNL     1      -3.682  -1.350   0.205  0.00  0.00    -0.488 OA
BRANCH  20  21
ATOM     21  C   UNL     1      -4.997  -1.903   0.287  0.00  0.00    +0.229 C 
BRANCH  21  22
ATOM     22  C   UNL     1      -6.024  -0.771   0.350  0.00  0.00    +0.044 C 
BRANCH  22  23
ATOM     23  C   UNL     1      -7.432  -1.363   0.437  0.00  0.00    -0.014 C 
ATOM     24  C   UNL     1      -8.449  -0.235   0.625  0.00  0.00    +0.007 C 
ATOM     25  C   UNL     1      -7.746  -2.123  -0.853  0.00  0.00    +0.007 C 
ENDBRANCH  22  23
ENDBRANCH  21  22
ENDBRANCH  20  21
ENDBRANCH  16  20
ENDBRANCH   1  13
BRANCH   9  26
ATOM     26  N   UNL     1      -0.092  -7.867  -2.340  0.00  0.00    -0.328 N 
ATOM     27  H   UNL     1      -0.411  -8.783  -2.298  0.00  0.00    +0.145 HD
ATOM     28  H   UNL     1       0.145  -7.475  -3.195  0.00  0.00    +0.145 HD
ENDBRANCH   9  26
BRANCH  10  29
ATOM     29  C   UNL     1       0.804  -5.312  -2.551  0.00  0.00    +0.101 C 
ATOM     30  N   UNL     1       1.073  -4.883  -3.568  0.00  0.00    -0.191 NA
ENDBRANCH  10  29
BRANCH   5  31
ATOM     31  O   UNL     1       0.612  -8.165   4.614  0.00  0.00    -0.422 OA
BRANCH  31  32
ATOM     32  C   UNL     1       1.480  -9.196   4.681  0.00  0.00    +0.351 C 
ATOM     33  O   UNL     1       2.299  -9.359   3.797  0.00  0.00    -0.244 OA
BRANCH  32  34
ATOM     34  C   UNL     1       1.434 -10.118   5.816  0.00  0.00    +0.097 A 
ATOM     35  C   UNL     1       2.230 -11.225   6.076  0.00  0.00    +0.022 A 
ATOM     36  C   UNL     1       1.947 -11.904   7.237  0.00  0.00    +0.008 A 
ATOM     37  C   UNL     1       0.939 -11.462   8.030  0.00  0.00    +0.046 A 
ATOM     38  S   UNL     1       0.348 -10.108   7.230  0.00  0.00    -0.090 S 
ENDBRANCH  32  34
ENDBRANCH  31  32
ENDBRANCH   5  31
TORSDOF 12
