REMARK  Name = ZINC35727905
REMARK  17 active torsions:
REMARK  status: ('A' for Active; 'I' for Inactive)
REMARK    1  A    between atoms: C_1  and  C_2
REMARK    2  A    between atoms: C_2  and  C_3
REMARK    3  A    between atoms: C_3  and  C_4
REMARK    4  A    between atoms: C_11  and  C_13
REMARK    5  A    between atoms: C_18  and  S_20
REMARK    6  A    between atoms: S_20  and  C_21
REMARK    7  A    between atoms: C_21  and  C_22
REMARK    8  A    between atoms: N_24  and  C_25
REMARK    9  A    between atoms: C_25  and  C_27
REMARK   10  A    between atoms: C_25  and  C_28
REMARK   11  A    between atoms: C_28  and  C_29
REMARK   12  A    between atoms: C_29  and  C_30
REMARK   13  A    between atoms: C_30  and  N_31
REMARK   14  A    between atoms: N_31  and  C_32
REMARK   15  A    between atoms: N_31  and  C_34
REMARK   16  A    between atoms: C_32  and  C_33
REMARK   17  A    between atoms: C_34  and  C_35
REMARK                            x       y       z     vdW  Elec       q    Type
REMARK                         _______ _______ _______ _____ _____    ______ ____
ROOT
ATOM      1  C   UNL     1       0.647  -0.237   1.030  0.00  0.00    +0.216 C 
ATOM      2  O   UNL     1       0.264  -0.969   1.918  0.00  0.00    -0.276 OA
ATOM      3  N   UNL     1       1.228  -0.757  -0.069  0.00  0.00    -0.296 N 
ATOM      4  C   UNL     1       1.601   0.107  -1.198  0.00  0.00    +0.127 C 
ATOM      5  C   UNL     1       0.940  -0.438  -2.471  0.00  0.00    +0.125 C 
ATOM      6  N   UNL     1       1.214  -1.879  -2.561  0.00  0.00    -0.312 N 
ATOM      7  C   UNL     1       0.842  -2.743  -1.432  0.00  0.00    +0.128 C 
ATOM      8  C   UNL     1       1.507  -2.197  -0.157  0.00  0.00    +0.090 C 
ATOM      9  C   UNL     1       0.931  -2.908   1.070  0.00  0.00    +0.029 C 
ATOM     10  C   UNL     1       1.811  -2.414  -3.691  0.00  0.00    +0.127 A 
ATOM     11  C   UNL     1       2.354  -1.578  -4.668  0.00  0.00    +0.083 A 
ATOM     12  C   UNL     1       2.941  -2.155  -5.779  0.00  0.00    +0.135 A 
ATOM     13  N   UNL     1       2.971  -3.477  -5.883  0.00  0.00    -0.210 NA
ATOM     14  C   UNL     1       2.448  -4.246  -4.939  0.00  0.00    +0.192 A 
ATOM     15  N   UNL     1       1.881  -3.731  -3.858  0.00  0.00    -0.207 NA
ATOM     16 CL   UNL     1       3.631  -1.161  -7.024  0.00  0.00    -0.062 Cl
ENDROOT
BRANCH   1  17
ATOM     17  C   UNL     1       0.473   1.255   1.156  0.00  0.00    +0.096 C 
BRANCH  17  19
ATOM     18  C   UNL     1      -0.385   3.093   2.615  0.00  0.00    +0.004 C 
ATOM     19  C   UNL     1      -0.208   1.578   2.487  0.00  0.00    +0.006 C 
ENDBRANCH  17  19
ENDBRANCH   1  17
BRANCH  14  20
ATOM     20  S   UNL     1       2.513  -5.997  -5.124  0.00  0.00    -0.077 S 
BRANCH  20  21
ATOM     21  C   UNL     1       3.361  -6.240  -6.709  0.00  0.00    +0.173 C 
BRANCH  21  22
ATOM     22  C   UNL     1       3.485  -7.715  -6.991  0.00  0.00    +0.224 C 
ATOM     23  O   UNL     1       3.043  -8.523  -6.202  0.00  0.00    -0.275 OA
ATOM     24  N   UNL     1       4.085  -8.137  -8.122  0.00  0.00    -0.312 N 
ATOM     25  H   UNL     1       4.438  -7.491  -8.753  0.00  0.00    +0.149 HD
BRANCH  24  26
ATOM     26  C   UNL     1       4.205  -9.571  -8.397  0.00  0.00    +0.070 C 
ATOM     27  C   UNL     1       2.923 -10.071  -9.066  0.00  0.00    +0.028 C 
BRANCH  26  28
ATOM     28  C   UNL     1       5.394  -9.814  -9.328  0.00  0.00    +0.020 C 
BRANCH  28  29
ATOM     29  C   UNL     1       6.690  -9.430  -8.611  0.00  0.00    -0.017 C 
BRANCH  29  30
ATOM     30  C   UNL     1       7.880  -9.673  -9.542  0.00  0.00    -0.079 C 
BRANCH  30  31
ATOM     31  N   UNL     1       9.110  -9.188  -8.902  0.00  0.00    +0.379 N 
ATOM     32  H   UNL     1       8.988  -8.225  -8.626  0.00  0.00    -0.082 HD
BRANCH  31  33
ATOM     33  C   UNL     1       9.399 -10.004  -7.716  0.00  0.00    -0.082 C 
ATOM     34  C   UNL     1      10.608  -9.423  -6.979  0.00  0.00    -0.017 C 
ENDBRANCH  31  33
BRANCH  31  35
ATOM     35  C   UNL     1      10.227  -9.288  -9.850  0.00  0.00    -0.082 C 
ATOM     36  C   UNL     1       9.997  -8.322 -11.014  0.00  0.00    -0.017 C 
ENDBRANCH  31  35
ENDBRANCH  30  31
ENDBRANCH  29  30
ENDBRANCH  28  29
ENDBRANCH  26  28
ENDBRANCH  24  26
ENDBRANCH  21  22
ENDBRANCH  20  21
ENDBRANCH  14  20
TORSDOF 12
