REMARK  Name = ZINC12508942
REMARK  8 active torsions:
REMARK  status: ('A' for Active; 'I' for Inactive)
REMARK    1  A    between atoms: C_1  and  O_2
REMARK    2  A    between atoms: O_2  and  C_3
REMARK    3  A    between atoms: C_6  and  S_9
REMARK    4  A    between atoms: S_9  and  C_10
REMARK    5  A    between atoms: C_13  and  C_25
REMARK    6  A    between atoms: C_16  and  C_17
REMARK    7  A    between atoms: C_16  and  N_59
REMARK    8  A    between atoms: N_27  and  C_28
REMARK                            x       y       z     vdW  Elec       q    Type
REMARK                         _______ _______ _______ _____ _____    ______ ____
ROOT
ATOM      1  C   UNL     1       2.210   0.652  -6.171  0.00  0.00    +0.034 C 
ATOM      2  C   UNL     1       1.657   0.465  -4.744  0.00  0.00    +0.006 C 
ATOM      3  C   UNL     1       0.142   0.732  -4.862  0.00  0.00    +0.021 C 
ATOM      4  C   UNL     1       0.982   1.017  -7.032  0.00  0.00    -0.063 C 
ATOM      5  N   UNL     1       0.032   1.564  -6.058  0.00  0.00    +0.391 N 
ATOM      6  H   UNL     1       0.279   2.535  -5.832  0.00  0.00    -0.080 HD
ENDROOT
BRANCH   3   7
ATOM      7  C   UNL     1      -0.361   1.460  -3.642  0.00  0.00    +0.200 C 
ATOM      8  O   UNL     1      -0.852   2.563  -3.754  0.00  0.00    -0.278 OA
ATOM      9  N   UNL     1      -0.264   0.885  -2.427  0.00  0.00    -0.312 N 
ATOM     10  H   UNL     1       0.129   0.003  -2.337  0.00  0.00    +0.149 HD
BRANCH   9  11
ATOM     11  C   UNL     1      -0.752   1.593  -1.241  0.00  0.00    +0.095 C 
ATOM     12  C   UNL     1      -0.013   1.086   0.008  0.00  0.00    +0.046 C 
ATOM     13  C   UNL     1      -0.733   1.583   1.285  0.00  0.00    +0.168 C 
ATOM     14  S   UNL     1      -2.475   1.757   0.726  0.00  0.00    -0.029 S 
ATOM     15  O   UNL     1      -2.857   3.122   0.822  0.00  0.00    -0.174 OA
ATOM     16  O   UNL     1      -3.267   0.762   1.361  0.00  0.00    -0.174 OA
ATOM     17  C   UNL     1      -2.271   1.315  -1.051  0.00  0.00    +0.188 C 
ENDBRANCH   9  11
ENDBRANCH   3   7
BRANCH   1  18
ATOM     18  S   UNL     1       2.963  -0.888  -6.763  0.00  0.00    -0.124 S 
BRANCH  18  22
ATOM     19  C   UNL     1       4.756   0.236 -10.770  0.00  0.00    +0.120 A 
ATOM     20  C   UNL     1       4.877  -1.062 -10.296  0.00  0.00    +0.047 A 
ATOM     21  C   UNL     1       4.331  -1.406  -9.075  0.00  0.00    +0.018 A 
ATOM     22  C   UNL     1       3.660  -0.451  -8.321  0.00  0.00    +0.008 A 
ATOM     23  C   UNL     1       3.535   0.848  -8.799  0.00  0.00    +0.018 A 
ATOM     24  C   UNL     1       4.086   1.190 -10.018  0.00  0.00    +0.047 A 
BRANCH  19  26
ATOM     25  C   UNL     1       5.132   1.928 -12.399  0.00  0.00    +0.277 C 
ATOM     26  O   UNL     1       5.294   0.574 -11.972  0.00  0.00    -0.495 OA
ENDBRANCH  19  26
ENDBRANCH  18  22
ENDBRANCH   1  18
BRANCH   5  27
ATOM     27  C   UNL     1      -1.361   1.526  -6.606  0.00  0.00    -0.038 C 
BRANCH  27  28
ATOM     28  C   UNL     1      -1.530   2.582  -7.668  0.00  0.00    -0.010 A 
ATOM     29  C   UNL     1      -1.245   2.286  -8.991  0.00  0.00    +0.126 A 
ATOM     30  C   UNL     1      -1.402   3.256  -9.966  0.00  0.00    +0.038 A 
ATOM     31  C   UNL     1      -1.842   4.519  -9.619  0.00  0.00    +0.004 A 
ATOM     32  C   UNL     1      -2.127   4.815  -8.299  0.00  0.00    +0.020 A 
ATOM     33  C   UNL     1      -1.976   3.845  -7.324  0.00  0.00    +0.045 A 
ATOM     34 CL   UNL     1      -2.340   4.215  -5.667  0.00  0.00    -0.083 Cl
ATOM     35  F   UNL     1      -0.815   1.050  -9.329  0.00  0.00    -0.205 F 
ENDBRANCH  27  28
ENDBRANCH   5  27
TORSDOF 7
