REMARK  Name = ZINC61507275
REMARK  3 active torsions:
REMARK  status: ('A' for Active; 'I' for Inactive)
REMARK    1  A    between atoms: C_8  and  C_11
REMARK    2  A    between atoms: N_13  and  C_14
REMARK    3  A    between atoms: C_14  and  C_15
REMARK                            x       y       z     vdW  Elec       q    Type
REMARK                         _______ _______ _______ _____ _____    ______ ____
ROOT
ATOM      1  C   UNL     1       5.837  -4.578  -0.078  0.00  0.00    +0.141 C 
ENDROOT
BRANCH   1   2
ATOM      2  C   UNL     1       7.308  -4.250  -0.091  0.00  0.00    -0.012 A 
ATOM      3  C   UNL     1       7.979  -4.086  -1.295  0.00  0.00    +0.010 A 
ATOM      4  C   UNL     1       9.330  -3.785  -1.262  0.00  0.00    +0.047 A 
ATOM      5  C   UNL     1       9.964  -3.658  -0.032  0.00  0.00    +0.139 A 
ATOM      6  N   UNL     1       9.289  -3.822   1.094  0.00  0.00    -0.237 NA
ATOM      7  C   UNL     1       8.001  -4.104   1.094  0.00  0.00    +0.118 A 
ATOM      8  N   UNL     1      11.327  -3.355   0.015  0.00  0.00    -0.283 N 
ATOM      9  C   UNL     1      12.148  -3.154  -1.054  0.00  0.00    +0.206 A 
ATOM     10  N   UNL     1      13.355  -2.891  -0.646  0.00  0.00    -0.235 NA
ATOM     11  C   UNL     1      13.394  -2.905   0.711  0.00  0.00    +0.089 A 
ATOM     12  C   UNL     1      12.093  -3.197   1.156  0.00  0.00    +0.075 A 
ATOM     13  C   UNL     1      11.826  -3.273   2.515  0.00  0.00    +0.028 A 
ATOM     14  C   UNL     1      12.839  -3.058   3.426  0.00  0.00    +0.002 A 
ATOM     15  C   UNL     1      14.124  -2.766   2.992  0.00  0.00    +0.002 A 
ATOM     16  C   UNL     1      14.409  -2.694   1.647  0.00  0.00    +0.030 A 
ENDBRANCH   1   2
BRANCH   1  19
ATOM     17  C   UNL     1       3.713  -3.383  -0.051  0.00  0.00    +0.261 C 
ATOM     18  O   UNL     1       3.143  -4.458  -0.051  0.00  0.00    -0.269 OA
ATOM     19  N   UNL     1       5.060  -3.336  -0.065  0.00  0.00    -0.306 N 
ATOM     20  H   UNL     1       5.515  -2.479  -0.065  0.00  0.00    +0.149 HD
BRANCH  17  28
ATOM     21  C   UNL     1      -0.016   1.360   0.009  0.00  0.00    +0.001 A 
ATOM     22  C   UNL     1       1.169   2.084   0.002  0.00  0.00    +0.002 A 
ATOM     23  C   UNL     1       2.385   1.439  -0.013  0.00  0.00    +0.026 A 
ATOM     24  C   UNL     1       2.430   0.047  -0.021  0.00  0.00    +0.047 A 
ATOM     25  C   UNL     1       1.227  -0.684  -0.013  0.00  0.00    +0.000 A 
ATOM     26  C   UNL     1       0.002  -0.004   0.002  0.00  0.00    +0.010 A 
ATOM     27  C   UNL     1       1.577  -2.056  -0.024  0.00  0.00    +0.040 A 
ATOM     28  C   UNL     1       2.933  -2.137  -0.038  0.00  0.00    +0.103 A 
ATOM     29  N   UNL     1       3.463  -0.861  -0.036  0.00  0.00    -0.351 N 
ATOM     30  H   UNL     1       4.408  -0.641  -0.045  0.00  0.00    +0.166 HD
ENDBRANCH  17  28
ENDBRANCH   1  19
TORSDOF 3
