REMARK  Name = ZINC60268161
REMARK  9 active torsions:
REMARK  status: ('A' for Active; 'I' for Inactive)
REMARK    1  A    between atoms: C_1  and  C_2
REMARK    2  A    between atoms: C_2  and  C_3
REMARK    3  A    between atoms: C_3  and  C_4
REMARK    4  A    between atoms: C_4  and  C_6
REMARK    5  A    between atoms: C_4  and  N_7
REMARK    6  A    between atoms: C_8  and  C_10
REMARK    7  A    between atoms: C_17  and  C_19
REMARK    8  A    between atoms: C_22  and  N_25
REMARK    9  A    between atoms: C_29  and  C_32
REMARK                            x       y       z     vdW  Elec       q    Type
REMARK                         _______ _______ _______ _____ _____    ______ ____
ROOT
ATOM      1  C   UNL     1       2.412  -4.198   1.399  0.00  0.00    +0.092 C 
ATOM      2  C   UNL     1       2.104  -5.670   1.683  0.00  0.00    +0.016 C 
ATOM      3  C   UNL     1       2.977  -6.162   2.840  0.00  0.00    +0.020 C 
ATOM      4  C   UNL     1       2.655  -5.349   4.098  0.00  0.00    +0.108 C 
ATOM      5  N   UNL     1       2.808  -3.921   3.791  0.00  0.00    -0.297 N 
ATOM      6  C   UNL     1       2.084  -3.363   2.641  0.00  0.00    +0.120 C 
ATOM      7  C   UNL     1       3.600  -3.136   4.550  0.00  0.00    +0.247 C 
ATOM      8  O   UNL     1       3.797  -1.980   4.229  0.00  0.00    -0.270 OA
ENDROOT
BRANCH   7   9
ATOM      9  C   UNL     1       4.226  -3.680   5.770  0.00  0.00    +0.037 A 
ATOM     10  C   UNL     1       5.485  -3.227   6.172  0.00  0.00    +0.015 A 
ATOM     11  C   UNL     1       6.066  -3.736   7.311  0.00  0.00    +0.024 A 
ATOM     12  C   UNL     1       5.402  -4.702   8.062  0.00  0.00    +0.030 A 
ATOM     13  C   UNL     1       4.147  -5.156   7.663  0.00  0.00    +0.024 A 
ATOM     14  C   UNL     1       3.558  -4.646   6.528  0.00  0.00    +0.015 A 
BRANCH  12  15
ATOM     15  N   UNL     1       5.992  -5.215   9.211  0.00  0.00    -0.329 N 
ATOM     16  C   UNL     1       5.369  -6.328   9.940  0.00  0.00    +0.105 C 
ATOM     17  C   UNL     1       6.402  -7.446  10.110  0.00  0.00    +0.020 C 
ATOM     18  C   UNL     1       7.655  -6.879  10.781  0.00  0.00    +0.016 C 
ATOM     19  C   UNL     1       8.263  -5.791   9.893  0.00  0.00    +0.092 C 
ATOM     20  C   UNL     1       7.254  -4.658   9.717  0.00  0.00    +0.117 C 
BRANCH  19  21
ATOM     21  C   UNL     1       9.515  -5.256  10.539  0.00  0.00    +0.215 C 
ATOM     22  O   UNL     1       9.594  -4.082  10.830  0.00  0.00    -0.276 OA
ATOM     23  N   UNL     1      10.549  -6.084  10.793  0.00  0.00    -0.329 N 
ATOM     24  H   UNL     1      10.486  -7.023  10.560  0.00  0.00    +0.145 HD
ATOM     25  H   UNL     1      11.355  -5.740  11.208  0.00  0.00    +0.145 HD
ENDBRANCH  19  21
ENDBRANCH  12  15
ENDBRANCH   7   9
BRANCH   1  27
ATOM     26  N   UNL     1       1.679  -2.451  -0.191  0.00  0.00    -0.312 N 
ATOM     27  C   UNL     1       1.575  -3.724   0.239  0.00  0.00    +0.218 C 
ATOM     28  O   UNL     1       0.809  -4.488  -0.308  0.00  0.00    -0.275 OA
ATOM     29  H   UNL     1       2.292  -1.839   0.247  0.00  0.00    +0.149 HD
BRANCH  26  30
ATOM     30  C   UNL     1       0.866  -1.990  -1.319  0.00  0.00    +0.070 C 
ATOM     31  C   UNL     1       1.572  -2.335  -2.631  0.00  0.00    +0.028 C 
BRANCH  30  32
ATOM     32  C   UNL     1       0.676  -0.474  -1.225  0.00  0.00    +0.022 C 
BRANCH  32  34
ATOM     33  C   UNL     1      -0.329   1.377   0.119  0.00  0.00    +0.004 C 
ATOM     34  C   UNL     1      -0.139  -0.139   0.025  0.00  0.00    -0.002 C 
ENDBRANCH  32  34
ENDBRANCH  30  32
ENDBRANCH  26  30
ENDBRANCH   1  27
TORSDOF 7
