REMARK  Name = ZINC59869334
REMARK  5 active torsions:
REMARK  status: ('A' for Active; 'I' for Inactive)
REMARK    1  A    between atoms: C_8  and  C_10
REMARK    2  A    between atoms: C_13  and  C_16
REMARK    3  A    between atoms: C_21  and  C_23
REMARK    4  A    between atoms: C_23  and  N_24
REMARK    5  A    between atoms: C_33  and  C_35
REMARK                            x       y       z     vdW  Elec       q    Type
REMARK                         _______ _______ _______ _____ _____    ______ ____
ROOT
ATOM      1  C   UNL     1       1.957  -3.034  -1.046  0.00  0.00    +0.104 C 
ATOM      2  N   UNL     1       1.859  -4.308  -0.862  0.00  0.00    -0.178 NA
ATOM      3  N   UNL     1       3.074  -4.987  -0.934  0.00  0.00    -0.181 N 
ATOM      4  C   UNL     1       4.146  -4.016  -1.207  0.00  0.00    +0.173 C 
ATOM      5  C   UNL     1       3.403  -2.669  -1.294  0.00  0.00    +0.093 C 
ATOM      6  C   UNL     1       3.241  -6.315  -0.778  0.00  0.00    +0.250 C 
ATOM      7  O   UNL     1       4.349  -6.801  -0.861  0.00  0.00    -0.272 OA
ENDROOT
BRANCH   1  15
ATOM      8  C   UNL     1      -2.960   0.469  -0.855  0.00  0.00    +0.001 A 
ATOM      9  C   UNL     1      -2.027   1.462  -1.119  0.00  0.00    +0.004 A 
ATOM     10  C   UNL     1      -0.691   1.154  -1.260  0.00  0.00    +0.047 A 
ATOM     11  C   UNL     1      -0.268  -0.163  -1.136  0.00  0.00    +0.136 A 
ATOM     12  C   UNL     1      -1.217  -1.166  -0.868  0.00  0.00    +0.021 A 
ATOM     13  C   UNL     1      -2.566  -0.834  -0.729  0.00  0.00    +0.011 A 
ATOM     14  C   UNL     1      -0.463  -2.418  -0.798  0.00  0.00    +0.059 A 
ATOM     15  C   UNL     1       0.837  -2.087  -1.022  0.00  0.00    +0.152 A 
ATOM     16  O   UNL     1       0.940  -0.757  -1.220  0.00  0.00    -0.454 OA
ENDBRANCH   1  15
BRANCH   4  17
ATOM     17  C   UNL     1       4.825  -4.330  -2.515  0.00  0.00    +0.128 A 
ATOM     18  C   UNL     1       6.144  -4.230  -2.761  0.00  0.00    +0.046 A 
ATOM     19  C   UNL     1       6.341  -4.620  -4.106  0.00  0.00    +0.041 A 
ATOM     20  C   UNL     1       5.130  -4.935  -4.601  0.00  0.00    +0.195 A 
ATOM     21  O   UNL     1       4.217  -4.763  -3.632  0.00  0.00    -0.466 OA
ENDBRANCH   4  17
BRANCH   6  22
ATOM     22  C   UNL     1       2.050  -7.196  -0.502  0.00  0.00    +0.183 C 
BRANCH  22  23
ATOM     23  N   UNL     1       2.492  -8.591  -0.374  0.00  0.00    -0.278 NA
ATOM     24  C   UNL     1       2.854  -9.149  -1.681  0.00  0.00    +0.121 C 
ATOM     25  C   UNL     1       3.211 -10.607  -1.550  0.00  0.00    -0.030 A 
ATOM     26  C   UNL     1       3.924 -11.206  -2.579  0.00  0.00    +0.005 A 
ATOM     27  C   UNL     1       4.270 -12.540  -2.503  0.00  0.00    +0.000 A 
ATOM     28  C   UNL     1       3.903 -13.285  -1.397  0.00  0.00    +0.000 A 
ATOM     29  C   UNL     1       3.195 -12.690  -0.372  0.00  0.00    +0.004 A 
ATOM     30  C   UNL     1       2.850 -11.349  -0.446  0.00  0.00    -0.041 A 
ATOM     31  C   UNL     1       2.086 -10.739   0.701  0.00  0.00    +0.063 C 
ATOM     32  C   UNL     1       1.454  -9.417   0.263  0.00  0.00    +0.148 C 
BRANCH  32  33
ATOM     33  C   UNL     1       0.902  -8.697   1.467  0.00  0.00    +0.228 C 
ATOM     34  O   UNL     1       1.629  -7.999   2.142  0.00  0.00    -0.274 OA
ATOM     35  N   UNL     1      -0.399  -8.829   1.793  0.00  0.00    -0.328 N 
ATOM     36  H   UNL     1      -0.980  -9.387   1.253  0.00  0.00    +0.145 HD
ATOM     37  H   UNL     1      -0.754  -8.366   2.567  0.00  0.00    +0.145 HD
ENDBRANCH  32  33
ENDBRANCH  22  23
ENDBRANCH   6  22
TORSDOF 5
