REMARK  Name = ZINC09623795
REMARK  8 active torsions:
REMARK  status: ('A' for Active; 'I' for Inactive)
REMARK    1  A    between atoms: C_1  and  C_2
REMARK    2  A    between atoms: C_2  and  C_3
REMARK    3  A    between atoms: C_2  and  S_4
REMARK    4  A    between atoms: S_4  and  C_7
REMARK    5  A    between atoms: C_10  and  C_13
REMARK    6  A    between atoms: C_13  and  N_15
REMARK    7  A    between atoms: N_17  and  C_26
REMARK    8  A    between atoms: C_26  and  C_27
REMARK                            x       y       z     vdW  Elec       q    Type
REMARK                         _______ _______ _______ _____ _____    ______ ____
ROOT
ATOM      1  C   UNL     1      -1.854  -4.280  -0.005  0.00  0.00    +0.269 C 
ATOM      2  O   UNL     1      -2.715  -3.418   0.008  0.00  0.00    -0.268 OA
ENDROOT
BRANCH   1   3
ATOM      3  N   UNL     1      -0.562  -3.935  -0.015  0.00  0.00    -0.152 NA
ATOM      4  C   UNL     1      -0.217  -2.652  -0.011  0.00  0.00    +0.168 A 
ATOM      5  N   UNL     1       1.032  -2.114  -0.019  0.00  0.00    -0.310 N 
ATOM      6  C   UNL     1       1.195  -0.741  -0.013  0.00  0.00    +0.059 A 
ATOM      7  C   UNL     1       2.392  -0.006  -0.020  0.00  0.00    +0.028 A 
ATOM      8  C   UNL     1       2.373   1.368  -0.013  0.00  0.00    +0.022 A 
ATOM      9  C   UNL     1       1.178   2.070   0.002  0.00  0.00    +0.042 A 
ATOM     10  C   UNL     1      -0.017   1.371   0.010  0.00  0.00    +0.037 A 
ATOM     11  C   UNL     1       0.002  -0.004   0.002  0.00  0.00    +0.040 A 
ATOM     12  S   UNL     1      -1.252  -1.260   0.007  0.00  0.00    -0.052 S 
ATOM     13 CL   UNL     1       1.180   3.806   0.011  0.00  0.00    -0.084 Cl
BRANCH   5  14
ATOM     14  C   UNL     1       2.206  -2.990  -0.035  0.00  0.00    +0.212 C 
BRANCH  14  15
ATOM     15  C   UNL     1       2.612  -3.292   1.347  0.00  0.00    -0.084 C 
ATOM     16  C   UNL     1       2.936  -3.532   2.450  0.00  0.00    +0.005 C 
ENDBRANCH  14  15
ENDBRANCH   5  14
ENDBRANCH   1   3
BRANCH   1  20
ATOM     17  C   UNL     1      -2.957  -8.384  -0.019  0.00  0.00    +0.088 A 
ATOM     18  C   UNL     1      -3.937  -7.408  -0.003  0.00  0.00    +0.028 A 
ATOM     19  C   UNL     1      -3.585  -6.074   0.001  0.00  0.00    +0.015 A 
ATOM     20  C   UNL     1      -2.238  -5.710  -0.009  0.00  0.00    +0.039 A 
ATOM     21  C   UNL     1      -1.255  -6.700  -0.030  0.00  0.00    +0.015 A 
ATOM     22  C   UNL     1      -1.619  -8.031  -0.030  0.00  0.00    +0.028 A 
BRANCH  17  23
ATOM     23  S   UNL     1      -3.414 -10.086  -0.026  0.00  0.00    -0.001 S 
ATOM     24  O   UNL     1      -2.310 -10.761   0.562  0.00  0.00    -0.169 OA
ATOM     25  O   UNL     1      -4.695 -10.120   0.589  0.00  0.00    -0.169 OA
BRANCH  23  27
ATOM     26  C   UNL     1      -4.069 -11.959  -1.908  0.00  0.00    +0.032 C 
ATOM     27  C   UNL     1      -3.552 -10.525  -1.780  0.00  0.00    +0.130 C 
ATOM     28  C   UNL     1      -4.526  -9.568  -2.470  0.00  0.00    +0.032 C 
ENDBRANCH  23  27
ENDBRANCH  17  23
ENDBRANCH   1  20
TORSDOF 6
