REMARK  Name = ZINC13028404
REMARK  11 active torsions:
REMARK  status: ('A' for Active; 'I' for Inactive)
REMARK    1  A    between atoms: C_1  and  C_2
REMARK    2  A    between atoms: C_7  and  C_8
REMARK    3  A    between atoms: C_8  and  C_10
REMARK    4  A    between atoms: C_8  and  N_20
REMARK    5  A    between atoms: N_12  and  C_13
REMARK    6  A    between atoms: C_13  and  C_14
REMARK    7  A    between atoms: N_20  and  C_21
REMARK    8  A    between atoms: C_26  and  O_27
REMARK    9  A    between atoms: O_27  and  C_28
REMARK   10  A    between atoms: C_29  and  C_31
REMARK   11  A    between atoms: C_31  and  N_32
REMARK                            x       y       z     vdW  Elec       q    Type
REMARK                         _______ _______ _______ _____ _____    ______ ____
ROOT
ATOM      1  N   UNL     1      -5.354   3.330  -1.717  0.00  0.00    -0.250 N 
ATOM      2  C   UNL     1      -4.295   2.508  -1.579  0.00  0.00    +0.242 C 
ATOM      3  O   UNL     1      -3.888   1.878  -2.533  0.00  0.00    -0.273 OA
ENDROOT
BRANCH   1   4
ATOM      4  C   UNL     1      -5.823   4.058  -0.615  0.00  0.00    +0.079 A 
ATOM      5  C   UNL     1      -5.239   5.271  -0.283  0.00  0.00    +0.027 A 
ATOM      6  C   UNL     1      -5.704   5.987   0.804  0.00  0.00    +0.002 A 
ATOM      7  C   UNL     1      -6.752   5.497   1.562  0.00  0.00    +0.004 A 
ATOM      8  C   UNL     1      -7.339   4.288   1.237  0.00  0.00    +0.047 A 
ATOM      9  C   UNL     1      -6.882   3.567   0.145  0.00  0.00    +0.141 A 
BRANCH   9  10
ATOM     10  O   UNL     1      -7.463   2.382  -0.180  0.00  0.00    -0.493 OA
ATOM     11  C   UNL     1      -8.544   1.941   0.645  0.00  0.00    +0.277 C 
ENDBRANCH   9  10
ENDBRANCH   1   4
BRANCH   1  12
ATOM     12  C   UNL     1      -6.013   3.463  -3.018  0.00  0.00    +0.198 C 
BRANCH  12  19
ATOM     13  C   UNL     1      -5.231   6.238  -3.212  0.00  0.00    +0.044 C 
ATOM     14  C   UNL     1      -6.683   5.875  -3.036  0.00  0.00    -0.045 A 
ATOM     15  C   UNL     1      -7.641   6.869  -2.972  0.00  0.00    +0.004 A 
ATOM     16  C   UNL     1      -8.972   6.537  -2.805  0.00  0.00    +0.000 A 
ATOM     17  C   UNL     1      -9.346   5.209  -2.707  0.00  0.00    +0.000 A 
ATOM     18  C   UNL     1      -8.389   4.215  -2.776  0.00  0.00    +0.006 A 
ATOM     19  C   UNL     1      -7.057   4.548  -2.943  0.00  0.00    -0.015 A 
ENDBRANCH  12  19
BRANCH  12  20
ATOM     20  C   UNL     1      -6.671   2.157  -3.384  0.00  0.00    +0.239 C 
ATOM     21  O   UNL     1      -6.912   1.338  -2.523  0.00  0.00    -0.273 OA
ATOM     22  N   UNL     1      -6.990   1.900  -4.668  0.00  0.00    -0.309 N 
ATOM     23  H   UNL     1      -6.727   2.519  -5.366  0.00  0.00    +0.149 HD
BRANCH  22  24
ATOM     24  C   UNL     1      -7.734   0.685  -5.008  0.00  0.00    +0.139 C 
BRANCH  24  25
ATOM     25  C   UNL     1      -7.962   0.635  -6.497  0.00  0.00    -0.030 A 
ATOM     26  C   UNL     1      -9.100   1.201  -7.041  0.00  0.00    +0.005 A 
ATOM     27  C   UNL     1      -9.306   1.160  -8.408  0.00  0.00    +0.000 A 
ATOM     28  C   UNL     1      -8.379   0.544  -9.228  0.00  0.00    +0.000 A 
ATOM     29  C   UNL     1      -7.244  -0.026  -8.683  0.00  0.00    +0.000 A 
ATOM     30  C   UNL     1      -7.035   0.020  -7.317  0.00  0.00    +0.005 A 
ENDBRANCH  24  25
ENDBRANCH  22  24
ENDBRANCH  12  20
ENDBRANCH   1  12
BRANCH   2  31
ATOM     31  C   UNL     1      -3.616   2.371  -0.241  0.00  0.00    +0.242 C 
BRANCH  31  32
ATOM     32  N   UNL     1      -2.502   1.426  -0.353  0.00  0.00    -0.235 N 
ATOM     33  C   UNL     1      -2.554   0.066  -0.157  0.00  0.00    +0.090 A 
ATOM     34  C   UNL     1      -3.569  -0.824   0.177  0.00  0.00    +0.029 A 
ATOM     35  C   UNL     1      -3.290  -2.156   0.302  0.00  0.00    +0.002 A 
ATOM     36  C   UNL     1      -2.002  -2.632   0.090  0.00  0.00    +0.002 A 
ATOM     37  C   UNL     1      -0.990  -1.780  -0.244  0.00  0.00    +0.032 A 
ATOM     38  C   UNL     1      -1.248  -0.409  -0.374  0.00  0.00    +0.113 A 
ATOM     39  N   UNL     1      -0.474   0.650  -0.684  0.00  0.00    -0.129 NA
ATOM     40  N   UNL     1      -1.172   1.731  -0.680  0.00  0.00    -0.064 NA
ENDBRANCH  31  32
ENDBRANCH   2  31
TORSDOF 9
