REMARK  Name = ZINC31002719
REMARK  12 active torsions:
REMARK  status: ('A' for Active; 'I' for Inactive)
REMARK    1  A    between atoms: C_1  and  C_2
REMARK    2  A    between atoms: C_2  and  C_3
REMARK    3  A    between atoms: C_3  and  N_4
REMARK    4  A    between atoms: N_4  and  C_5
REMARK    5  A    between atoms: N_4  and  C_22
REMARK    6  A    between atoms: C_5  and  C_6
REMARK    7  A    between atoms: C_6  and  C_7
REMARK    8  A    between atoms: N_9  and  C_10
REMARK    9  A    between atoms: C_11  and  C_20
REMARK   10  A    between atoms: C_22  and  C_23
REMARK   11  A    between atoms: N_25  and  C_26
REMARK   12  A    between atoms: C_31  and  C_32
REMARK                            x       y       z     vdW  Elec       q    Type
REMARK                         _______ _______ _______ _____ _____    ______ ____
ROOT
ATOM      1  C   UNL     1       3.689   1.746   0.201  0.00  0.00    -0.069 C 
ENDROOT
BRANCH   1   2
ATOM      2  N   UNL     1       2.411   1.056  -0.021  0.00  0.00    +0.386 N 
ATOM      3  H   UNL     1       2.266   0.340   0.802  0.00  0.00    -0.081 HD
BRANCH   2   4
ATOM      4  C   UNL     1       2.432   0.299  -1.279  0.00  0.00    -0.078 C 
BRANCH   4   6
ATOM      5  C   UNL     1       2.850   0.449  -3.738  0.00  0.00    +0.002 C 
ATOM      6  C   UNL     1       2.705   1.253  -2.444  0.00  0.00    -0.022 C 
ENDBRANCH   4   6
ENDBRANCH   2   4
BRANCH   2   7
ATOM      7  C   UNL     1       1.289   2.005   0.004  0.00  0.00    +0.019 C 
BRANCH   7   8
ATOM      8  C   UNL     1      -0.012   1.245   0.021  0.00  0.00    +0.201 C 
ATOM      9  O   UNL     1      -0.005   0.032   0.013  0.00  0.00    -0.278 OA
ATOM     10  N   UNL     1      -1.182   1.913   0.039  0.00  0.00    -0.287 N 
ATOM     11  H   UNL     1      -1.189   3.008   0.138  0.00  0.00    +0.155 HD
BRANCH  10  12
ATOM     12  C   UNL     1      -2.389   1.212  -0.068  0.00  0.00    +0.036 A 
ATOM     13  C   UNL     1      -2.420  -0.030  -0.689  0.00  0.00    +0.023 A 
ATOM     14  C   UNL     1      -3.612  -0.720  -0.789  0.00  0.00    +0.002 A 
ATOM     15  C   UNL     1      -4.775  -0.172  -0.281  0.00  0.00    +0.000 A 
ATOM     16  C   UNL     1      -4.748   1.067   0.334  0.00  0.00    +0.005 A 
ATOM     17  C   UNL     1      -3.559   1.760   0.441  0.00  0.00    -0.029 A 
ATOM     18  C   UNL     1      -3.531   3.110   1.110  0.00  0.00    +0.045 C 
ENDBRANCH  10  12
ENDBRANCH   7   8
ENDBRANCH   2   7
ENDBRANCH   1   2
BRANCH   1  19
ATOM     19  C   UNL     1       4.815   0.714   0.295  0.00  0.00    +0.077 C 
BRANCH  19  20
ATOM     20  C   UNL     1       6.105   1.410   0.644  0.00  0.00    +0.216 C 
ATOM     21  O   UNL     1       6.122   2.612   0.802  0.00  0.00    -0.276 OA
ATOM     22  N   UNL     1       7.240   0.696   0.781  0.00  0.00    -0.279 N 
ATOM     23  H   UNL     1       7.225  -0.394   0.638  0.00  0.00    +0.155 HD
BRANCH  22  24
ATOM     24  C   UNL     1       8.429   1.337   1.103  0.00  0.00    +0.090 A 
ATOM     25  C   UNL     1       9.683   0.781   1.291  0.00  0.00    +0.084 A 
ATOM     26  C   UNL     1      10.781   1.679   1.619  0.00  0.00    -0.018 A 
ATOM     27  C   UNL     1      10.439   2.982   1.722  0.00  0.00    -0.004 A 
ATOM     28  S   UNL     1       8.702   3.025   1.376  0.00  0.00    -0.077 S 
ATOM     29  C   UNL     1      11.326   4.137   2.068  0.00  0.00    +0.043 C 
ATOM     30  C   UNL     1      12.596   4.076   1.208  0.00  0.00    +0.005 C 
ATOM     31  C   UNL     1      13.639   3.242   1.946  0.00  0.00    +0.001 C 
ATOM     32  C   UNL     1      12.956   2.141   2.754  0.00  0.00    +0.005 C 
ATOM     33  C   UNL     1      12.208   1.187   1.829  0.00  0.00    +0.037 C 
BRANCH  25  34
ATOM     34  C   UNL     1       9.894  -0.629   1.162  0.00  0.00    +0.102 C 
ATOM     35  N   UNL     1      10.062  -1.748   1.060  0.00  0.00    -0.191 NA
ENDBRANCH  25  34
ENDBRANCH  22  24
ENDBRANCH  19  20
ENDBRANCH   1  19
TORSDOF 10
