REMARK  Name = ZINC35664548
REMARK  11 active torsions:
REMARK  status: ('A' for Active; 'I' for Inactive)
REMARK    1  A    between atoms: C_1  and  C_2
REMARK    2  A    between atoms: C_2  and  C_3
REMARK    3  A    between atoms: N_9  and  C_12
REMARK    4  A    between atoms: C_12  and  C_13
REMARK    5  A    between atoms: C_14  and  C_31
REMARK    6  A    between atoms: C_15  and  C_23
REMARK    7  A    between atoms: N_20  and  C_21
REMARK    8  A    between atoms: C_21  and  C_22
REMARK    9  A    between atoms: C_31  and  O_33
REMARK   10  A    between atoms: O_33  and  C_34
REMARK   11  A    between atoms: C_34  and  C_35
REMARK                            x       y       z     vdW  Elec       q    Type
REMARK                         _______ _______ _______ _____ _____    ______ ____
ROOT
ATOM      1  C   UNL     1      -5.014  -4.184   3.545  0.00  0.00    +0.010 C 
ATOM      2  C   UNL     1      -5.472  -5.403   3.902  0.00  0.00    +0.077 C 
ATOM      3  C   UNL     1      -6.876  -5.782   3.475  0.00  0.00    +0.145 C 
ATOM      4  N   UNL     1      -7.630  -4.783   2.699  0.00  0.00    -0.288 N 
ATOM      5  C   UNL     1      -7.035  -3.607   2.419  0.00  0.00    +0.307 C 
ATOM      6  O   UNL     1      -7.649  -2.775   1.780  0.00  0.00    -0.252 OA
ATOM      7  N   UNL     1      -5.792  -3.321   2.828  0.00  0.00    -0.261 N 
ATOM      8  H   UNL     1      -8.533  -4.968   2.397  0.00  0.00    +0.151 HD
ENDROOT
BRANCH   3   9
ATOM      9  C   UNL     1      -7.669  -6.102   4.715  0.00  0.00    -0.003 A 
ATOM     10  C   UNL     1      -8.381  -5.105   5.356  0.00  0.00    +0.007 A 
ATOM     11  C   UNL     1      -9.109  -5.397   6.494  0.00  0.00    +0.002 A 
ATOM     12  C   UNL     1      -9.126  -6.686   6.993  0.00  0.00    +0.021 A 
ATOM     13  C   UNL     1      -8.414  -7.684   6.354  0.00  0.00    +0.060 A 
ATOM     14  C   UNL     1      -7.690  -7.393   5.210  0.00  0.00    +0.064 A 
ATOM     15 CL   UNL     1      -6.802  -8.647   4.401  0.00  0.00    -0.082 Cl
ATOM     16 CL   UNL     1      -8.434  -9.303   6.980  0.00  0.00    -0.082 Cl
ENDBRANCH   3   9
BRANCH   7  17
ATOM     17  C   UNL     1      -5.233  -2.013   2.479  0.00  0.00    +0.111 C 
ATOM     18  C   UNL     1      -4.654  -2.066   1.065  0.00  0.00    +0.025 C 
ENDBRANCH   7  17
BRANCH   2  19
ATOM     19  C   UNL     1      -4.669  -6.296   4.650  0.00  0.00    +0.339 C 
ATOM     20  O   UNL     1      -4.892  -6.469   5.833  0.00  0.00    -0.245 OA
BRANCH  19  21
ATOM     21  O   UNL     1      -3.656  -6.956   4.050  0.00  0.00    -0.462 OA
BRANCH  21  22
ATOM     22  C   UNL     1      -2.958  -7.924   4.836  0.00  0.00    +0.229 C 
ATOM     23  C   UNL     1      -1.778  -8.477   4.033  0.00  0.00    +0.048 C 
ENDBRANCH  21  22
ENDBRANCH  19  21
ENDBRANCH   2  19
BRANCH   1  24
ATOM     24  C   UNL     1      -3.624  -3.767   3.950  0.00  0.00    -0.026 C 
BRANCH  24  31
ATOM     25  C   UNL     1      -2.820  -2.812   8.941  0.00  0.00    +0.215 C 
ATOM     26  O   UNL     1      -3.465  -3.752   9.354  0.00  0.00    -0.276 OA
ATOM     27  N   UNL     1      -3.280  -2.083   7.904  0.00  0.00    -0.303 N 
ATOM     28  C   UNL     1      -2.471  -0.948   7.417  0.00  0.00    +0.106 C 
ATOM     29  C   UNL     1      -2.463  -0.893   5.879  0.00  0.00    +0.000 C 
ATOM     30  C   UNL     1      -2.361  -2.297   5.325  0.00  0.00    -0.077 C 
ATOM     31  N   UNL     1      -3.704  -2.810   5.061  0.00  0.00    +0.384 N 
ATOM     32  C   UNL     1      -4.323  -3.450   6.157  0.00  0.00    -0.059 C 
ATOM     33  C   UNL     1      -4.548  -2.445   7.304  0.00  0.00    +0.089 C 
ATOM     34  H   UNL     1      -4.287  -2.039   4.771  0.00  0.00    -0.081 HD
BRANCH  25  36
ATOM     35  C   UNL     1      -1.218  -3.434  10.727  0.00  0.00    +0.013 C 
ATOM     36  C   UNL     1      -1.505  -2.458   9.585  0.00  0.00    +0.092 C 
ENDBRANCH  25  36
ENDBRANCH  24  31
ENDBRANCH   1  24
TORSDOF 8
