REMARK  Name = ZINC14985390
REMARK  9 active torsions:
REMARK  status: ('A' for Active; 'I' for Inactive)
REMARK    1  A    between atoms: C_1  and  C_2
REMARK    2  A    between atoms: C_2  and  N_3
REMARK    3  A    between atoms: N_3  and  S_4
REMARK    4  A    between atoms: S_4  and  C_7
REMARK    5  A    between atoms: C_8  and  C_30
REMARK    6  A    between atoms: C_16  and  C_18
REMARK    7  A    between atoms: C_19  and  C_29
REMARK    8  A    between atoms: C_30  and  O_32
REMARK    9  A    between atoms: O_32  and  C_33
REMARK                            x       y       z     vdW  Elec       q    Type
REMARK                         _______ _______ _______ _____ _____    ______ ____
ROOT
ATOM      1  C   UNL     1      -2.411   0.074   0.196  0.00  0.00    +0.157 A 
ATOM      2  C   UNL     1      -1.287  -0.721   0.139  0.00  0.00    +0.096 A 
ATOM      3  C   UNL     1       0.007  -0.064   0.097  0.00  0.00    -0.018 A 
ATOM      4  C   UNL     1      -0.038   1.288   0.116  0.00  0.00    +0.013 A 
ATOM      5  S   UNL     1      -1.762   1.680   0.185  0.00  0.00    -0.071 S 
ATOM      6  C   UNL     1       1.129   2.226   0.078  0.00  0.00    +0.150 C 
ATOM      7  N   UNL     1       2.348   1.411   0.251  0.00  0.00    -0.291 N 
ATOM      8  C   UNL     1       2.421   0.135  -0.476  0.00  0.00    +0.113 C 
ATOM      9  C   UNL     1       1.333  -0.811   0.038  0.00  0.00    +0.056 C 
ATOM     10  C   UNL     1       3.357   1.822   1.045  0.00  0.00    +0.263 C 
ATOM     11  O   UNL     1       4.305   1.089   1.252  0.00  0.00    -0.268 OA
ENDROOT
BRANCH  10  12
ATOM     12  C   UNL     1       3.312   3.157   1.660  0.00  0.00    +0.106 A 
ATOM     13  C   UNL     1       3.483   4.334   1.002  0.00  0.00    -0.013 A 
ATOM     14  C   UNL     1       3.362   5.379   1.950  0.00  0.00    +0.005 A 
ATOM     15  C   UNL     1       3.441   6.775   1.858  0.00  0.00    +0.030 A 
ATOM     16  C   UNL     1       3.284   7.539   2.978  0.00  0.00    +0.042 A 
ATOM     17  C   UNL     1       3.046   6.945   4.212  0.00  0.00    +0.022 A 
ATOM     18  C   UNL     1       2.962   5.575   4.327  0.00  0.00    +0.027 A 
ATOM     19  C   UNL     1       3.120   4.775   3.199  0.00  0.00    +0.047 A 
ATOM     20  N   UNL     1       3.094   3.415   2.999  0.00  0.00    -0.350 N 
ATOM     21  H   UNL     1       2.946   2.746   3.686  0.00  0.00    +0.166 HD
ATOM     22 CL   UNL     1       3.382   9.268   2.861  0.00  0.00    -0.084 Cl
ATOM     23  C   UNL     1       3.751   4.497  -0.472  0.00  0.00    +0.047 C 
ENDBRANCH  10  12
BRANCH   1  24
ATOM     24  S   UNL     1      -4.101  -0.423   0.257  0.00  0.00    +0.065 S 
ATOM     25  O   UNL     1      -4.863   0.665  -0.248  0.00  0.00    -0.153 OA
ATOM     26  O   UNL     1      -4.162  -1.725  -0.310  0.00  0.00    -0.153 OA
BRANCH  24  27
ATOM     27  N   UNL     1      -4.506  -0.583   1.855  0.00  0.00    -0.190 NA
ATOM     28  H   UNL     1      -4.740  -1.454   2.211  0.00  0.00    +0.148 HD
BRANCH  27  30
ATOM     29  C   UNL     1      -5.263   0.262   4.022  0.00  0.00    +0.022 C 
ATOM     30  C   UNL     1      -4.512   0.592   2.730  0.00  0.00    +0.102 C 
ENDBRANCH  27  30
ENDBRANCH  24  27
ENDBRANCH   1  24
BRANCH   2  31
ATOM     31  C   UNL     1      -1.394  -2.188   0.123  0.00  0.00    +0.342 C 
ATOM     32  O   UNL     1      -1.397  -2.809   1.168  0.00  0.00    -0.245 OA
BRANCH  31  33
ATOM     33  O   UNL     1      -1.490  -2.843  -1.051  0.00  0.00    -0.464 OA
ATOM     34  C   UNL     1      -1.593  -4.290  -0.992  0.00  0.00    +0.280 C 
ENDBRANCH  31  33
ENDBRANCH   2  31
TORSDOF 6
