REMARK  Name = ZINC18322391
REMARK  8 active torsions:
REMARK  status: ('A' for Active; 'I' for Inactive)
REMARK    1  A    between atoms: C_1  and  C_2
REMARK    2  A    between atoms: C_3  and  C_33
REMARK    3  A    between atoms: C_11  and  C_13
REMARK    4  A    between atoms: C_13  and  C_15
REMARK    5  A    between atoms: C_13  and  O_16
REMARK    6  A    between atoms: O_16  and  C_17
REMARK    7  A    between atoms: C_17  and  C_19
REMARK    8  A    between atoms: C_19  and  C_20
REMARK                            x       y       z     vdW  Elec       q    Type
REMARK                         _______ _______ _______ _____ _____    ______ ____
ROOT
ATOM      1  C   UNL     1       0.090  -3.432   4.547  0.00  0.00    +0.239 C 
ATOM      2  C   UNL     1       0.478  -4.829   4.058  0.00  0.00    +0.060 C 
ENDROOT
BRANCH   1  13
ATOM      3  C   UNL     1      -0.018   1.503   0.010  0.00  0.00    +0.045 C 
ATOM      4  C   UNL     1       0.002  -0.004   0.002  0.00  0.00    -0.026 A 
ATOM      5  C   UNL     1       0.006  -0.677  -1.160  0.00  0.00    -0.008 A 
ATOM      6  S   UNL     1       0.032  -2.385  -0.648  0.00  0.00    -0.073 S 
ATOM      7  C   UNL     1       0.037  -2.144   1.110  0.00  0.00    +0.116 A 
ATOM      8  C   UNL     1       0.024  -0.745   1.250  0.00  0.00    +0.075 A 
ATOM      9  C   UNL     1       0.029  -0.257   2.597  0.00  0.00    +0.260 A 
ATOM     10  O   UNL     1       0.014   0.942   2.821  0.00  0.00    -0.267 OA
ATOM     11  N   UNL     1       0.051  -1.142   3.611  0.00  0.00    -0.307 N 
ATOM     12  H   UNL     1       0.054  -0.817   4.525  0.00  0.00    +0.170 HD
ATOM     13  C   UNL     1       0.067  -2.480   3.380  0.00  0.00    +0.152 A 
ATOM     14  N   UNL     1       0.053  -2.956   2.163  0.00  0.00    -0.223 NA
ATOM     15  C   UNL     1      -0.009  -0.122  -2.561  0.00  0.00    +0.052 C 
ENDBRANCH   1  13
BRANCH   1  16
ATOM     16  O   UNL     1      -1.206  -3.481   5.148  0.00  0.00    -0.454 OA
BRANCH  16  17
ATOM     17  C   UNL     1      -1.257  -3.733   6.465  0.00  0.00    +0.308 C 
ATOM     18  O   UNL     1      -0.236  -3.908   7.088  0.00  0.00    -0.251 OA
BRANCH  17  19
ATOM     19  C   UNL     1      -2.589  -3.800   7.168  0.00  0.00    +0.127 C 
BRANCH  19  20
ATOM     20  C   UNL     1      -2.368  -4.099   8.652  0.00  0.00    -0.017 C 
ATOM     21  C   UNL     1      -1.517  -2.991   9.275  0.00  0.00    +0.011 C 
ATOM     22  C   UNL     1      -1.296  -3.290  10.759  0.00  0.00    -0.009 C 
ATOM     23  C   UNL     1      -2.647  -3.358  11.473  0.00  0.00    +0.007 C 
ATOM     24  C   UNL     1      -3.498  -4.466  10.850  0.00  0.00    -0.009 C 
ATOM     25  C   UNL     1      -3.719  -4.167   9.366  0.00  0.00    +0.011 C 
ATOM     26  C   UNL     1      -2.776  -5.807  10.997  0.00  0.00    +0.021 C 
ATOM     27  C   UNL     1      -1.425  -5.740  10.284  0.00  0.00    +0.027 C 
ATOM     28  C   UNL     1      -0.574  -4.631  10.907  0.00  0.00    +0.021 C 
ATOM     29  C   UNL     1      -1.646  -5.440   8.800  0.00  0.00    +0.025 C 
ATOM     30 BR   UNL     1      -0.497  -7.463  10.473  0.00  0.00    -0.084 Br
ENDBRANCH  19  20
ENDBRANCH  17  19
ENDBRANCH  16  17
ENDBRANCH   1  16
TORSDOF 5
