REMARK  Name = ZINC12924552
REMARK  5 active torsions:
REMARK  status: ('A' for Active; 'I' for Inactive)
REMARK    1  A    between atoms: C_1  and  C_2
REMARK    2  A    between atoms: C_9  and  C_12
REMARK    3  A    between atoms: N_14  and  C_15
REMARK    4  A    between atoms: C_17  and  S_22
REMARK    5  A    between atoms: S_22  and  C_25
REMARK                            x       y       z     vdW  Elec       q    Type
REMARK                         _______ _______ _______ _____ _____    ______ ____
ROOT
ATOM      1  C   UNL     1       2.336   5.236  -0.095  0.00  0.00    +0.231 C 
ATOM      2  O   UNL     1       1.278   5.829  -0.082  0.00  0.00    -0.274 OA
ATOM      3  N   UNL     1       2.356   3.891  -0.001  0.00  0.00    -0.283 N 
ATOM      4  H   UNL     1       3.203   3.422   0.054  0.00  0.00    +0.155 HD
ENDROOT
BRANCH   1  13
ATOM      5  C   UNL     1       2.533  11.452   3.107  0.00  0.00    +0.044 C 
ATOM      6  C   UNL     1       2.735  10.405   2.042  0.00  0.00    -0.049 A 
ATOM      7  C   UNL     1       2.333  10.642   0.740  0.00  0.00    +0.004 A 
ATOM      8  C   UNL     1       2.520   9.694  -0.239  0.00  0.00    +0.005 A 
ATOM      9  C   UNL     1       3.120   8.465   0.049  0.00  0.00    -0.032 A 
ATOM     10  C   UNL     1       3.507   8.242   1.368  0.00  0.00    +0.012 A 
ATOM     11  C   UNL     1       3.325   9.195   2.353  0.00  0.00    +0.018 A 
ATOM     12  S   UNL     1       4.206   6.607   1.421  0.00  0.00    -0.112 S 
ATOM     13  C   UNL     1       3.627   6.002  -0.217  0.00  0.00    +0.142 C 
ATOM     14  C   UNL     1       3.414   7.355  -0.932  0.00  0.00    +0.060 C 
ENDBRANCH   1  13
BRANCH   3  15
ATOM     15  C   UNL     1       1.155   3.173   0.019  0.00  0.00    +0.054 A 
ATOM     16  C   UNL     1       0.033   3.709   0.637  0.00  0.00    +0.051 A 
ATOM     17  C   UNL     1      -1.151   2.998   0.654  0.00  0.00    +0.090 A 
ATOM     18  C   UNL     1      -1.222   1.755   0.051  0.00  0.00    +0.028 A 
ATOM     19  C   UNL     1      -0.106   1.216  -0.561  0.00  0.00    +0.024 A 
ATOM     20  C   UNL     1       1.082   1.922  -0.582  0.00  0.00    +0.062 A 
ATOM     21 CL   UNL     1       2.481   1.247  -1.358  0.00  0.00    -0.082 Cl
BRANCH  17  22
ATOM     22  S   UNL     1      -2.575   3.678   1.439  0.00  0.00    -0.006 S 
ATOM     23  O   UNL     1      -3.351   2.550   1.820  0.00  0.00    -0.170 OA
ATOM     24  O   UNL     1      -2.058   4.567   2.419  0.00  0.00    -0.170 OA
ATOM     25  C   UNL     1      -3.425   4.610   0.135  0.00  0.00    +0.200 C 
ENDBRANCH  17  22
ENDBRANCH   3  15
TORSDOF 3
