REMARK  Name = ZINC39678338
REMARK  8 active torsions:
REMARK  status: ('A' for Active; 'I' for Inactive)
REMARK    1  A    between atoms: C_4  and  C_7
REMARK    2  A    between atoms: C_7  and  C_8
REMARK    3  A    between atoms: C_8  and  C_9
REMARK    4  A    between atoms: C_9  and  C_10
REMARK    5  A    between atoms: C_14  and  C_23
REMARK    6  A    between atoms: N_25  and  C_26
REMARK    7  A    between atoms: C_26  and  C_27
REMARK    8  A    between atoms: C_32  and  N_33
REMARK                            x       y       z     vdW  Elec       q    Type
REMARK                         _______ _______ _______ _____ _____    ______ ____
ROOT
ATOM      1  C   UNL     1       6.076  -2.086   3.640  0.00  0.00    +0.216 C 
ATOM      2  O   UNL     1       5.650  -1.503   4.615  0.00  0.00    -0.276 OA
ATOM      3  N   UNL     1       7.319  -2.606   3.655  0.00  0.00    -0.300 N 
ATOM      4  C   UNL     1       8.010  -3.339   2.569  0.00  0.00    +0.121 C 
ATOM      5  C   UNL     1       9.470  -2.836   2.626  0.00  0.00    +0.100 C 
ATOM      6  C   UNL     1       9.657  -2.337   4.068  0.00  0.00    -0.004 C 
ATOM      7  C   UNL     1       8.306  -2.568   4.761  0.00  0.00    +0.115 C 
ATOM      8  C   UNL     1       9.998  -0.850   4.073  0.00  0.00    -0.010 C 
ATOM      9  C   UNL     1      10.235  -0.390   5.514  0.00  0.00    -0.082 C 
ATOM     10  N   UNL     1      11.333  -1.165   6.103  0.00  0.00    +0.379 N 
ATOM     11  C   UNL     1      10.960  -2.583   6.179  0.00  0.00    -0.082 C 
ATOM     12  C   UNL     1      10.753  -3.136   4.766  0.00  0.00    -0.010 C 
ATOM     13  H   UNL     1      12.158  -1.067   5.530  0.00  0.00    -0.086 HD
ATOM     14  H   UNL     1      11.528  -0.820   7.030  0.00  0.00    -0.086 HD
ENDROOT
BRANCH   5  15
ATOM     15  C   UNL     1      10.425  -3.963   2.330  0.00  0.00    +0.218 C 
ATOM     16  O   UNL     1      10.233  -5.062   2.808  0.00  0.00    -0.275 OA
ATOM     17  N   UNL     1      11.493  -3.751   1.536  0.00  0.00    -0.311 N 
ATOM     18  H   UNL     1      11.647  -2.873   1.154  0.00  0.00    +0.149 HD
BRANCH  17  19
ATOM     19  C   UNL     1      12.422  -4.847   1.248  0.00  0.00    +0.141 C 
BRANCH  19  20
ATOM     20  C   UNL     1      13.520  -4.351   0.343  0.00  0.00    -0.009 A 
ATOM     21  C   UNL     1      13.465  -4.605  -1.013  0.00  0.00    +0.007 A 
ATOM     22  C   UNL     1      14.472  -4.150  -1.844  0.00  0.00    +0.000 A 
ATOM     23  C   UNL     1      15.538  -3.440  -1.321  0.00  0.00    +0.002 A 
ATOM     24  C   UNL     1      15.598  -3.183   0.035  0.00  0.00    +0.023 A 
ATOM     25  C   UNL     1      14.585  -3.634   0.872  0.00  0.00    +0.034 A 
BRANCH  25  26
ATOM     26  N   UNL     1      14.641  -3.371   2.242  0.00  0.00    -0.330 N 
ATOM     27  C   UNL     1      15.312  -4.304   3.157  0.00  0.00    +0.105 C 
ATOM     28  C   UNL     1      16.349  -3.531   3.977  0.00  0.00    +0.019 C 
ATOM     29  C   UNL     1      15.667  -2.351   4.673  0.00  0.00    +0.003 C 
ATOM     30  C   UNL     1      15.081  -1.406   3.621  0.00  0.00    +0.019 C 
ATOM     31  C   UNL     1      14.035  -2.152   2.796  0.00  0.00    +0.105 C 
ENDBRANCH  25  26
ENDBRANCH  19  20
ENDBRANCH  17  19
ENDBRANCH   5  15
BRANCH   1  32
ATOM     32  C   UNL     1       5.215  -2.228   2.411  0.00  0.00    +0.096 C 
BRANCH  32  33
ATOM     33  C   UNL     1       3.862  -1.554   2.655  0.00  0.00    +0.014 C 
BRANCH  33  34
ATOM     34  C   UNL     1       2.988  -1.698   1.408  0.00  0.00    +0.035 C 
BRANCH  34  38
ATOM     35  C   UNL     1      -0.787   0.181   2.088  0.00  0.00    +0.000 A 
ATOM     36  C   UNL     1       0.260   0.907   1.554  0.00  0.00    +0.000 A 
ATOM     37  C   UNL     1       1.482   0.299   1.334  0.00  0.00    +0.003 A 
ATOM     38  C   UNL     1       1.657  -1.035   1.649  0.00  0.00    -0.047 A 
ATOM     39  C   UNL     1       0.609  -1.762   2.184  0.00  0.00    +0.003 A 
ATOM     40  C   UNL     1      -0.613  -1.154   2.402  0.00  0.00    +0.000 A 
ENDBRANCH  34  38
ENDBRANCH  33  34
ENDBRANCH  32  33
ENDBRANCH   1  32
TORSDOF 8
