REMARK  Name = ZINC09713988
REMARK  9 active torsions:
REMARK  status: ('A' for Active; 'I' for Inactive)
REMARK    1  A    between atoms: C_1  and  C_2
REMARK    2  A    between atoms: C_2  and  C_4
REMARK    3  A    between atoms: C_2  and  N_15
REMARK    4  A    between atoms: N_6  and  C_7
REMARK    5  A    between atoms: C_11  and  C_13
REMARK    6  A    between atoms: N_15  and  C_16
REMARK    7  A    between atoms: C_19  and  N_22
REMARK    8  A    between atoms: N_22  and  S_23
REMARK    9  A    between atoms: S_23  and  C_26
REMARK                            x       y       z     vdW  Elec       q    Type
REMARK                         _______ _______ _______ _____ _____    ______ ____
ROOT
ATOM      1  C   UNL     1       4.840   1.851  -4.671  0.00  0.00    +0.028 A 
ATOM      2  C   UNL     1       5.496   0.656  -4.934  0.00  0.00    +0.025 A 
ATOM      3  C   UNL     1       5.314  -0.430  -4.099  0.00  0.00    +0.026 A 
ATOM      4  C   UNL     1       4.475  -0.325  -2.998  0.00  0.00    +0.048 A 
ATOM      5  C   UNL     1       3.815   0.868  -2.738  0.00  0.00    +0.026 A 
ATOM      6  C   UNL     1       4.000   1.955  -3.570  0.00  0.00    +0.025 A 
ENDROOT
BRANCH   1   7
ATOM      7  N   UNL     1       5.024   2.951  -5.517  0.00  0.00    -0.333 N 
ATOM      8  H   UNL     1       5.610   2.878  -6.287  0.00  0.00    +0.147 HD
BRANCH   7  10
ATOM      9  C   UNL     1       2.928   4.167  -5.846  0.00  0.00    +0.038 C 
ATOM     10  C   UNL     1       4.332   4.212  -5.240  0.00  0.00    +0.154 C 
BRANCH  10  11
ATOM     11  C   UNL     1       5.105   5.354  -5.848  0.00  0.00    +0.237 C 
ATOM     12  O   UNL     1       6.133   5.135  -6.454  0.00  0.00    -0.273 OA
ATOM     13  N   UNL     1       4.654   6.617  -5.720  0.00  0.00    -0.284 N 
ATOM     14  H   UNL     1       3.795   6.786  -5.301  0.00  0.00    +0.155 HD
BRANCH  13  15
ATOM     15  C   UNL     1       5.425   7.687  -6.189  0.00  0.00    +0.035 A 
ATOM     16  C   UNL     1       4.804   8.818  -6.704  0.00  0.00    +0.023 A 
ATOM     17  C   UNL     1       5.561   9.877  -7.168  0.00  0.00    +0.003 A 
ATOM     18  C   UNL     1       6.939   9.819  -7.124  0.00  0.00    +0.019 A 
ATOM     19  C   UNL     1       7.573   8.687  -6.609  0.00  0.00    +0.054 A 
ATOM     20  C   UNL     1       6.809   7.620  -6.135  0.00  0.00    +0.042 A 
BRANCH  19  21
ATOM     21  C   UNL     1       9.003   8.623  -6.561  0.00  0.00    +0.099 C 
ATOM     22  N   UNL     1      10.137   8.573  -6.522  0.00  0.00    -0.191 NA
ENDBRANCH  19  21
ENDBRANCH  13  15
ENDBRANCH  10  11
ENDBRANCH   7  10
ENDBRANCH   1   7
BRANCH   4  23
ATOM     23  N   UNL     1       4.290  -1.426  -2.152  0.00  0.00    -0.216 N 
ATOM     24  H   UNL     1       3.460  -1.926  -2.181  0.00  0.00    +0.174 HD
BRANCH  23  25
ATOM     25  S   UNL     1       5.490  -1.874  -1.102  0.00  0.00    +0.072 S 
ATOM     26  O   UNL     1       6.681  -1.984  -1.869  0.00  0.00    -0.150 OA
ATOM     27  O   UNL     1       4.976  -2.953  -0.335  0.00  0.00    -0.150 OA
BRANCH  25  28
ATOM     28  C   UNL     1       5.733  -0.532   0.015  0.00  0.00    +0.112 A 
ATOM     29  C   UNL     1       4.930  -0.412   1.134  0.00  0.00    +0.032 A 
ATOM     30  C   UNL     1       5.117   0.639   2.011  0.00  0.00    +0.051 A 
ATOM     31  C   UNL     1       6.109   1.577   1.771  0.00  0.00    +0.162 A 
ATOM     32  C   UNL     1       6.918   1.455   0.647  0.00  0.00    +0.164 A 
ATOM     33  C   UNL     1       6.725   0.398  -0.230  0.00  0.00    +0.078 A 
ATOM     34  O   UNL     1       7.904   2.360   0.397  0.00  0.00    -0.485 OA
ATOM     35  C   UNL     1       7.824   3.608   1.093  0.00  0.00    +0.270 C 
ATOM     36  C   UNL     1       7.521   3.316   2.569  0.00  0.00    +0.270 C 
ATOM     37  O   UNL     1       6.276   2.611   2.639  0.00  0.00    -0.485 OA
ENDBRANCH  25  28
ENDBRANCH  23  25
ENDBRANCH   4  23
TORSDOF 8
