REMARK  Name = ZINC66130465
REMARK  8 active torsions:
REMARK  status: ('A' for Active; 'I' for Inactive)
REMARK    1  A    between atoms: C_1  and  C_2
REMARK    2  A    between atoms: C_2  and  C_3
REMARK    3  A    between atoms: C_3  and  C_5
REMARK    4  A    between atoms: C_3  and  N_6
REMARK    5  A    between atoms: C_16  and  C_17
REMARK    6  A    between atoms: C_16  and  C_18
REMARK    7  A    between atoms: C_23  and  O_24
REMARK    8  A    between atoms: O_24  and  C_25
REMARK                            x       y       z     vdW  Elec       q    Type
REMARK                         _______ _______ _______ _____ _____    ______ ____
ROOT
ATOM      1  N   UNL     1       0.618   0.166   2.163  0.00  0.00    -0.270 N 
ATOM      2  C   UNL     1      -0.674  -0.167   2.353  0.00  0.00    +0.250 C 
ATOM      3  O   UNL     1      -1.449  -0.175   1.416  0.00  0.00    -0.270 OA
ATOM      4  C   UNL     1      -1.139  -0.522   3.706  0.00  0.00    +0.058 A 
ATOM      5  C   UNL     1      -2.492  -0.689   3.992  0.00  0.00    +0.015 A 
ATOM      6  C   UNL     1      -2.881  -1.012   5.276  0.00  0.00    +0.001 A 
ATOM      7  C   UNL     1      -1.936  -1.171   6.278  0.00  0.00    +0.002 A 
ATOM      8  C   UNL     1      -0.591  -1.011   6.007  0.00  0.00    +0.024 A 
ATOM      9  C   UNL     1      -0.184  -0.691   4.723  0.00  0.00    +0.041 A 
ATOM     10  N   UNL     1       1.160  -0.544   4.397  0.00  0.00    -0.319 N 
ATOM     11  C   UNL     1       1.527   0.350   3.296  0.00  0.00    +0.129 C 
ATOM     12  C   UNL     1       2.958   0.045   2.851  0.00  0.00    +0.059 C 
ATOM     13  H   UNL     1       1.843  -1.026   4.888  0.00  0.00    +0.148 HD
ENDROOT
BRANCH  11  14
ATOM     14  C   UNL     1       1.449   1.778   3.772  0.00  0.00    +0.035 A 
ATOM     15  C   UNL     1       0.551   2.652   3.190  0.00  0.00    +0.011 A 
ATOM     16  C   UNL     1       0.480   3.962   3.625  0.00  0.00    +0.001 A 
ATOM     17  C   UNL     1       1.305   4.401   4.644  0.00  0.00    +0.004 A 
ATOM     18  C   UNL     1       2.204   3.530   5.229  0.00  0.00    +0.046 A 
ATOM     19  C   UNL     1       2.274   2.213   4.798  0.00  0.00    +0.127 A 
BRANCH  19  20
ATOM     20  O   UNL     1       3.153   1.354   5.376  0.00  0.00    -0.495 OA
ATOM     21  C   UNL     1       3.972   1.871   6.426  0.00  0.00    +0.277 C 
ENDBRANCH  19  20
ENDBRANCH  11  14
BRANCH   1  22
ATOM     22  C   UNL     1       1.124   0.342   0.800  0.00  0.00    +0.075 C 
ATOM     23  C   UNL     1       1.861   1.679   0.697  0.00  0.00    +0.028 C 
BRANCH  22  25
ATOM     24  C   UNL     1       1.353  -2.136   0.583  0.00  0.00    +0.006 C 
ATOM     25  C   UNL     1       2.086  -0.799   0.462  0.00  0.00    +0.019 C 
ENDBRANCH  22  25
ENDBRANCH   1  22
TORSDOF 4
