REMARK  Name = ZINC34756675
REMARK  6 active torsions:
REMARK  status: ('A' for Active; 'I' for Inactive)
REMARK    1  A    between atoms: C_1  and  C_2
REMARK    2  A    between atoms: C_2  and  N_3
REMARK    3  A    between atoms: C_16  and  S_18
REMARK    4  A    between atoms: S_18  and  C_19
REMARK    5  A    between atoms: C_19  and  C_20
REMARK    6  A    between atoms: N_22  and  C_23
REMARK                            x       y       z     vdW  Elec       q    Type
REMARK                         _______ _______ _______ _____ _____    ______ ____
ROOT
ATOM      1  N   UNL     1       1.153   0.424  -2.079  0.00  0.00    +0.382 N 
ATOM      2  C   UNL     1       1.741   0.273  -3.415  0.00  0.00    -0.060 C 
ATOM      3  C   UNL     1       1.843  -1.216  -3.762  0.00  0.00    +0.088 C 
ATOM      4  N   UNL     1       2.587  -1.895  -2.691  0.00  0.00    -0.318 N 
ATOM      5  C   UNL     1       2.164  -1.667  -1.300  0.00  0.00    +0.088 C 
ATOM      6  C   UNL     1       2.047  -0.157  -1.069  0.00  0.00    -0.060 C 
ATOM      7  C   UNL     1       3.655  -2.724  -2.982  0.00  0.00    +0.134 A 
ATOM      8  C   UNL     1       3.465  -4.131  -3.091  0.00  0.00    +0.051 A 
ATOM      9  C   UNL     1       2.230  -4.902  -2.931  0.00  0.00    -0.025 A 
ATOM     10  C   UNL     1       2.319  -6.238  -3.088  0.00  0.00    -0.004 A 
ATOM     11  S   UNL     1       4.026  -6.548  -3.452  0.00  0.00    -0.073 S 
ATOM     12  C   UNL     1       4.620  -4.878  -3.392  0.00  0.00    +0.115 A 
ATOM     13  N   UNL     1       5.794  -4.300  -3.558  0.00  0.00    -0.214 NA
ATOM     14  C   UNL     1       5.913  -2.984  -3.444  0.00  0.00    +0.191 A 
ATOM     15  N   UNL     1       4.863  -2.219  -3.167  0.00  0.00    -0.206 NA
ATOM     16  C   UNL     1       1.211  -7.241  -2.975  0.00  0.00    +0.043 C 
ATOM     17  C   UNL     1       0.016  -6.568  -2.287  0.00  0.00    +0.005 C 
ATOM     18  C   UNL     1      -0.236  -5.213  -2.955  0.00  0.00    +0.005 C 
ATOM     19  C   UNL     1       0.893  -4.243  -2.603  0.00  0.00    +0.037 C 
ATOM     20  H   UNL     1       0.263  -0.050  -2.050  0.00  0.00    -0.082 HD
ENDROOT
BRANCH   1  22
ATOM     21  C   UNL     1      -0.074   2.429  -2.766  0.00  0.00    -0.017 C 
ATOM     22  C   UNL     1       0.954   1.851  -1.791  0.00  0.00    -0.082 C 
ENDBRANCH   1  22
BRANCH  14  23
ATOM     23  S   UNL     1       7.492  -2.235  -3.670  0.00  0.00    -0.077 S 
BRANCH  23  24
ATOM     24  C   UNL     1       8.592  -3.632  -4.027  0.00  0.00    +0.173 C 
BRANCH  24  25
ATOM     25  C   UNL     1       9.995  -3.124  -4.244  0.00  0.00    +0.224 C 
ATOM     26  O   UNL     1      10.228  -1.937  -4.165  0.00  0.00    -0.275 OA
ATOM     27  N   UNL     1      10.989  -3.989  -4.526  0.00  0.00    -0.312 N 
ATOM     28  H   UNL     1      10.802  -4.939  -4.589  0.00  0.00    +0.149 HD
BRANCH  27  29
ATOM     29  C   UNL     1      12.352  -3.495  -4.736  0.00  0.00    +0.073 C 
ATOM     30  C   UNL     1      12.517  -3.059  -6.194  0.00  0.00    +0.022 C 
ATOM     31  C   UNL     1      13.940  -2.543  -6.414  0.00  0.00    +0.002 C 
ATOM     32  C   UNL     1      14.941  -3.657  -6.099  0.00  0.00    +0.000 C 
ATOM     33  C   UNL     1      14.776  -4.093  -4.641  0.00  0.00    +0.002 C 
ATOM     34  C   UNL     1      13.352  -4.609  -4.421  0.00  0.00    +0.022 C 
ENDBRANCH  27  29
ENDBRANCH  24  25
ENDBRANCH  23  24
ENDBRANCH  14  23
TORSDOF 5
