REMARK  Name = ZINC21368161
REMARK  8 active torsions:
REMARK  status: ('A' for Active; 'I' for Inactive)
REMARK    1  A    between atoms: C_1  and  C_2
REMARK    2  A    between atoms: C_2  and  C_3
REMARK    3  A    between atoms: C_3  and  C_27
REMARK    4  A    between atoms: N_6  and  C_10
REMARK    5  A    between atoms: C_10  and  C_11
REMARK    6  A    between atoms: N_13  and  C_14
REMARK    7  A    between atoms: C_14  and  C_16
REMARK    8  A    between atoms: C_14  and  C_17
REMARK                            x       y       z     vdW  Elec       q    Type
REMARK                         _______ _______ _______ _____ _____    ______ ____
ROOT
ATOM      1  C   UNL     1       0.692  -4.343  -0.662  0.00  0.00    +0.138 C 
ATOM      2  C   UNL     1       0.930  -2.924  -1.137  0.00  0.00    +0.251 C 
ATOM      3  O   UNL     1       0.985  -2.535  -2.285  0.00  0.00    -0.272 OA
ATOM      4  N   UNL     1       1.069  -2.183  -0.020  0.00  0.00    -0.215 N 
ATOM      5  C   UNL     1       0.958  -2.931   1.084  0.00  0.00    +0.310 C 
ATOM      6  O   UNL     1       1.051  -2.488   2.212  0.00  0.00    -0.252 OA
ATOM      7  N   UNL     1       0.728  -4.227   0.806  0.00  0.00    -0.281 N 
ATOM      8  H   UNL     1       0.578  -5.119   1.432  0.00  0.00    +0.152 HD
ENDROOT
BRANCH   1   9
ATOM      9  C   UNL     1       1.786  -5.257  -1.152  0.00  0.00    -0.015 A 
ATOM     10  C   UNL     1       1.646  -5.917  -2.358  0.00  0.00    +0.007 A 
ATOM     11  C   UNL     1       2.652  -6.751  -2.810  0.00  0.00    +0.020 A 
ATOM     12  C   UNL     1       3.793  -6.933  -2.050  0.00  0.00    +0.041 A 
ATOM     13  C   UNL     1       3.930  -6.276  -0.840  0.00  0.00    +0.020 A 
ATOM     14  C   UNL     1       2.927  -5.438  -0.392  0.00  0.00    +0.007 A 
ATOM     15 CL   UNL     1       5.053  -7.986  -2.614  0.00  0.00    -0.084 Cl
ENDBRANCH   1   9
BRANCH   1  17
ATOM     16  C   UNL     1      -1.770  -3.932  -0.575  0.00  0.00    +0.007 C 
ATOM     17  C   UNL     1      -0.675  -4.845  -1.129  0.00  0.00    +0.037 C 
ENDBRANCH   1  17
BRANCH   4  18
ATOM     18  C   UNL     1       1.317  -0.740  -0.015  0.00  0.00    +0.213 C 
BRANCH  18  19
ATOM     19  C   UNL     1       0.002  -0.004   0.002  0.00  0.00    +0.231 C 
ATOM     20  O   UNL     1      -1.040  -0.625   0.009  0.00  0.00    -0.274 OA
ATOM     21  N   UNL     1      -0.016   1.344   0.009  0.00  0.00    -0.307 N 
ATOM     22  H   UNL     1       0.929   1.907   0.008  0.00  0.00    +0.149 HD
BRANCH  21  23
ATOM     23  C   UNL     1      -1.295   2.059   0.019  0.00  0.00    +0.100 C 
ATOM     24  C   UNL     1      -1.794   2.190   1.460  0.00  0.00    +0.033 C 
BRANCH  23  25
ATOM     25  C   UNL     1      -1.107   3.431  -0.575  0.00  0.00    -0.027 A 
ATOM     26  C   UNL     1       0.041   4.160  -0.269  0.00  0.00    +0.006 A 
ATOM     27  C   UNL     1       0.243   5.400  -0.793  0.00  0.00    +0.009 A 
ATOM     28  C   UNL     1      -0.723   5.961  -1.646  0.00  0.00    -0.018 A 
ATOM     29  C   UNL     1      -0.552   7.241  -2.200  0.00  0.00    +0.008 A 
ATOM     30  C   UNL     1      -1.509   7.752  -3.022  0.00  0.00    +0.001 A 
ATOM     31  C   UNL     1      -2.659   7.025  -3.323  0.00  0.00    +0.001 A 
ATOM     32  C   UNL     1      -2.859   5.783  -2.804  0.00  0.00    +0.008 A 
ATOM     33  C   UNL     1      -1.893   5.222  -1.952  0.00  0.00    -0.018 A 
ATOM     34  C   UNL     1      -2.064   3.942  -1.397  0.00  0.00    +0.014 A 
ENDBRANCH  23  25
ENDBRANCH  21  23
ENDBRANCH  18  19
ENDBRANCH   4  18
TORSDOF 6
