REMARK  Name = ZINC15301696
REMARK  7 active torsions:
REMARK  status: ('A' for Active; 'I' for Inactive)
REMARK    1  A    between atoms: C_1  and  C_2
REMARK    2  A    between atoms: C_2  and  C_3
REMARK    3  A    between atoms: C_2  and  C_4
REMARK    4  A    between atoms: C_2  and  C_5
REMARK    5  A    between atoms: C_10  and  N_11
REMARK    6  A    between atoms: C_12  and  C_14
REMARK    7  A    between atoms: C_14  and  C_15
REMARK                            x       y       z     vdW  Elec       q    Type
REMARK                         _______ _______ _______ _____ _____    ______ ____
ROOT
ATOM      1  N   UNL     1       2.256   1.272  -0.488  0.00  0.00    -0.285 N 
ATOM      2  C   UNL     1       3.417   1.873  -0.818  0.00  0.00    +0.223 C 
ATOM      3  O   UNL     1       3.472   3.082  -0.898  0.00  0.00    -0.275 OA
ATOM      4  H   UNL     1       2.236   0.317  -0.316  0.00  0.00    +0.155 HD
ENDROOT
BRANCH   1  10
ATOM      5  C   UNL     1      -0.154   1.390  -0.411  0.00  0.00    -0.021 A 
ATOM      6  C   UNL     1      -1.314   2.137  -0.324  0.00  0.00    +0.006 A 
ATOM      7  C   UNL     1      -1.244   3.513  -0.210  0.00  0.00    +0.000 A 
ATOM      8  C   UNL     1      -0.016   4.147  -0.194  0.00  0.00    +0.002 A 
ATOM      9  C   UNL     1       1.147   3.407  -0.285  0.00  0.00    +0.023 A 
ATOM     10  C   UNL     1       1.081   2.024  -0.394  0.00  0.00    +0.037 A 
BRANCH   5  12
ATOM     11  C   UNL     1      -1.696  -0.541  -0.625  0.00  0.00    +0.015 C 
ATOM     12  C   UNL     1      -0.231  -0.110  -0.529  0.00  0.00    -0.011 C 
ATOM     13  C   UNL     1       0.517  -0.562  -1.785  0.00  0.00    +0.015 C 
ATOM     14  C   UNL     1       0.409  -0.752   0.704  0.00  0.00    +0.015 C 
ENDBRANCH   5  12
ENDBRANCH   1  10
BRANCH   2  15
ATOM     15  C   UNL     1       4.645   1.042  -1.088  0.00  0.00    +0.153 C 
BRANCH  15  16
ATOM     16  C   UNL     1       5.799   1.949  -1.433  0.00  0.00    +0.078 A 
ATOM     17  C   UNL     1       7.112   1.380  -1.732  0.00  0.00    +0.011 A 
ATOM     18  C   UNL     1       7.338   0.002  -1.721  0.00  0.00    +0.010 A 
ATOM     19  C   UNL     1       8.582  -0.482  -2.014  0.00  0.00    +0.001 A 
ATOM     20  C   UNL     1       9.627   0.378  -2.330  0.00  0.00    +0.001 A 
ATOM     21  C   UNL     1       9.432   1.741  -2.354  0.00  0.00    +0.014 A 
ATOM     22  C   UNL     1       8.171   2.258  -2.058  0.00  0.00    +0.050 A 
ATOM     23  C   UNL     1       7.899   3.701  -2.067  0.00  0.00    +0.272 A 
ATOM     24  O   UNL     1       8.781   4.497  -2.336  0.00  0.00    -0.266 OA
ATOM     25  N   UNL     1       6.654   4.128  -1.770  0.00  0.00    -0.242 N 
ATOM     26  H   UNL     1       6.469   5.080  -1.775  0.00  0.00    +0.192 HD
ATOM     27  N   UNL     1       5.627   3.237  -1.459  0.00  0.00    -0.175 NA
ENDBRANCH  15  16
ENDBRANCH   2  15
TORSDOF 4
