REMARK  Name = ZINC20151472
REMARK  7 active torsions:
REMARK  status: ('A' for Active; 'I' for Inactive)
REMARK    1  A    between atoms: C_1  and  C_2
REMARK    2  A    between atoms: C_7  and  C_29
REMARK    3  A    between atoms: C_11  and  C_12
REMARK    4  A    between atoms: N_13  and  C_14
REMARK    5  A    between atoms: C_14  and  C_15
REMARK    6  A    between atoms: C_15  and  N_16
REMARK    7  A    between atoms: C_17  and  C_19
REMARK                            x       y       z     vdW  Elec       q    Type
REMARK                         _______ _______ _______ _____ _____    ______ ____
ROOT
ATOM      1  C   UNL     1       8.546   3.329  -0.521  0.00  0.00    +0.044 C 
ATOM      2  C   UNL     1       7.277   4.101  -0.265  0.00  0.00    -0.045 A 
ATOM      3  C   UNL     1       7.343   5.476  -0.054  0.00  0.00    +0.004 A 
ATOM      4  C   UNL     1       6.214   6.201   0.181  0.00  0.00    +0.010 A 
ATOM      5  C   UNL     1       4.967   5.555   0.210  0.00  0.00    +0.002 A 
ATOM      6  C   UNL     1       3.782   6.274   0.450  0.00  0.00    +0.032 A 
ATOM      7  C   UNL     1       2.583   5.574   0.460  0.00  0.00    +0.092 A 
ATOM      8  C   UNL     1       2.594   4.176   0.243  0.00  0.00    +0.137 A 
ATOM      9  N   UNL     1       3.716   3.527   0.021  0.00  0.00    -0.231 NA
ATOM     10  C   UNL     1       4.898   4.156  -0.004  0.00  0.00    +0.076 A 
ATOM     11  C   UNL     1       6.085   3.443  -0.243  0.00  0.00    -0.022 A 
ATOM     12  C   UNL     1       6.039   1.955  -0.475  0.00  0.00    +0.046 C 
ATOM     13  N   UNL     1       1.400   3.478   0.258  0.00  0.00    -0.327 N 
ATOM     14  H   UNL     1       0.455   4.010   0.442  0.00  0.00    +0.148 HD
ENDROOT
BRANCH   7  15
ATOM     15  C   UNL     1       1.348   6.260   0.693  0.00  0.00    +0.103 C 
ATOM     16  N   UNL     1       0.368   6.804   0.878  0.00  0.00    -0.191 NA
ENDBRANCH   7  15
BRANCH  13  17
ATOM     17  C   UNL     1       1.393   2.031   0.029  0.00  0.00    +0.121 C 
BRANCH  17  18
ATOM     18  C   UNL     1      -0.043   1.510   0.098  0.00  0.00    +0.123 C 
BRANCH  18  19
ATOM     19  N   UNL     1      -0.050   0.063  -0.132  0.00  0.00    -0.313 N 
ATOM     20  C   UNL     1      -1.213  -0.616  -0.117  0.00  0.00    +0.219 C 
ATOM     21  O   UNL     1      -2.256  -0.030   0.086  0.00  0.00    -0.275 OA
ATOM     22  H   UNL     1       0.896  -0.468  -0.316  0.00  0.00    +0.149 HD
BRANCH  20  23
ATOM     23  C   UNL     1      -1.220  -2.105  -0.352  0.00  0.00    +0.048 C 
ATOM     24  C   UNL     1      -0.634  -2.405  -1.734  0.00  0.00    +0.019 C 
ATOM     25  C   UNL     1      -0.641  -3.916  -1.973  0.00  0.00    -0.009 C 
ATOM     26  C   UNL     1      -2.078  -4.437  -1.904  0.00  0.00    +0.007 C 
ATOM     27  C   UNL     1      -2.663  -4.137  -0.523  0.00  0.00    -0.009 C 
ATOM     28  C   UNL     1      -2.657  -2.626  -0.284  0.00  0.00    +0.019 C 
ATOM     29  C   UNL     1      -1.819  -4.827   0.550  0.00  0.00    +0.007 C 
ATOM     30  C   UNL     1      -0.382  -4.306   0.481  0.00  0.00    -0.009 C 
ATOM     31  C   UNL     1       0.204  -4.606  -0.900  0.00  0.00    +0.007 C 
ATOM     32  C   UNL     1      -0.375  -2.795   0.721  0.00  0.00    +0.019 C 
ENDBRANCH  20  23
ENDBRANCH  18  19
ENDBRANCH  17  18
ENDBRANCH  13  17
TORSDOF 5
