REMARK  Name = ZINC32967481
REMARK  9 active torsions:
REMARK  status: ('A' for Active; 'I' for Inactive)
REMARK    1  A    between atoms: C_1  and  S_2
REMARK    2  A    between atoms: S_2  and  C_3
REMARK    3  A    between atoms: C_3  and  C_4
REMARK    4  A    between atoms: C_4  and  C_5
REMARK    5  A    between atoms: C_5  and  C_7
REMARK    6  A    between atoms: C_5  and  N_24
REMARK    7  A    between atoms: N_9  and  N_10
REMARK    8  A    between atoms: C_11  and  C_13
REMARK    9  A    between atoms: C_25  and  C_27
REMARK                            x       y       z     vdW  Elec       q    Type
REMARK                         _______ _______ _______ _____ _____    ______ ____
ROOT
ATOM      1  C   UNL     1       5.954   3.188   0.565  0.00  0.00    +0.249 C 
ATOM      2  O   UNL     1       5.712   2.064   0.951  0.00  0.00    -0.272 OA
ATOM      3  N   UNL     1       7.205   3.679   0.660  0.00  0.00    -0.233 N 
ATOM      4  H   UNL     1       7.425   4.698   0.310  0.00  0.00    +0.173 HD
ENDROOT
BRANCH   3   5
ATOM      5  N   UNL     1       8.227   2.890   1.205  0.00  0.00    -0.231 N 
ATOM      6  C   UNL     1       9.479   3.380   1.300  0.00  0.00    +0.273 C 
ATOM      7  O   UNL     1       9.721   4.504   0.914  0.00  0.00    -0.270 OA
ATOM      8  H   UNL     1       8.007   1.870   1.555  0.00  0.00    +0.173 HD
BRANCH   6   9
ATOM      9  C   UNL     1      10.578   2.531   1.886  0.00  0.00    +0.297 C 
ATOM     10  C   UNL     1      10.852   1.333   0.967  0.00  0.00    +0.283 C 
ATOM     11  O   UNL     1      11.908   0.557   1.545  0.00  0.00    -0.484 OA
ATOM     12  C   UNL     1      12.996   1.242   1.991  0.00  0.00    +0.162 A 
ATOM     13  C   UNL     1      14.181   0.560   2.224  0.00  0.00    +0.049 A 
ATOM     14  C   UNL     1      15.294   1.241   2.680  0.00  0.00    +0.004 A 
ATOM     15  C   UNL     1      15.229   2.604   2.905  0.00  0.00    +0.004 A 
ATOM     16  C   UNL     1      14.052   3.289   2.674  0.00  0.00    +0.049 A 
ATOM     17  C   UNL     1      12.931   2.612   2.215  0.00  0.00    +0.163 A 
ATOM     18  O   UNL     1      11.780   3.302   1.988  0.00  0.00    -0.472 OA
ENDBRANCH   6   9
ENDBRANCH   3   5
BRANCH   1  19
ATOM     19  C   UNL     1       4.855   4.037  -0.021  0.00  0.00    +0.161 C 
BRANCH  19  20
ATOM     20  N   UNL     1       3.599   3.283  -0.014  0.00  0.00    -0.300 N 
ATOM     21  C   UNL     1       2.420   3.937   0.001  0.00  0.00    +0.246 C 
ATOM     22  O   UNL     1       2.399   5.152   0.007  0.00  0.00    -0.270 OA
ATOM     23  H   UNL     1       3.617   2.183  -0.020  0.00  0.00    +0.150 HD
BRANCH  21  24
ATOM     24  C   UNL     1       1.153   3.176   0.008  0.00  0.00    +0.051 A 
ATOM     25  C   UNL     1       1.173   1.780   0.000  0.00  0.00    +0.014 A 
ATOM     26  C   UNL     1      -0.013   1.076   0.008  0.00  0.00    +0.001 A 
ATOM     27  C   UNL     1      -1.222   1.750   0.017  0.00  0.00    +0.001 A 
ATOM     28  C   UNL     1      -1.250   3.132   0.031  0.00  0.00    +0.016 A 
ATOM     29  C   UNL     1      -0.070   3.850   0.023  0.00  0.00    +0.030 A 
ATOM     30 BR   UNL     1      -0.110   5.740   0.033  0.00  0.00    -0.050 Br
ENDBRANCH  21  24
ENDBRANCH  19  20
BRANCH  19  31
ATOM     31  C   UNL     1       5.214   4.415  -1.460  0.00  0.00    +0.042 C 
BRANCH  31  32
ATOM     32  C   UNL     1       4.161   5.377  -2.012  0.00  0.00    +0.071 C 
BRANCH  32  34
ATOM     33  C   UNL     1       3.259   6.954  -4.220  0.00  0.00    +0.084 C 
ATOM     34  S   UNL     1       4.587   5.825  -3.718  0.00  0.00    -0.164 S 
ENDBRANCH  32  34
ENDBRANCH  31  32
ENDBRANCH  19  31
ENDBRANCH   1  19
TORSDOF 8
