REMARK  Name = ZINC63708534
REMARK  10 active torsions:
REMARK  status: ('A' for Active; 'I' for Inactive)
REMARK    1  A    between atoms: C_1  and  C_2
REMARK    2  A    between atoms: N_5  and  C_8
REMARK    3  A    between atoms: C_8  and  C_9
REMARK    4  A    between atoms: C_9  and  C_10
REMARK    5  A    between atoms: C_10  and  N_11
REMARK    6  A    between atoms: C_12  and  S_23
REMARK    7  A    between atoms: S_23  and  C_24
REMARK    8  A    between atoms: C_24  and  C_25
REMARK    9  A    between atoms: N_27  and  C_28
REMARK   10  A    between atoms: C_31  and  C_34
REMARK                            x       y       z     vdW  Elec       q    Type
REMARK                         _______ _______ _______ _____ _____    ______ ____
ROOT
ATOM      1  N   UNL     1       3.577  -6.276   2.265  0.00  0.00    -0.270 N 
ATOM      2  C   UNL     1       5.026  -6.363   2.086  0.00  0.00    +0.222 C 
ATOM      3  N   UNL     1       5.579  -7.438   2.917  0.00  0.00    -0.317 N 
ATOM      4  C   UNL     1       5.127  -7.572   4.225  0.00  0.00    +0.041 A 
ATOM      5  C   UNL     1       5.928  -8.102   5.222  0.00  0.00    +0.024 A 
ATOM      6  C   UNL     1       5.432  -8.226   6.506  0.00  0.00    +0.002 A 
ATOM      7  C   UNL     1       4.139  -7.824   6.803  0.00  0.00    +0.001 A 
ATOM      8  C   UNL     1       3.329  -7.290   5.822  0.00  0.00    +0.015 A 
ATOM      9  C   UNL     1       3.818  -7.155   4.525  0.00  0.00    +0.058 A 
ATOM     10  C   UNL     1       3.002  -6.563   3.450  0.00  0.00    +0.250 C 
ATOM     11  O   UNL     1       1.820  -6.339   3.628  0.00  0.00    -0.270 OA
ATOM     12  H   UNL     1       6.246  -8.045   2.561  0.00  0.00    +0.149 HD
ENDROOT
BRANCH   1  13
ATOM     13  C   UNL     1       2.736  -5.863   1.138  0.00  0.00    +0.109 C 
BRANCH  13  14
ATOM     14  C   UNL     1       2.582  -4.341   1.147  0.00  0.00    +0.000 C 
BRANCH  14  15
ATOM     15  C   UNL     1       1.704  -3.911  -0.029  0.00  0.00    -0.077 C 
BRANCH  15  20
ATOM     16  C   UNL     1      -0.019   1.526   0.010  0.00  0.00    +0.007 C 
ATOM     17  C   UNL     1       0.002  -0.004   0.002  0.00  0.00    -0.018 C 
ATOM     18  C   UNL     1       0.727  -0.499  -1.252  0.00  0.00    -0.016 C 
ATOM     19  C   UNL     1       0.814  -2.027  -1.215  0.00  0.00    -0.079 C 
ATOM     20  N   UNL     1       1.556  -2.449  -0.021  0.00  0.00    +0.380 N 
ATOM     21  C   UNL     1       0.829  -2.040   1.187  0.00  0.00    -0.079 C 
ATOM     22  C   UNL     1       0.743  -0.513   1.242  0.00  0.00    -0.016 C 
ATOM     23  H   UNL     1       2.469  -2.020  -0.024  0.00  0.00    -0.082 HD
ENDBRANCH  15  20
ENDBRANCH  14  15
ENDBRANCH  13  14
ENDBRANCH   1  13
BRANCH   2  24
ATOM     24  S   UNL     1       5.786  -4.787   2.566  0.00  0.00    -0.110 S 
BRANCH  24  25
ATOM     25  C   UNL     1       5.322  -4.590   4.309  0.00  0.00    +0.168 C 
BRANCH  25  26
ATOM     26  C   UNL     1       5.897  -3.302   4.839  0.00  0.00    +0.225 C 
ATOM     27  O   UNL     1       6.556  -2.588   4.113  0.00  0.00    -0.275 OA
ATOM     28  N   UNL     1       5.680  -2.943   6.120  0.00  0.00    -0.288 N 
ATOM     29  H   UNL     1       5.153  -3.515   6.700  0.00  0.00    +0.151 HD
BRANCH  28  30
ATOM     30  C   UNL     1       6.239  -1.691   6.635  0.00  0.00    +0.239 C 
ATOM     31  C   UNL     1       6.817  -1.893   8.025  0.00  0.00    +0.045 C 
ATOM     32  C   UNL     1       6.091  -1.080   8.796  0.00  0.00    +0.060 C 
ATOM     33  N   UNL     1       5.165  -0.423   8.062  0.00  0.00    -0.157 NA
ATOM     34  N   UNL     1       5.175  -0.697   6.856  0.00  0.00    -0.160 NA
ATOM     35  C   UNL     1       6.280  -0.915  10.282  0.00  0.00    +0.067 C 
ENDBRANCH  28  30
ENDBRANCH  25  26
ENDBRANCH  24  25
ENDBRANCH   2  24
TORSDOF 8
