REMARK  Name = ZINC40360556
REMARK  10 active torsions:
REMARK  status: ('A' for Active; 'I' for Inactive)
REMARK    1  A    between atoms: C_1  and  C_2
REMARK    2  A    between atoms: C_7  and  N_8
REMARK    3  A    between atoms: C_18  and  C_19
REMARK    4  A    between atoms: C_19  and  C_21
REMARK    5  A    between atoms: C_19  and  N_22
REMARK    6  A    between atoms: N_22  and  C_23
REMARK    7  A    between atoms: C_23  and  C_24
REMARK    8  A    between atoms: C_24  and  C_25
REMARK    9  A    between atoms: C_24  and  C_26
REMARK   10  A    between atoms: N_29  and  C_30
REMARK                            x       y       z     vdW  Elec       q    Type
REMARK                         _______ _______ _______ _____ _____    ______ ____
ROOT
ATOM      1  C   UNL     1       2.371  -0.184   2.176  0.00  0.00    +0.141 C 
ATOM      2  C   UNL     1       2.205  -1.650   1.771  0.00  0.00    +0.036 C 
ENDROOT
BRANCH   1  13
ATOM      3  N   UNL     1       0.492   1.366   2.546  0.00  0.00    -0.263 N 
ATOM      4  C   UNL     1      -0.601   1.800   3.215  0.00  0.00    +0.266 A 
ATOM      5  O   UNL     1      -1.215   2.786   2.851  0.00  0.00    -0.267 OA
ATOM      6  C   UNL     1      -1.018   1.036   4.400  0.00  0.00    +0.065 A 
ATOM      7  C   UNL     1      -2.129   1.400   5.158  0.00  0.00    +0.015 A 
ATOM      8  C   UNL     1      -2.476   0.647   6.258  0.00  0.00    +0.001 A 
ATOM      9  C   UNL     1      -1.728  -0.468   6.616  0.00  0.00    +0.002 A 
ATOM     10  C   UNL     1      -0.627  -0.844   5.881  0.00  0.00    +0.028 A 
ATOM     11  C   UNL     1      -0.255  -0.097   4.761  0.00  0.00    +0.078 A 
ATOM     12  N   UNL     1       0.822  -0.432   4.008  0.00  0.00    -0.231 NA
ATOM     13  C   UNL     1       1.164   0.259   2.963  0.00  0.00    +0.138 A 
BRANCH   3  20
ATOM     14  C   UNL     1       2.191   3.619   2.918  0.00  0.00    +0.046 C 
ATOM     15  C   UNL     1       1.761   3.163   1.547  0.00  0.00    -0.026 A 
ATOM     16  C   UNL     1       2.197   3.840   0.425  0.00  0.00    +0.005 A 
ATOM     17  C   UNL     1       1.804   3.423  -0.833  0.00  0.00    +0.000 A 
ATOM     18  C   UNL     1       0.973   2.326  -0.972  0.00  0.00    +0.002 A 
ATOM     19  C   UNL     1       0.534   1.644   0.146  0.00  0.00    +0.026 A 
ATOM     20  C   UNL     1       0.932   2.058   1.411  0.00  0.00    +0.054 A 
ENDBRANCH   3  20
ENDBRANCH   1  13
BRANCH   1  21
ATOM     21  N   UNL     1       3.573  -0.038   3.001  0.00  0.00    -0.276 N 
ATOM     22  C   UNL     1       4.574   0.769   2.598  0.00  0.00    +0.303 C 
ATOM     23  O   UNL     1       4.479   1.376   1.548  0.00  0.00    -0.253 OA
ATOM     24  N   UNL     1       5.679   0.903   3.357  0.00  0.00    -0.294 N 
ATOM     25  H   UNL     1       5.754   0.419   4.194  0.00  0.00    +0.151 HD
BRANCH  24  26
ATOM     26  C   UNL     1       6.767   1.781   2.918  0.00  0.00    +0.037 C 
ATOM     27  C   UNL     1       7.301   1.295   1.569  0.00  0.00    +0.029 C 
ATOM     28  C   UNL     1       8.438   2.212   1.111  0.00  0.00    -0.008 C 
ATOM     29  C   UNL     1       9.564   2.184   2.146  0.00  0.00    +0.007 C 
ATOM     30  C   UNL     1       9.030   2.670   3.494  0.00  0.00    -0.008 C 
ATOM     31  C   UNL     1       7.893   1.753   3.953  0.00  0.00    +0.029 C 
ATOM     32  C   UNL     1       8.505   4.100   3.350  0.00  0.00    +0.007 C 
ATOM     33  C   UNL     1       7.378   4.127   2.315  0.00  0.00    -0.008 C 
ATOM     34  C   UNL     1       7.913   3.641   0.966  0.00  0.00    +0.007 C 
ATOM     35  C   UNL     1       6.242   3.211   2.773  0.00  0.00    +0.029 C 
ENDBRANCH  24  26
BRANCH  21  36
ATOM     36  C   UNL     1       3.686  -0.770   4.265  0.00  0.00    +0.113 C 
BRANCH  36  37
ATOM     37  C   UNL     1       4.338  -2.131   4.010  0.00  0.00    +0.000 C 
ATOM     38  C   UNL     1       5.776  -1.926   3.530  0.00  0.00    +0.009 C 
ATOM     39  C   UNL     1       4.343  -2.945   5.306  0.00  0.00    +0.009 C 
ENDBRANCH  36  37
ENDBRANCH  21  36
ENDBRANCH   1  21
TORSDOF 6
