REMARK  Name = ZINC39140989
REMARK  6 active torsions:
REMARK  status: ('A' for Active; 'I' for Inactive)
REMARK    1  A    between atoms: C_1  and  C_2
REMARK    2  A    between atoms: C_3  and  C_26
REMARK    3  A    between atoms: C_4  and  C_16
REMARK    4  A    between atoms: C_21  and  C_22
REMARK    5  A    between atoms: C_26  and  O_28
REMARK    6  A    between atoms: O_28  and  C_29
REMARK                            x       y       z     vdW  Elec       q    Type
REMARK                         _______ _______ _______ _____ _____    ______ ____
ROOT
ATOM      1  C   UNL     1      -0.018   1.503   0.010  0.00  0.00    +0.061 C 
ATOM      2  C   UNL     1       0.002  -0.004   0.002  0.00  0.00    +0.016 C 
ATOM      3  C   UNL     1      -1.156  -0.678   0.004  0.00  0.00    +0.062 C 
ATOM      4  C   UNL     1      -1.237  -2.179   0.017  0.00  0.00    +0.077 C 
ATOM      5  C   UNL     1       0.060  -2.784  -0.526  0.00  0.00    +0.148 C 
ATOM      6  C   UNL     1       1.184  -2.017   0.151  0.00  0.00    +0.106 C 
ATOM      7  N   UNL     1       2.054  -2.672   0.862  0.00  0.00    -0.151 NA
ATOM      8  C   UNL     1       1.976  -3.997   1.038  0.00  0.00    +0.331 C 
ATOM      9  O   UNL     1       2.850  -4.533   1.694  0.00  0.00    -0.250 OA
ATOM     10  N   UNL     1       1.004  -4.773   0.543  0.00  0.00    -0.238 N 
ATOM     11  C   UNL     1       0.011  -4.275  -0.243  0.00  0.00    +0.231 C 
ATOM     12  O   UNL     1      -0.871  -4.977  -0.691  0.00  0.00    -0.275 OA
ATOM     13  N   UNL     1       1.211  -0.665  -0.013  0.00  0.00    -0.307 N 
ATOM     14  H   UNL     1       1.009  -5.722   0.747  0.00  0.00    +0.159 HD
ATOM     15  H   UNL     1       2.047  -0.187  -0.132  0.00  0.00    +0.153 HD
ENDROOT
BRANCH   4  16
ATOM     16  C   UNL     1      -2.390  -2.624  -0.844  0.00  0.00    -0.027 A 
ATOM     17  C   UNL     1      -2.414  -2.302  -2.188  0.00  0.00    +0.005 A 
ATOM     18  C   UNL     1      -3.472  -2.711  -2.978  0.00  0.00    +0.000 A 
ATOM     19  C   UNL     1      -4.507  -3.441  -2.424  0.00  0.00    +0.001 A 
ATOM     20  C   UNL     1      -4.483  -3.763  -1.080  0.00  0.00    +0.012 A 
ATOM     21  C   UNL     1      -3.423  -3.358  -0.291  0.00  0.00    +0.059 A 
BRANCH  21  22
ATOM     22  C   UNL     1      -3.394  -3.714   1.173  0.00  0.00    +0.418 C 
ATOM     23  F   UNL     1      -4.537  -4.453   1.496  0.00  0.00    -0.166 F 
ATOM     24  F   UNL     1      -2.253  -4.476   1.446  0.00  0.00    -0.166 F 
ATOM     25  F   UNL     1      -3.365  -2.542   1.937  0.00  0.00    -0.166 F 
ENDBRANCH  21  22
ENDBRANCH   4  16
BRANCH   3  26
ATOM     26  C   UNL     1      -2.363   0.060  -0.007  0.00  0.00    +0.337 C 
ATOM     27  O   UNL     1      -2.333   1.276  -0.017  0.00  0.00    -0.245 OA
BRANCH  26  28
ATOM     28  O   UNL     1      -3.549  -0.586  -0.005  0.00  0.00    -0.465 OA
ATOM     29  C   UNL     1      -4.727   0.223  -0.016  0.00  0.00    +0.280 C 
ENDBRANCH  26  28
ENDBRANCH   3  26
TORSDOF 4
