REMARK  Name = ZINC00117224
REMARK  5 active torsions:
REMARK  status: ('A' for Active; 'I' for Inactive)
REMARK    1  A    between atoms: C_9  and  N_10
REMARK    2  A    between atoms: N_10  and  N_11
REMARK    3  A    between atoms: N_11  and  C_12
REMARK    4  A    between atoms: C_13  and  C_14
REMARK    5  A    between atoms: C_13  and  C_16
REMARK                            x       y       z     vdW  Elec       q    Type
REMARK                         _______ _______ _______ _____ _____    ______ ____
ROOT
ATOM      1  N   UNL     1      -2.304  -0.697   0.019  0.00  0.00    -0.250 N 
ATOM      2  H   UNL     1      -2.591   0.230   0.027  0.00  0.00    +0.171 HD
ENDROOT
BRANCH   1  11
ATOM      3  C   UNL     1       2.244   0.798  -0.015  0.00  0.00    +0.036 A 
ATOM      4  C   UNL     1       1.741   2.048  -0.004  0.00  0.00    +0.048 A 
ATOM      5  S   UNL     1      -0.022   1.768   0.012  0.00  0.00    -0.092 S 
ATOM      6  C   UNL     1       0.002  -0.004   0.002  0.00  0.00    +0.079 A 
ATOM      7  C   UNL     1       1.380  -0.311  -0.013  0.00  0.00    +0.083 A 
ATOM      8  N   UNL     1       1.685  -1.632  -0.023  0.00  0.00    -0.235 NA
ATOM      9  C   UNL     1       0.751  -2.547  -0.020  0.00  0.00    +0.224 A 
ATOM     10  N   UNL     1      -0.541  -2.273  -0.006  0.00  0.00    -0.218 NA
ATOM     11  C   UNL     1      -0.954  -1.005   0.005  0.00  0.00    +0.152 A 
ENDBRANCH   1  11
BRANCH   1  12
ATOM     12  N   UNL     1      -3.257  -1.724   0.023  0.00  0.00    -0.271 N 
ATOM     13  H   UNL     1      -2.971  -2.651   0.015  0.00  0.00    +0.169 HD
BRANCH  12  14
ATOM     14  C   UNL     1      -4.582  -1.423   0.036  0.00  0.00    +0.117 C 
ATOM     15  C   UNL     1      -5.519  -2.433   0.040  0.00  0.00    +0.143 C 
BRANCH  15  16
ATOM     16  C   UNL     1      -6.915  -2.115   0.054  0.00  0.00    +0.112 C 
ATOM     17  N   UNL     1      -8.022  -1.862   0.066  0.00  0.00    -0.190 NA
ENDBRANCH  15  16
BRANCH  15  18
ATOM     18  C   UNL     1      -5.096  -3.801   0.028  0.00  0.00    +0.112 C 
ATOM     19  N   UNL     1      -4.761  -4.886   0.019  0.00  0.00    -0.190 NA
ENDBRANCH  15  18
ENDBRANCH  12  14
ENDBRANCH   1  12
TORSDOF 5
