REMARK  Name = ZINC14546191
REMARK  6 active torsions:
REMARK  status: ('A' for Active; 'I' for Inactive)
REMARK    1  A    between atoms: C_1  and  N_2
REMARK    2  A    between atoms: N_2  and  C_3
REMARK    3  A    between atoms: C_9  and  C_11
REMARK    4  A    between atoms: C_18  and  C_27
REMARK    5  A    between atoms: C_32  and  O_33
REMARK    6  A    between atoms: O_33  and  C_34
REMARK                            x       y       z     vdW  Elec       q    Type
REMARK                         _______ _______ _______ _____ _____    ______ ____
ROOT
ATOM      1  C   UNL     1      -1.016  -4.710  -1.373  0.00  0.00    +0.058 A 
ATOM      2  C   UNL     1      -1.059  -6.102  -1.452  0.00  0.00    +0.015 A 
ATOM      3  C   UNL     1      -0.291  -6.857  -0.594  0.00  0.00    +0.001 A 
ATOM      4  C   UNL     1       0.519  -6.239   0.342  0.00  0.00    +0.006 A 
ATOM      5  C   UNL     1       0.578  -4.857   0.434  0.00  0.00    -0.019 A 
ATOM      6  C   UNL     1      -0.191  -4.084  -0.419  0.00  0.00    +0.044 A 
ATOM      7  N   UNL     1      -0.182  -2.699  -0.375  0.00  0.00    -0.336 N 
ATOM      8  C   UNL     1       1.075  -2.170   0.155  0.00  0.00    +0.108 C 
ATOM      9  C   UNL     1       1.310  -2.729   1.561  0.00  0.00    +0.029 C 
ATOM     10  C   UNL     1       1.488  -4.259   1.467  0.00  0.00    +0.049 C 
ATOM     11  C   UNL     1       2.935  -4.438   1.066  0.00  0.00    -0.023 C 
ATOM     12  C   UNL     1       3.628  -3.366   1.358  0.00  0.00    -0.030 C 
ATOM     13  C   UNL     1       2.742  -2.319   2.004  0.00  0.00    +0.033 C 
ATOM     14  H   UNL     1      -0.971  -2.349   0.148  0.00  0.00    +0.147 HD
ENDROOT
BRANCH   8  15
ATOM     15  C   UNL     1       1.001  -0.666   0.219  0.00  0.00    +0.015 A 
ATOM     16  C   UNL     1       0.805  -0.034   1.432  0.00  0.00    +0.009 A 
ATOM     17  C   UNL     1       0.736   1.346   1.490  0.00  0.00    +0.001 A 
ATOM     18  C   UNL     1       0.863   2.096   0.336  0.00  0.00    +0.004 A 
ATOM     19  C   UNL     1       1.059   1.469  -0.879  0.00  0.00    +0.046 A 
ATOM     20  C   UNL     1       1.128   0.085  -0.941  0.00  0.00    +0.125 A 
BRANCH  20  21
ATOM     21  O   UNL     1       1.321  -0.535  -2.135  0.00  0.00    -0.495 OA
ATOM     22  C   UNL     1       1.444   0.302  -3.287  0.00  0.00    +0.277 C 
ENDBRANCH  20  21
ENDBRANCH   8  15
BRANCH   1  25
ATOM     23  C   UNL     1      -1.000  -5.234  -4.143  0.00  0.00    +0.132 C 
ATOM     24  N   UNL     1      -1.787  -4.116  -3.616  0.00  0.00    -0.297 N 
ATOM     25  C   UNL     1      -1.836  -3.894  -2.288  0.00  0.00    +0.248 C 
ATOM     26  O   UNL     1      -2.556  -3.021  -1.843  0.00  0.00    -0.270 OA
BRANCH  24  27
ATOM     27  C   UNL     1      -2.520  -3.239  -4.533  0.00  0.00    +0.076 C 
ATOM     28  C   UNL     1      -3.536  -4.065  -5.325  0.00  0.00    +0.022 C 
ATOM     29  C   UNL     1      -4.301  -3.149  -6.282  0.00  0.00    +0.002 C 
ATOM     30  C   UNL     1      -3.318  -2.486  -7.249  0.00  0.00    +0.000 C 
ATOM     31  C   UNL     1      -2.302  -1.661  -6.457  0.00  0.00    +0.002 C 
ATOM     32  C   UNL     1      -1.537  -2.576  -5.500  0.00  0.00    +0.022 C 
ENDBRANCH  24  27
ENDBRANCH   1  25
TORSDOF 4
