REMARK  Name = ZINC15931995
REMARK  10 active torsions:
REMARK  status: ('A' for Active; 'I' for Inactive)
REMARK    1  A    between atoms: C_1  and  C_2
REMARK    2  A    between atoms: C_2  and  O_3
REMARK    3  A    between atoms: O_3  and  C_4
REMARK    4  A    between atoms: C_6  and  C_15
REMARK    5  A    between atoms: C_9  and  O_10
REMARK    6  A    between atoms: O_10  and  C_11
REMARK    7  A    between atoms: C_11  and  C_12
REMARK    8  A    between atoms: N_21  and  C_22
REMARK    9  A    between atoms: C_25  and  S_28
REMARK   10  A    between atoms: S_28  and  N_31
REMARK                            x       y       z     vdW  Elec       q    Type
REMARK                         _______ _______ _______ _____ _____    ______ ____
ROOT
ATOM      1  C   UNL     1       3.689  -0.683  -0.038  0.00  0.00    +0.028 C 
ATOM      2  C   UNL     1       3.710  -2.037   0.056  0.00  0.00    +0.078 C 
ATOM      3  C   UNL     1       4.865  -2.951   0.153  0.00  0.00    +0.256 C 
ATOM      4  O   UNL     1       6.008  -2.533   0.158  0.00  0.00    -0.269 OA
ATOM      5  N   UNL     1       4.601  -4.244   0.238  0.00  0.00    -0.260 N 
ATOM      6  C   UNL     1       3.300  -4.697   0.224  0.00  0.00    +0.166 C 
ATOM      7  N   UNL     1       2.866  -5.936   0.294  0.00  0.00    -0.226 NA
ATOM      8  S   UNL     1       2.348  -3.193   0.087  0.00  0.00    -0.049 S 
ATOM      9  H   UNL     1       5.330  -4.879   0.307  0.00  0.00    +0.157 HD
ENDROOT
BRANCH   1  12
ATOM     10  C   UNL     1       1.121   2.034  -0.343  0.00  0.00    +0.164 A 
ATOM     11  C   UNL     1       2.326   1.361  -0.414  0.00  0.00    +0.057 A 
ATOM     12  C   UNL     1       2.412   0.038   0.035  0.00  0.00    -0.019 A 
ATOM     13  C   UNL     1       1.277  -0.596   0.555  0.00  0.00    +0.032 A 
ATOM     14  C   UNL     1       0.079   0.084   0.623  0.00  0.00    +0.087 A 
ATOM     15  C   UNL     1      -0.004   1.397   0.176  0.00  0.00    +0.182 A 
ATOM     16 CL   UNL     1      -1.328  -0.703   1.267  0.00  0.00    -0.080 Cl
BRANCH  10  17
ATOM     17  O   UNL     1       1.034   3.319  -0.779  0.00  0.00    -0.489 OA
BRANCH  17  19
ATOM     18  C   UNL     1       1.936   5.347  -1.736  0.00  0.00    +0.048 C 
ATOM     19  C   UNL     1       2.227   3.910  -1.298  0.00  0.00    +0.226 C 
ENDBRANCH  17  19
ENDBRANCH  10  17
BRANCH  15  20
ATOM     20  O   UNL     1      -1.189   2.060   0.239  0.00  0.00    -0.472 OA
BRANCH  20  21
ATOM     21  C   UNL     1      -1.459   2.792   1.436  0.00  0.00    +0.347 C 
BRANCH  21  22
ATOM     22  C   UNL     1      -2.776   3.441   1.327  0.00  0.00    +0.104 C 
ATOM     23  N   UNL     1      -3.792   3.942   1.243  0.00  0.00    -0.193 NA
ENDBRANCH  21  22
ENDBRANCH  20  21
ENDBRANCH  15  20
ENDBRANCH   1  12
BRANCH   7  24
ATOM     24  C   UNL     1       3.757  -6.969   0.396  0.00  0.00    +0.067 A 
ATOM     25  C   UNL     1       4.889  -7.003  -0.422  0.00  0.00    +0.030 A 
ATOM     26  C   UNL     1       5.786  -8.044  -0.309  0.00  0.00    +0.030 A 
ATOM     27  C   UNL     1       5.562  -9.059   0.604  0.00  0.00    +0.105 A 
ATOM     28  C   UNL     1       4.440  -9.035   1.414  0.00  0.00    +0.030 A 
ATOM     29  C   UNL     1       3.537  -7.997   1.316  0.00  0.00    +0.030 A 
BRANCH  27  30
ATOM     30  S   UNL     1       6.710 -10.389   0.737  0.00  0.00    +0.056 S 
ATOM     31  O   UNL     1       7.955  -9.901   0.255  0.00  0.00    -0.153 OA
ATOM     32  O   UNL     1       6.558 -10.929   2.042  0.00  0.00    -0.153 OA
BRANCH  30  33
ATOM     33  N   UNL     1       6.221 -11.566  -0.321  0.00  0.00    -0.204 NA
ATOM     34  H   UNL     1       5.428 -11.431  -0.863  0.00  0.00    +0.144 HD
ATOM     35  H   UNL     1       6.728 -12.389  -0.399  0.00  0.00    +0.144 HD
ENDBRANCH  30  33
ENDBRANCH  27  30
ENDBRANCH   7  24
TORSDOF 9
