REMARK  Name = ZINC37400976
REMARK  15 active torsions:
REMARK  status: ('A' for Active; 'I' for Inactive)
REMARK    1  A    between atoms: C_1  and  C_2
REMARK    2  A    between atoms: C_2  and  C_3
REMARK    3  A    between atoms: C_3  and  C_5
REMARK    4  A    between atoms: C_3  and  N_6
REMARK    5  A    between atoms: N_6  and  C_7
REMARK    6  A    between atoms: C_7  and  C_8
REMARK    7  A    between atoms: C_12  and  O_14
REMARK    8  A    between atoms: O_14  and  S_15
REMARK    9  A    between atoms: S_15  and  C_18
REMARK   10  A    between atoms: C_21  and  N_24
REMARK   11  A    between atoms: C_25  and  C_27
REMARK   12  A    between atoms: N_30  and  C_31
REMARK   13  A    between atoms: C_31  and  C_32
REMARK   14  A    between atoms: C_31  and  C_33
REMARK   15  A    between atoms: C_31  and  C_34
REMARK                            x       y       z     vdW  Elec       q    Type
REMARK                         _______ _______ _______ _____ _____    ______ ____
ROOT
ATOM      1  C   UNL     1       1.264  -0.673  -4.358  0.00  0.00    -0.027 A 
ATOM      2  C   UNL     1       0.789  -1.113  -5.580  0.00  0.00    +0.005 A 
ATOM      3  C   UNL     1       1.629  -1.784  -6.449  0.00  0.00    +0.004 A 
ATOM      4  C   UNL     1       2.945  -2.016  -6.099  0.00  0.00    +0.048 A 
ATOM      5  C   UNL     1       3.424  -1.576  -4.874  0.00  0.00    +0.157 A 
ATOM      6  C   UNL     1       2.580  -0.897  -4.005  0.00  0.00    +0.053 A 
ENDROOT
BRANCH   1   7
ATOM      7  C   UNL     1       0.345   0.058  -3.413  0.00  0.00    +0.144 C 
BRANCH   7   8
ATOM      8  N   UNL     1      -0.221  -0.891  -2.451  0.00  0.00    -0.279 N 
ATOM      9  C   UNL     1      -1.424  -1.450  -2.684  0.00  0.00    +0.303 C 
ATOM     10  O   UNL     1      -1.934  -2.168  -1.846  0.00  0.00    -0.253 OA
ATOM     11  N   UNL     1      -2.062  -1.215  -3.848  0.00  0.00    -0.294 N 
ATOM     12  H   UNL     1      -1.691  -0.586  -4.486  0.00  0.00    +0.151 HD
BRANCH  11  13
ATOM     13  C   UNL     1      -3.317  -1.909  -4.149  0.00  0.00    +0.028 C 
ATOM     14  C   UNL     1      -4.385  -1.493  -3.135  0.00  0.00    +0.031 C 
ATOM     15  C   UNL     1      -3.780  -1.537  -5.559  0.00  0.00    +0.031 C 
ATOM     16  C   UNL     1      -3.096  -3.421  -4.066  0.00  0.00    +0.031 C 
ENDBRANCH  11  13
BRANCH   8  17
ATOM     17  C   UNL     1       0.522  -1.231  -1.234  0.00  0.00    +0.075 C 
ATOM     18  C   UNL     1       0.844  -2.727  -1.235  0.00  0.00    +0.028 C 
BRANCH  17  20
ATOM     19  C   UNL     1      -0.605   0.612   0.021  0.00  0.00    +0.006 C 
ATOM     20  C   UNL     1      -0.327  -0.893  -0.007  0.00  0.00    +0.019 C 
ENDBRANCH  17  20
ENDBRANCH   8  17
ENDBRANCH   7   8
ENDBRANCH   1   7
BRANCH   5  21
ATOM     21  O   UNL     1       4.718  -1.803  -4.527  0.00  0.00    -0.342 OA
BRANCH  21  22
ATOM     22  S   UNL     1       5.659  -0.654  -4.859  0.00  0.00    +0.151 S 
ATOM     23  O   UNL     1       6.978  -1.133  -4.638  0.00  0.00    -0.131 OA
ATOM     24  O   UNL     1       5.238  -0.134  -6.113  0.00  0.00    -0.131 OA
BRANCH  22  25
ATOM     25  C   UNL     1       5.376   0.613  -3.668  0.00  0.00    +0.128 A 
ATOM     26  C   UNL     1       4.366   1.536  -3.869  0.00  0.00    +0.032 A 
ATOM     27  C   UNL     1       4.142   2.530  -2.937  0.00  0.00    +0.025 A 
ATOM     28  C   UNL     1       4.932   2.602  -1.797  0.00  0.00    +0.033 A 
ATOM     29  C   UNL     1       5.945   1.673  -1.598  0.00  0.00    +0.025 A 
ATOM     30  C   UNL     1       6.161   0.678  -2.531  0.00  0.00    +0.032 A 
BRANCH  28  31
ATOM     31  N   UNL     1       4.707   3.608  -0.851  0.00  0.00    -0.286 N 
ATOM     32  C   UNL     1       5.745   4.142  -0.175  0.00  0.00    +0.214 C 
ATOM     33  O   UNL     1       6.879   3.811  -0.447  0.00  0.00    -0.276 OA
ATOM     34  C   UNL     1       5.494   5.149   0.917  0.00  0.00    +0.109 C 
ATOM     35  H   UNL     1       3.805   3.922  -0.681  0.00  0.00    +0.155 HD
ENDBRANCH  28  31
ENDBRANCH  22  25
ENDBRANCH  21  22
ENDBRANCH   5  21
TORSDOF 9
