REMARK  Name = ZINC16556650
REMARK  12 active torsions:
REMARK  status: ('A' for Active; 'I' for Inactive)
REMARK    1  A    between atoms: C_1  and  C_2
REMARK    2  A    between atoms: C_2  and  N_66
REMARK    3  A    between atoms: C_3  and  C_4
REMARK    4  A    between atoms: C_3  and  N_66
REMARK    5  A    between atoms: C_4  and  C_6
REMARK    6  A    between atoms: N_13  and  C_21
REMARK    7  A    between atoms: C_14  and  C_15
REMARK    8  A    between atoms: C_22  and  C_23
REMARK    9  A    between atoms: C_22  and  N_66
REMARK   10  A    between atoms: N_25  and  C_26
REMARK   11  A    between atoms: C_29  and  N_32
REMARK   12  A    between atoms: C_33  and  C_35
REMARK                            x       y       z     vdW  Elec       q    Type
REMARK                         _______ _______ _______ _____ _____    ______ ____
ROOT
ATOM      1  N   UNL     1       1.148  10.065  -0.218  0.00  0.00    +0.390 N 
ATOM      2  H   UNL     1       2.067   9.956   0.227  0.00  0.00    -0.081 HD
ENDROOT
BRANCH   1   4
ATOM      3  C   UNL     1       0.399  10.199   2.106  0.00  0.00    -0.017 C 
ATOM      4  C   UNL     1       0.102   9.613   0.724  0.00  0.00    -0.081 C 
ENDBRANCH   1   4
BRANCH   1   5
ATOM      5  C   UNL     1       0.943  11.490  -0.554  0.00  0.00    +0.003 C 
BRANCH   5   6
ATOM      6  C   UNL     1       2.219  12.036  -1.139  0.00  0.00    +0.150 C 
ATOM      7  O   UNL     1       3.200  11.325  -1.230  0.00  0.00    -0.294 OA
BRANCH   6   8
ATOM      8  C   UNL     1       2.276  13.377  -1.583  0.00  0.00    +0.049 A 
ATOM      9  C   UNL     1       1.185  14.369  -1.546  0.00  0.00    +0.011 A 
ATOM     10  C   UNL     1      -0.136  14.330  -1.107  0.00  0.00    +0.011 A 
ATOM     11  C   UNL     1      -0.923  15.457  -1.209  0.00  0.00    +0.001 A 
ATOM     12  C   UNL     1      -0.403  16.626  -1.746  0.00  0.00    +0.002 A 
ATOM     13  C   UNL     1       0.902  16.678  -2.184  0.00  0.00    +0.026 A 
ATOM     14  C   UNL     1       1.713  15.551  -2.090  0.00  0.00    +0.050 A 
ATOM     15  N   UNL     1       3.027  15.311  -2.438  0.00  0.00    -0.342 N 
ATOM     16  C   UNL     1       3.375  14.029  -2.138  0.00  0.00    +0.060 A 
ATOM     17  C   UNL     1       3.925  16.300  -3.041  0.00  0.00    +0.149 C 
BRANCH  16  18
ATOM     18  C   UNL     1       4.702  13.426  -2.368  0.00  0.00    -0.001 A 
ATOM     19  C   UNL     1       5.302  12.651  -1.372  0.00  0.00    +0.010 A 
ATOM     20  C   UNL     1       6.540  12.085  -1.596  0.00  0.00    +0.001 A 
ATOM     21  C   UNL     1       7.192  12.293  -2.799  0.00  0.00    +0.000 A 
ATOM     22  C   UNL     1       6.606  13.064  -3.787  0.00  0.00    +0.001 A 
ATOM     23  C   UNL     1       5.366  13.631  -3.580  0.00  0.00    +0.010 A 
ENDBRANCH  16  18
ENDBRANCH   6   8
ENDBRANCH   5   6
ENDBRANCH   1   5
BRANCH   1  24
ATOM     24  C   UNL     1       1.109   9.245  -1.447  0.00  0.00    +0.019 C 
BRANCH  24  25
ATOM     25  C   UNL     1       1.537   7.841  -1.108  0.00  0.00    +0.201 C 
ATOM     26  O   UNL     1       1.824   7.553   0.035  0.00  0.00    -0.278 OA
ATOM     27  N   UNL     1       1.601   6.904  -2.075  0.00  0.00    -0.287 N 
ATOM     28  H   UNL     1       1.301   7.113  -2.974  0.00  0.00    +0.155 HD
BRANCH  27  29
ATOM     29  C   UNL     1       2.098   5.628  -1.782  0.00  0.00    +0.033 A 
ATOM     30  C   UNL     1       2.845   4.939  -2.729  0.00  0.00    +0.025 A 
ATOM     31  C   UNL     1       3.336   3.682  -2.440  0.00  0.00    +0.025 A 
ATOM     32  C   UNL     1       3.084   3.105  -1.203  0.00  0.00    +0.033 A 
ATOM     33  C   UNL     1       2.332   3.791  -0.257  0.00  0.00    +0.025 A 
ATOM     34  C   UNL     1       1.846   5.051  -0.544  0.00  0.00    +0.025 A 
BRANCH  32  35
ATOM     35  N   UNL     1       3.582   1.829  -0.909  0.00  0.00    -0.286 N 
ATOM     36  C   UNL     1       3.999   1.539   0.339  0.00  0.00    +0.214 C 
ATOM     37  O   UNL     1       4.021   2.405   1.188  0.00  0.00    -0.276 OA
ATOM     38  C   UNL     1       4.443   0.140   0.679  0.00  0.00    +0.109 C 
ATOM     39  H   UNL     1       3.627   1.155  -1.605  0.00  0.00    +0.155 HD
ENDBRANCH  32  35
ENDBRANCH  27  29
ENDBRANCH  24  25
ENDBRANCH   1  24
TORSDOF 9
