REMARK  Name = ZINC58993751
REMARK  6 active torsions:
REMARK  status: ('A' for Active; 'I' for Inactive)
REMARK    1  A    between atoms: C_10  and  N_11
REMARK    2  A    between atoms: C_12  and  C_14
REMARK    3  A    between atoms: C_14  and  S_15
REMARK    4  A    between atoms: S_15  and  C_16
REMARK    5  A    between atoms: N_21  and  N_22
REMARK    6  A    between atoms: C_23  and  C_24
REMARK                            x       y       z     vdW  Elec       q    Type
REMARK                         _______ _______ _______ _____ _____    ______ ____
ROOT
ATOM      1  C   UNL     1      10.142   0.113   0.363  0.00  0.00    +0.211 A 
ATOM      2  N   UNL     1      11.411  -0.300   0.453  0.00  0.00    -0.186 NA
ATOM      3  C   UNL     1      12.212   0.742   0.523  0.00  0.00    +0.232 A 
ATOM      4  N   UNL     1      11.452   1.856   0.477  0.00  0.00    -0.245 N 
ATOM      5  N   UNL     1      10.120   1.425   0.369  0.00  0.00    -0.144 NA
ATOM      6  N   UNL     1      13.591   0.702   0.625  0.00  0.00    -0.205 N 
ATOM      7  H   UNL     1      14.098   1.527   0.672  0.00  0.00    +0.177 HD
ATOM      8  H   UNL     1      11.764   2.774   0.510  0.00  0.00    +0.192 HD
ENDROOT
BRANCH   6   9
ATOM      9  N   UNL     1      14.255  -0.531   0.663  0.00  0.00    -0.188 NA
ATOM     10  C   UNL     1      15.549  -0.569   0.759  0.00  0.00    +0.138 C 
BRANCH  10  11
ATOM     11  C   UNL     1      16.248  -1.867   0.798  0.00  0.00    -0.004 A 
ATOM     12  C   UNL     1      15.521  -3.058   0.726  0.00  0.00    +0.009 A 
ATOM     13  C   UNL     1      16.181  -4.268   0.764  0.00  0.00    +0.002 A 
ATOM     14  C   UNL     1      17.560  -4.306   0.872  0.00  0.00    +0.015 A 
ATOM     15  C   UNL     1      18.287  -3.130   0.944  0.00  0.00    +0.018 A 
ATOM     16  C   UNL     1      17.640  -1.911   0.902  0.00  0.00    +0.024 A 
ATOM     17 BR   UNL     1      20.171  -3.193   1.092  0.00  0.00    -0.050 Br
ENDBRANCH  10  11
ENDBRANCH   6   9
BRANCH   1  18
ATOM     18  S   UNL     1       8.730  -0.934   0.247  0.00  0.00    -0.075 S 
BRANCH  18  19
ATOM     19  C   UNL     1       7.334   0.221   0.146  0.00  0.00    +0.173 C 
BRANCH  19  21
ATOM     20  N   UNL     1       4.871   0.098  -0.045  0.00  0.00    -0.284 N 
ATOM     21  C   UNL     1       6.047  -0.555   0.042  0.00  0.00    +0.228 C 
ATOM     22  O   UNL     1       6.068  -1.768   0.036  0.00  0.00    -0.275 OA
ATOM     23  H   UNL     1       4.858   1.065  -0.121  0.00  0.00    +0.155 HD
BRANCH  20  33
ATOM     24  C   UNL     1       0.203   0.945  -1.767  0.00  0.00    +0.001 A 
ATOM     25  C   UNL     1       1.389   1.676  -1.797  0.00  0.00    +0.001 A 
ATOM     26  C   UNL     1       2.529   1.185  -1.236  0.00  0.00    +0.010 A 
ATOM     27  C   UNL     1       2.511  -0.076  -0.618  0.00  0.00    +0.003 A 
ATOM     28  C   UNL     1       1.306  -0.819  -0.587  0.00  0.00    -0.016 A 
ATOM     29  C   UNL     1       0.149  -0.280  -1.177  0.00  0.00    +0.008 A 
ATOM     30  C   UNL     1       1.286  -2.080   0.032  0.00  0.00    +0.008 A 
ATOM     31  C   UNL     1       2.422  -2.578   0.596  0.00  0.00    +0.002 A 
ATOM     32  C   UNL     1       3.612  -1.857   0.572  0.00  0.00    +0.024 A 
ATOM     33  C   UNL     1       3.672  -0.617  -0.026  0.00  0.00    +0.041 A 
ENDBRANCH  20  33
ENDBRANCH  19  21
ENDBRANCH  18  19
ENDBRANCH   1  18
TORSDOF 6
