REMARK  Name = ZINC50641025
REMARK  6 active torsions:
REMARK  status: ('A' for Active; 'I' for Inactive)
REMARK    1  A    between atoms: C_1  and  C_2
REMARK    2  A    between atoms: C_8  and  N_10
REMARK    3  A    between atoms: N_10  and  S_11
REMARK    4  A    between atoms: S_11  and  C_14
REMARK    5  A    between atoms: C_17  and  N_23
REMARK    6  A    between atoms: C_19  and  N_20
REMARK                            x       y       z     vdW  Elec       q    Type
REMARK                         _______ _______ _______ _____ _____    ______ ____
ROOT
ATOM      1  S   UNL     1       2.895   0.561   2.696  0.00  0.00    +0.061 S 
ATOM      2  O   UNL     1       4.181   1.127   2.491  0.00  0.00    -0.153 OA
ATOM      3  O   UNL     1       1.834   1.281   3.309  0.00  0.00    -0.153 OA
ENDROOT
BRANCH   1   4
ATOM      4  C   UNL     1       3.134  -0.897   3.657  0.00  0.00    +0.135 A 
ATOM      5  C   UNL     1       2.388  -1.098   4.804  0.00  0.00    +0.032 A 
ATOM      6  C   UNL     1       2.572  -2.240   5.558  0.00  0.00    +0.025 A 
ATOM      7  C   UNL     1       3.509  -3.187   5.164  0.00  0.00    +0.027 A 
ATOM      8  C   UNL     1       4.257  -2.982   4.012  0.00  0.00    +0.057 A 
ATOM      9  C   UNL     1       4.064  -1.840   3.259  0.00  0.00    +0.154 A 
BRANCH   9  10
ATOM     10  N   UNL     1       4.856  -1.624   2.028  0.00  0.00    +0.058 N 
ATOM     11  O   UNL     1       5.758  -2.379   1.749  0.00  0.00    -0.126 OA
ATOM     12  O   UNL     1       4.601  -0.692   1.301  0.00  0.00    -0.126 OA
ENDBRANCH   9  10
BRANCH   7  13
ATOM     13  N   UNL     1       3.699  -4.342   5.926  0.00  0.00    -0.358 N 
ATOM     14  H   UNL     1       3.176  -4.484   6.730  0.00  0.00    +0.142 HD
ATOM     15  H   UNL     1       4.354  -5.003   5.650  0.00  0.00    +0.142 HD
ENDBRANCH   7  13
ENDBRANCH   1   4
BRANCH   1  16
ATOM     16  N   UNL     1       2.345   0.082   1.209  0.00  0.00    -0.187 NA
ATOM     17  H   UNL     1       2.880   0.250   0.418  0.00  0.00    +0.148 HD
BRANCH  16  24
ATOM     18  C   UNL     1       0.130   1.385  -0.128  0.00  0.00    +0.009 C 
ATOM     19  C   UNL     1       0.349  -0.128  -0.188  0.00  0.00    +0.005 C 
ATOM     20  C   UNL     1      -1.003  -0.834  -0.313  0.00  0.00    +0.005 C 
ATOM     21  C   UNL     1      -0.784  -2.347  -0.373  0.00  0.00    +0.000 C 
ATOM     22  C   UNL     1      -0.083  -2.812   0.904  0.00  0.00    +0.002 C 
ATOM     23  C   UNL     1       1.269  -2.107   1.029  0.00  0.00    +0.020 C 
ATOM     24  C   UNL     1       1.051  -0.594   1.089  0.00  0.00    +0.079 C 
ENDBRANCH  16  24
ENDBRANCH   1  16
TORSDOF 5
