REMARK  Name = ZINC12540133
REMARK  14 active torsions:
REMARK  status: ('A' for Active; 'I' for Inactive)
REMARK    1  A    between atoms: C_1  and  O_2
REMARK    2  A    between atoms: O_2  and  C_3
REMARK    3  A    between atoms: C_7  and  C_11
REMARK    4  A    between atoms: C_8  and  O_9
REMARK    5  A    between atoms: O_9  and  C_10
REMARK    6  A    between atoms: C_11  and  C_13
REMARK    7  A    between atoms: C_11  and  C_31
REMARK    8  A    between atoms: C_13  and  N_72
REMARK    9  A    between atoms: C_14  and  C_15
REMARK   10  A    between atoms: C_14  and  N_72
REMARK   11  A    between atoms: C_15  and  C_17
REMARK   12  A    between atoms: C_15  and  O_30
REMARK   13  A    between atoms: C_17  and  O_18
REMARK   14  A    between atoms: O_18  and  C_19
REMARK                            x       y       z     vdW  Elec       q    Type
REMARK                         _______ _______ _______ _____ _____    ______ ____
ROOT
ATOM      1  C   UNL     1      -6.300  -5.808   0.486  0.00  0.00    +0.038 C 
ENDROOT
BRANCH   1   2
ATOM      2  C   UNL     1      -7.300  -4.847   1.074  0.00  0.00    -0.017 A 
ATOM      3  C   UNL     1      -7.479  -4.579   2.377  0.00  0.00    +0.087 A 
ATOM      4  N   UNL     1      -8.476  -3.655   2.531  0.00  0.00    -0.360 N 
ATOM      5  H   UNL     1      -8.786  -3.304   3.381  0.00  0.00    +0.165 HD
ATOM      6  C   UNL     1      -8.976  -3.296   1.299  0.00  0.00    +0.047 A 
ATOM      7  C   UNL     1      -8.257  -4.022   0.332  0.00  0.00    +0.003 A 
ATOM      8  C   UNL     1      -8.547  -3.855  -1.023  0.00  0.00    +0.010 A 
ATOM      9  C   UNL     1      -9.528  -2.983  -1.404  0.00  0.00    +0.001 A 
ATOM     10  C   UNL     1     -10.237  -2.261  -0.455  0.00  0.00    +0.002 A 
ATOM     11  C   UNL     1      -9.972  -2.416   0.888  0.00  0.00    +0.026 A 
ENDBRANCH   1   2
BRANCH   1  16
ATOM     12  C   UNL     1      -7.113  -9.503   0.629  0.00  0.00    +0.162 A 
ATOM     13  C   UNL     1      -7.050  -9.742   1.992  0.00  0.00    +0.049 A 
ATOM     14  C   UNL     1      -6.746  -8.710   2.861  0.00  0.00    +0.004 A 
ATOM     15  C   UNL     1      -6.499  -7.441   2.373  0.00  0.00    +0.008 A 
ATOM     16  C   UNL     1      -6.565  -7.195   1.014  0.00  0.00    +0.004 A 
ATOM     17  C   UNL     1      -6.869  -8.224   0.138  0.00  0.00    +0.165 A 
BRANCH  12  19
ATOM     18  C   UNL     1      -7.651 -11.802   0.348  0.00  0.00    +0.277 C 
ATOM     19  O   UNL     1      -7.413 -10.516  -0.227  0.00  0.00    -0.491 OA
ENDBRANCH  12  19
BRANCH  17  20
ATOM     20  O   UNL     1      -6.930  -7.984  -1.200  0.00  0.00    -0.491 OA
ATOM     21  C   UNL     1      -5.721  -8.146  -1.944  0.00  0.00    +0.277 C 
ENDBRANCH  17  20
ENDBRANCH   1  16
BRANCH   1  22
ATOM     22  C   UNL     1      -4.886  -5.375   0.877  0.00  0.00    -0.069 C 
BRANCH  22  23
ATOM     23  N   UNL     1      -4.590  -4.070   0.255  0.00  0.00    +0.381 N 
ATOM     24  H   UNL     1      -5.271  -3.376   0.585  0.00  0.00    -0.086 HD
ATOM     25  H   UNL     1      -4.659  -4.158  -0.765  0.00  0.00    -0.086 HD
BRANCH  23  26
ATOM     26  C   UNL     1      -3.230  -3.627   0.616  0.00  0.00    -0.049 C 
BRANCH  26  27
ATOM     27  C   UNL     1      -2.953  -2.274  -0.042  0.00  0.00    +0.123 C 
BRANCH  27  28
ATOM     28  O   UNL     1      -3.056  -2.404  -1.461  0.00  0.00    -0.391 OA
ATOM     29  H   UNL     1      -2.435  -3.040  -1.844  0.00  0.00    +0.210 HD
ENDBRANCH  27  28
BRANCH  27  30
ATOM     30  C   UNL     1      -1.544  -1.807   0.327  0.00  0.00    +0.190 C 
BRANCH  30  31
ATOM     31  O   UNL     1      -1.327  -0.492  -0.190  0.00  0.00    -0.369 OA
BRANCH  31  32
ATOM     32  C   UNL     1      -0.005   0.006   0.024  0.00  0.00    +0.149 C 
ATOM     33  C   UNL     1       0.059   0.698   1.384  0.00  0.00    +0.037 C 
ATOM     34  C   UNL     1       1.412   1.409   1.502  0.00  0.00    +0.007 C 
ATOM     35  C   UNL     1       1.419   2.594   0.539  0.00  0.00    +0.035 C 
ATOM     36  C   UNL     1       1.008   2.156  -0.843  0.00  0.00    -0.042 A 
ATOM     37  C   UNL     1       0.347   0.971  -1.078  0.00  0.00    -0.016 A 
ATOM     38  C   UNL     1      -0.017   0.632  -2.375  0.00  0.00    +0.006 A 
ATOM     39  C   UNL     1       0.281   1.471  -3.428  0.00  0.00    +0.000 A 
ATOM     40  C   UNL     1       0.948   2.659  -3.193  0.00  0.00    +0.000 A 
ATOM     41  C   UNL     1       1.309   2.998  -1.905  0.00  0.00    +0.004 A 
ENDBRANCH  31  32
ENDBRANCH  30  31
ENDBRANCH  27  30
ENDBRANCH  26  27
ENDBRANCH  23  26
ENDBRANCH  22  23
ENDBRANCH   1  22
TORSDOF 12
