REMARK  Name = ZINC36714573
REMARK  8 active torsions:
REMARK  status: ('A' for Active; 'I' for Inactive)
REMARK    1  A    between atoms: C_1  and  C_2
REMARK    2  A    between atoms: C_5  and  N_8
REMARK    3  A    between atoms: C_9  and  C_30
REMARK    4  A    between atoms: C_10  and  C_13
REMARK    5  A    between atoms: C_13  and  N_15
REMARK    6  A    between atoms: C_18  and  C_21
REMARK    7  A    between atoms: C_21  and  N_22
REMARK    8  A    between atoms: C_26  and  C_29
REMARK                            x       y       z     vdW  Elec       q    Type
REMARK                         _______ _______ _______ _____ _____    ______ ____
ROOT
ATOM      1  C   UNL     1       0.968  -7.471   1.197  0.00  0.00    +0.273 C 
ATOM      2  O   UNL     1       1.663  -7.356   2.192  0.00  0.00    -0.268 OA
ENDROOT
BRANCH   1   3
ATOM      3  N   UNL     1       0.663  -8.685   0.732  0.00  0.00    -0.152 NA
ATOM      4  C   UNL     1       1.118  -9.771   1.354  0.00  0.00    +0.163 A 
ATOM      5  N   UNL     1       0.920 -11.078   1.030  0.00  0.00    -0.341 N 
ATOM      6  C   UNL     1       1.482 -12.040   1.810  0.00  0.00    +0.008 A 
ATOM      7  C   UNL     1       2.204 -11.633   2.860  0.00  0.00    +0.067 A 
ATOM      8  S   UNL     1       2.083  -9.859   2.728  0.00  0.00    -0.061 S 
ATOM      9  H   UNL     1       0.386 -11.319   0.256  0.00  0.00    +0.167 HD
BRANCH   6  10
ATOM     10  C   UNL     1       1.300 -13.504   1.504  0.00  0.00    -0.024 C 
BRANCH  10  11
ATOM     11  N   UNL     1      -0.116 -13.863   1.656  0.00  0.00    +0.384 N 
ATOM     12  C   UNL     1      -0.514 -13.698   3.059  0.00  0.00    -0.078 C 
ATOM     13  C   UNL     1      -2.008 -13.993   3.208  0.00  0.00    -0.018 C 
ATOM     14  C   UNL     1      -2.286 -15.432   2.762  0.00  0.00    -0.001 C 
ATOM     15  C   UNL     1      -1.799 -15.612   1.321  0.00  0.00    -0.031 C 
ATOM     16  C   UNL     1      -0.313 -15.258   1.242  0.00  0.00    -0.075 C 
ATOM     17  C   UNL     1      -2.002 -17.067   0.892  0.00  0.00    +0.005 C 
ATOM     18  H   UNL     1      -0.679 -13.259   1.076  0.00  0.00    -0.081 HD
ENDBRANCH  10  11
ENDBRANCH   6  10
ENDBRANCH   1   3
BRANCH   1  21
ATOM     19  N   UNL     1       0.058  -4.172  -0.021  0.00  0.00    -0.227 N 
ATOM     20  C   UNL     1       0.695  -4.956   0.870  0.00  0.00    +0.159 A 
ATOM     21  C   UNL     1       0.463  -6.266   0.506  0.00  0.00    +0.088 A 
ATOM     22  C   UNL     1      -0.347  -6.241  -0.650  0.00  0.00    +0.148 A 
ATOM     23  N   UNL     1      -0.587  -4.994  -0.952  0.00  0.00    -0.174 NA
BRANCH  19  28
ATOM     24  C   UNL     1      -0.018   1.503   0.010  0.00  0.00    +0.044 C 
ATOM     25  C   UNL     1       0.002  -0.004   0.002  0.00  0.00    -0.050 A 
ATOM     26  C   UNL     1       0.006  -0.688  -1.200  0.00  0.00    +0.005 A 
ATOM     27  C   UNL     1       0.024  -2.068  -1.211  0.00  0.00    +0.028 A 
ATOM     28  C   UNL     1       0.040  -2.771  -0.013  0.00  0.00    +0.066 A 
ATOM     29  C   UNL     1       0.036  -2.082   1.192  0.00  0.00    +0.028 A 
ATOM     30  C   UNL     1       0.023  -0.700   1.196  0.00  0.00    +0.005 A 
ENDBRANCH  19  28
BRANCH  20  31
ATOM     31  C   UNL     1       1.512  -4.489   2.047  0.00  0.00    +0.435 C 
ATOM     32  F   UNL     1       0.684  -4.363   3.168  0.00  0.00    -0.164 F 
ATOM     33  F   UNL     1       2.520  -5.421   2.314  0.00  0.00    -0.164 F 
ATOM     34  F   UNL     1       2.089  -3.249   1.751  0.00  0.00    -0.164 F 
ENDBRANCH  20  31
ENDBRANCH   1  21
TORSDOF 6
