REMARK  Name = ZINC63338263
REMARK  5 active torsions:
REMARK  status: ('A' for Active; 'I' for Inactive)
REMARK    1  A    between atoms: C_1  and  C_2
REMARK    2  A    between atoms: N_10  and  C_14
REMARK    3  A    between atoms: C_14  and  C_15
REMARK    4  A    between atoms: N_17  and  C_18
REMARK    5  A    between atoms: C_18  and  C_22
REMARK                            x       y       z     vdW  Elec       q    Type
REMARK                         _______ _______ _______ _____ _____    ______ ____
ROOT
ATOM      1  C   UNL     1       0.905   1.540   4.360  0.00  0.00    +0.213 C 
ENDROOT
BRANCH   1  11
ATOM      2  C   UNL     1       0.033   1.594   0.014  0.00  0.00    +0.010 C 
ATOM      3  C   UNL     1       0.096   0.065  -0.015  0.00  0.00    +0.018 C 
ATOM      4  C   UNL     1      -1.325  -0.504  -0.030  0.00  0.00    +0.006 C 
ATOM      5  C   UNL     1      -1.261  -2.033  -0.037  0.00  0.00    +0.000 C 
ATOM      6  C   UNL     1      -0.540  -2.520   1.221  0.00  0.00    +0.003 C 
ATOM      7  C   UNL     1       0.884  -1.959   1.241  0.00  0.00    +0.035 C 
ATOM      8  C   UNL     1       0.834  -0.436   1.222  0.00  0.00    +0.115 C 
ATOM      9  C   UNL     1       0.175   0.087   2.478  0.00  0.00    +0.247 C 
ATOM     10  O   UNL     1      -0.959  -0.122   2.853  0.00  0.00    -0.273 OA
ATOM     11  N   UNL     1       1.114   0.835   3.093  0.00  0.00    -0.215 N 
ATOM     12  C   UNL     1       2.261   0.852   2.403  0.00  0.00    +0.310 C 
ATOM     13  O   UNL     1       3.254   1.458   2.756  0.00  0.00    -0.252 OA
ATOM     14  N   UNL     1       2.191   0.124   1.272  0.00  0.00    -0.285 N 
ATOM     15  H   UNL     1       2.897  -0.006   0.620  0.00  0.00    +0.151 HD
ENDBRANCH   1  11
BRANCH   1  16
ATOM     16  C   UNL     1       1.280   0.635   5.506  0.00  0.00    +0.232 C 
ATOM     17  O   UNL     1       1.681  -0.488   5.286  0.00  0.00    -0.274 OA
ATOM     18  N   UNL     1       1.168   1.074   6.776  0.00  0.00    -0.304 N 
ATOM     19  H   UNL     1       0.919   1.996   6.950  0.00  0.00    +0.150 HD
BRANCH  18  20
ATOM     20  C   UNL     1       1.422   0.160   7.892  0.00  0.00    +0.060 C 
ATOM     21  C   UNL     1       1.720   0.877   9.219  0.00  0.00    +0.030 C 
ATOM     22  C   UNL     1       3.200   0.865   8.803  0.00  0.00    +0.005 C 
ATOM     23  C   UNL     1       2.866  -0.365   7.942  0.00  0.00    +0.030 C 
BRANCH  20  24
ATOM     24  C   UNL     1       0.381  -0.923   8.009  0.00  0.00    -0.024 A 
ATOM     25  C   UNL     1       0.621  -2.028   8.805  0.00  0.00    +0.008 A 
ATOM     26  C   UNL     1      -0.333  -3.022   8.914  0.00  0.00    +0.038 A 
ATOM     27  C   UNL     1      -1.529  -2.912   8.225  0.00  0.00    +0.123 A 
ATOM     28  C   UNL     1      -1.768  -1.805   7.429  0.00  0.00    +0.038 A 
ATOM     29  C   UNL     1      -0.815  -0.809   7.326  0.00  0.00    +0.008 A 
ATOM     30  F   UNL     1      -2.462  -3.883   8.331  0.00  0.00    -0.205 F 
ENDBRANCH  20  24
ENDBRANCH  18  20
ENDBRANCH   1  16
TORSDOF 4
