REMARK  Name = ZINC20982377
REMARK  8 active torsions:
REMARK  status: ('A' for Active; 'I' for Inactive)
REMARK    1  A    between atoms: C_1  and  C_2
REMARK    2  A    between atoms: C_2  and  C_4
REMARK    3  A    between atoms: C_2  and  O_16
REMARK    4  A    between atoms: O_16  and  C_17
REMARK    5  A    between atoms: C_17  and  C_19
REMARK    6  A    between atoms: C_19  and  C_20
REMARK    7  A    between atoms: C_20  and  C_22
REMARK    8  A    between atoms: C_20  and  N_29
REMARK                            x       y       z     vdW  Elec       q    Type
REMARK                         _______ _______ _______ _____ _____    ______ ____
ROOT
ATOM      1  C   UNL     1      -3.414   0.349  -5.042  0.00  0.00    +0.310 C 
ATOM      2  O   UNL     1      -4.216   1.251  -4.987  0.00  0.00    -0.251 OA
ENDROOT
BRANCH   1   3
ATOM      3  O   UNL     1      -2.259   0.437  -4.364  0.00  0.00    -0.452 OA
BRANCH   3   5
ATOM      4  C   UNL     1      -1.341   2.691  -4.454  0.00  0.00    +0.062 C 
ATOM      5  C   UNL     1      -2.040   1.643  -3.586  0.00  0.00    +0.259 C 
BRANCH   5   6
ATOM      6  C   UNL     1      -1.177   1.322  -2.393  0.00  0.00    +0.260 C 
ATOM      7  O   UNL     1      -0.536   0.292  -2.368  0.00  0.00    -0.271 OA
ATOM      8  N   UNL     1      -1.117   2.178  -1.354  0.00  0.00    -0.268 N 
ATOM      9  C   UNL     1      -1.781   3.487  -1.426  0.00  0.00    +0.114 C 
ATOM     10  C   UNL     1      -0.809   4.539  -0.876  0.00  0.00    +0.024 C 
ATOM     11  C   UNL     1      -0.531   4.233   0.595  0.00  0.00    +0.038 C 
ATOM     12  C   UNL     1      -0.119   2.794   0.768  0.00  0.00    -0.026 A 
ATOM     13  C   UNL     1      -0.421   1.836  -0.187  0.00  0.00    +0.040 A 
ATOM     14  C   UNL     1      -0.031   0.515   0.006  0.00  0.00    +0.024 A 
ATOM     15  C   UNL     1       0.659   0.158   1.147  0.00  0.00    +0.002 A 
ATOM     16  C   UNL     1       0.961   1.115   2.098  0.00  0.00    +0.000 A 
ATOM     17  C   UNL     1       0.574   2.428   1.909  0.00  0.00    +0.005 A 
ENDBRANCH   5   6
ENDBRANCH   3   5
ENDBRANCH   1   3
BRANCH   1  18
ATOM     18  C   UNL     1      -3.710  -0.873  -5.872  0.00  0.00    +0.147 C 
BRANCH  18  19
ATOM     19  C   UNL     1      -5.080  -0.720  -6.535  0.00  0.00    +0.115 C 
BRANCH  19  20
ATOM     20  C   UNL     1      -5.324  -1.884  -7.461  0.00  0.00    -0.027 A 
ATOM     21  C   UNL     1      -4.257  -2.510  -8.079  0.00  0.00    +0.007 A 
ATOM     22  C   UNL     1      -4.479  -3.581  -8.923  0.00  0.00    +0.020 A 
ATOM     23  C   UNL     1      -5.770  -4.020  -9.159  0.00  0.00    +0.041 A 
ATOM     24  C   UNL     1      -6.837  -3.389  -8.544  0.00  0.00    +0.020 A 
ATOM     25  C   UNL     1      -6.614  -2.322  -7.696  0.00  0.00    +0.007 A 
ATOM     26 CL   UNL     1      -6.050  -5.360 -10.226  0.00  0.00    -0.084 Cl
ENDBRANCH  19  20
BRANCH  19  27
ATOM     27  N   UNL     1      -6.121  -0.689  -5.504  0.00  0.00    -0.292 N 
ATOM     28  C   UNL     1      -6.284  -1.743  -4.680  0.00  0.00    +0.298 C 
ATOM     29  O   UNL     1      -5.504  -2.675  -4.723  0.00  0.00    -0.253 OA
ATOM     30  N   UNL     1      -7.311  -1.764  -3.808  0.00  0.00    -0.313 N 
ATOM     31  H   UNL     1      -6.770   0.193  -5.403  0.00  0.00    +0.151 HD
ATOM     32  H   UNL     1      -7.444  -2.624  -3.135  0.00  0.00    +0.146 HD
ATOM     33  H   UNL     1      -8.017  -0.921  -3.769  0.00  0.00    +0.146 HD
ENDBRANCH  19  27
ENDBRANCH  18  19
ENDBRANCH   1  18
TORSDOF 7
