REMARK  Name = ZINC09464909
REMARK  13 active torsions:
REMARK  status: ('A' for Active; 'I' for Inactive)
REMARK    1  A    between atoms: C_1  and  C_2
REMARK    2  A    between atoms: C_2  and  N_65
REMARK    3  A    between atoms: C_3  and  C_4
REMARK    4  A    between atoms: C_3  and  N_65
REMARK    5  A    between atoms: C_5  and  C_6
REMARK    6  A    between atoms: C_5  and  N_65
REMARK    7  A    between atoms: C_6  and  C_7
REMARK    8  A    between atoms: C_7  and  N_8
REMARK    9  A    between atoms: C_9  and  C_29
REMARK   10  A    between atoms: C_11  and  C_16
REMARK   11  A    between atoms: C_12  and  O_15
REMARK   12  A    between atoms: C_16  and  C_18
REMARK   13  A    between atoms: C_25  and  C_28
REMARK                            x       y       z     vdW  Elec       q    Type
REMARK                         _______ _______ _______ _____ _____    ______ ____
ROOT
ATOM      1  N   UNL     1      -2.522  -2.591  -0.130  0.00  0.00    -0.284 N 
ATOM      2  C   UNL     1      -2.493  -1.126  -0.202  0.00  0.00    +0.144 C 
ATOM      3  C   UNL     1      -3.935  -0.675  -0.204  0.00  0.00    +0.071 C 
ATOM      4  C   UNL     1      -4.694  -1.794  -0.146  0.00  0.00    +0.188 C 
ATOM      5  C   UNL     1      -3.810  -2.978  -0.100  0.00  0.00    +0.282 C 
ATOM      6  O   UNL     1      -4.191  -4.131  -0.044  0.00  0.00    -0.267 OA
ENDROOT
BRANCH   2   7
ATOM      7  C   UNL     1      -1.776  -0.564   0.999  0.00  0.00    -0.022 A 
ATOM      8  C   UNL     1      -1.977  -1.124   2.247  0.00  0.00    +0.007 A 
ATOM      9  C   UNL     1      -1.315  -0.613   3.348  0.00  0.00    +0.020 A 
ATOM     10  C   UNL     1      -0.461   0.466   3.202  0.00  0.00    +0.041 A 
ATOM     11  C   UNL     1      -0.265   1.029   1.954  0.00  0.00    +0.020 A 
ATOM     12  C   UNL     1      -0.922   0.513   0.853  0.00  0.00    +0.007 A 
ATOM     13 CL   UNL     1       0.364   1.113   4.586  0.00  0.00    -0.084 Cl
ENDBRANCH   2   7
BRANCH   4  14
ATOM     14  O   UNL     1      -6.046  -1.825  -0.134  0.00  0.00    -0.502 OA
ATOM     15  H   UNL     1      -6.358  -2.774  -0.087  0.00  0.00    +0.292 HD
ENDBRANCH   4  14
BRANCH   3  16
ATOM     16  C   UNL     1      -4.419   0.708  -0.264  0.00  0.00    +0.195 C 
ATOM     17  O   UNL     1      -5.017   1.184   0.683  0.00  0.00    -0.287 OA
BRANCH  16  18
ATOM     18  C   UNL     1      -4.181   1.522  -1.472  0.00  0.00    +0.023 A 
ATOM     19  C   UNL     1      -3.522   0.970  -2.575  0.00  0.00    +0.015 A 
ATOM     20  C   UNL     1      -3.302   1.729  -3.699  0.00  0.00    +0.046 A 
ATOM     21  C   UNL     1      -3.729   3.058  -3.750  0.00  0.00    +0.124 A 
ATOM     22  C   UNL     1      -4.387   3.601  -2.650  0.00  0.00    -0.002 A 
ATOM     23  C   UNL     1      -4.608   2.853  -1.520  0.00  0.00    +0.019 A 
ATOM     24  C   UNL     1      -4.744   5.030  -3.008  0.00  0.00    +0.083 C 
ATOM     25  C   UNL     1      -4.549   5.034  -4.543  0.00  0.00    +0.175 C 
ATOM     26  O   UNL     1      -3.598   3.975  -4.745  0.00  0.00    -0.488 OA
ATOM     27  C   UNL     1      -3.978   6.373  -5.014  0.00  0.00    +0.052 C 
ENDBRANCH  16  18
ENDBRANCH   3  16
BRANCH   1  28
ATOM     28  C   UNL     1      -1.355  -3.477  -0.100  0.00  0.00    +0.107 C 
BRANCH  28  29
ATOM     29  C   UNL     1      -0.962  -3.851  -1.530  0.00  0.00    +0.000 C 
BRANCH  29  30
ATOM     30  C   UNL     1       0.257  -4.775  -1.499  0.00  0.00    -0.077 C 
BRANCH  30  31
ATOM     31  N   UNL     1       0.629  -5.115  -2.889  0.00  0.00    +0.379 N 
ATOM     32  H   UNL     1      -0.226  -5.296  -3.428  0.00  0.00    -0.082 HD
BRANCH  31  34
ATOM     33  C   UNL     1       1.531  -4.271  -5.000  0.00  0.00    -0.017 C 
ATOM     34  C   UNL     1       1.356  -3.986  -3.507  0.00  0.00    -0.082 C 
ENDBRANCH  31  34
BRANCH  31  35
ATOM     35  C   UNL     1       1.473  -6.328  -2.903  0.00  0.00    -0.082 C 
ATOM     36  C   UNL     1       0.581  -7.549  -2.671  0.00  0.00    -0.017 C 
ENDBRANCH  31  35
ENDBRANCH  30  31
ENDBRANCH  29  30
ENDBRANCH  28  29
ENDBRANCH   1  28
TORSDOF 10
