REMARK  Name = ZINC40734034
REMARK  9 active torsions:
REMARK  status: ('A' for Active; 'I' for Inactive)
REMARK    1  A    between atoms: C_1  and  O_2
REMARK    2  A    between atoms: O_2  and  C_3
REMARK    3  A    between atoms: C_5  and  C_20
REMARK    4  A    between atoms: C_8  and  O_9
REMARK    5  A    between atoms: O_9  and  C_10
REMARK    6  A    between atoms: C_10  and  C_11
REMARK    7  A    between atoms: C_20  and  N_21
REMARK    8  A    between atoms: N_21  and  C_22
REMARK    9  A    between atoms: C_22  and  C_23
REMARK                            x       y       z     vdW  Elec       q    Type
REMARK                         _______ _______ _______ _____ _____    ______ ____
ROOT
ATOM      1  C   UNL     1       0.606  -0.608  -1.056  0.00  0.00    +0.163 A 
ATOM      2  C   UNL     1       1.173   0.159  -2.062  0.00  0.00    +0.051 A 
ATOM      3  C   UNL     1       1.786  -0.455  -3.138  0.00  0.00    -0.060 A 
ATOM      4  C   UNL     1       1.836  -1.835  -3.214  0.00  0.00    +0.021 A 
ATOM      5  C   UNL     1       1.273  -2.606  -2.213  0.00  0.00    +0.063 A 
ATOM      6  C   UNL     1       0.662  -1.996  -1.129  0.00  0.00    +0.176 A 
ATOM      7 BR   UNL     1       1.342  -4.493  -2.321  0.00  0.00    -0.046 Br
ENDROOT
BRANCH   1   9
ATOM      8  C   UNL     1      -0.017   1.425   0.010  0.00  0.00    +0.277 C 
ATOM      9  O   UNL     1       0.002  -0.004   0.002  0.00  0.00    -0.491 OA
ENDBRANCH   1   9
BRANCH   6  10
ATOM     10  O   UNL     1       0.112  -2.752  -0.141  0.00  0.00    -0.482 OA
BRANCH  10  11
ATOM     11  C   UNL     1      -1.259  -3.125  -0.296  0.00  0.00    +0.269 C 
BRANCH  11  12
ATOM     12  C   UNL     1      -1.691  -3.954   0.885  0.00  0.00    +0.043 A 
ATOM     13  C   UNL     1      -1.548  -5.331   0.855  0.00  0.00    +0.131 A 
ATOM     14  C   UNL     1      -1.946  -6.092   1.941  0.00  0.00    +0.039 A 
ATOM     15  C   UNL     1      -2.485  -5.477   3.055  0.00  0.00    +0.004 A 
ATOM     16  C   UNL     1      -2.627  -4.102   3.086  0.00  0.00    +0.020 A 
ATOM     17  C   UNL     1      -2.225  -3.340   2.003  0.00  0.00    +0.050 A 
ATOM     18 CL   UNL     1      -2.397  -1.613   2.046  0.00  0.00    -0.083 Cl
ATOM     19  F   UNL     1      -1.022  -5.932  -0.235  0.00  0.00    -0.205 F 
ENDBRANCH  11  12
ENDBRANCH  10  11
ENDBRANCH   6  10
BRANCH   3  20
ATOM     20  C   UNL     1       2.401   0.380  -4.231  0.00  0.00    -0.046 C 
BRANCH  20  21
ATOM     21  N   UNL     1       3.806   0.659  -3.903  0.00  0.00    +0.384 N 
ATOM     22  H   UNL     1       3.854   1.160  -3.028  0.00  0.00    -0.085 HD
ATOM     23  H   UNL     1       4.311  -0.211  -3.820  0.00  0.00    -0.085 HD
BRANCH  21  24
ATOM     24  C   UNL     1       4.405   1.473  -4.968  0.00  0.00    -0.046 C 
BRANCH  24  25
ATOM     25  C   UNL     1       5.846   1.759  -4.631  0.00  0.00    -0.061 A 
ATOM     26  C   UNL     1       6.173   2.883  -3.897  0.00  0.00    +0.005 A 
ATOM     27  C   UNL     1       7.494   3.149  -3.585  0.00  0.00    +0.050 A 
ATOM     28  C   UNL     1       8.493   2.288  -4.009  0.00  0.00    +0.166 A 
ATOM     29  C   UNL     1       8.164   1.155  -4.749  0.00  0.00    +0.166 A 
ATOM     30  C   UNL     1       6.838   0.892  -5.053  0.00  0.00    +0.051 A 
ATOM     31  O   UNL     1       9.311   0.478  -5.043  0.00  0.00    -0.453 OA
ATOM     32  C   UNL     1      10.380   1.419  -4.828  0.00  0.00    +0.466 C 
ATOM     33  O   UNL     1       9.847   2.320  -3.840  0.00  0.00    -0.453 OA
ENDBRANCH  24  25
ENDBRANCH  21  24
ENDBRANCH  20  21
ENDBRANCH   3  20
TORSDOF 8
