REMARK  Name = ZINC12897517
REMARK  9 active torsions:
REMARK  status: ('A' for Active; 'I' for Inactive)
REMARK    1  A    between atoms: C_1  and  C_2
REMARK    2  A    between atoms: C_4  and  O_32
REMARK    3  A    between atoms: C_6  and  C_31
REMARK    4  A    between atoms: C_7  and  C_13
REMARK    5  A    between atoms: C_13  and  C_14
REMARK    6  A    between atoms: N_16  and  C_17
REMARK    7  A    between atoms: C_17  and  C_19
REMARK    8  A    between atoms: C_17  and  C_20
REMARK    9  A    between atoms: C_20  and  C_21
REMARK                            x       y       z     vdW  Elec       q    Type
REMARK                         _______ _______ _______ _____ _____    ______ ____
ROOT
ATOM      1  C   UNL     1       2.251   3.057   0.427  0.00  0.00    +0.218 C 
ATOM      2  O   UNL     1       1.250   3.533   0.917  0.00  0.00    -0.275 OA
ATOM      3  N   UNL     1       2.218   1.818  -0.103  0.00  0.00    -0.312 N 
ATOM      4  H   UNL     1       3.019   1.436  -0.496  0.00  0.00    +0.149 HD
ENDROOT
BRANCH   3   5
ATOM      5  C   UNL     1       0.972   1.047  -0.087  0.00  0.00    +0.074 C 
ATOM      6  C   UNL     1       0.119   1.429  -1.298  0.00  0.00    +0.028 C 
BRANCH   5   7
ATOM      7  C   UNL     1       1.296  -0.447  -0.142  0.00  0.00    +0.059 C 
BRANCH   7   8
ATOM      8  C   UNL     1       2.029  -0.849   1.112  0.00  0.00    -0.021 A 
ATOM      9  C   UNL     1       3.360  -0.935   1.265  0.00  0.00    +0.087 A 
ATOM     10  N   UNL     1       3.658  -1.328   2.541  0.00  0.00    -0.360 N 
ATOM     11  H   UNL     1       4.554  -1.458   2.889  0.00  0.00    +0.165 HD
ATOM     12  C   UNL     1       2.497  -1.517   3.256  0.00  0.00    +0.047 A 
ATOM     13  C   UNL     1       1.426  -1.225   2.392  0.00  0.00    +0.003 A 
ATOM     14  C   UNL     1       0.112  -1.331   2.851  0.00  0.00    +0.010 A 
ATOM     15  C   UNL     1      -0.128  -1.719   4.140  0.00  0.00    +0.001 A 
ATOM     16  C   UNL     1       0.926  -2.008   4.996  0.00  0.00    +0.002 A 
ATOM     17  C   UNL     1       2.230  -1.910   4.564  0.00  0.00    +0.026 A 
ENDBRANCH   7   8
ENDBRANCH   5   7
ENDBRANCH   3   5
BRANCH   1  18
ATOM     18  C   UNL     1       3.533   3.849   0.409  0.00  0.00    +0.138 C 
BRANCH  18  25
ATOM     19  C   UNL     1       2.096  11.251   3.013  0.00  0.00    +0.044 C 
ATOM     20  C   UNL     1       2.307   9.941   2.300  0.00  0.00    -0.043 A 
ATOM     21  C   UNL     1       2.092   9.863   0.933  0.00  0.00    +0.049 A 
ATOM     22  C   UNL     1       2.281   8.667   0.264  0.00  0.00    +0.128 A 
ATOM     23  C   UNL     1       2.693   7.533   0.981  0.00  0.00    +0.062 A 
ATOM     24  C   UNL     1       2.909   6.252   0.307  0.00  0.00    -0.026 A 
ATOM     25  C   UNL     1       3.303   5.190   1.058  0.00  0.00    +0.049 A 
ATOM     26  C   UNL     1       3.501   5.348   2.445  0.00  0.00    +0.341 A 
ATOM     27  O   UNL     1       3.858   4.389   3.106  0.00  0.00    -0.245 OA
ATOM     28  O   UNL     1       3.305   6.527   3.055  0.00  0.00    -0.422 OA
ATOM     29  C   UNL     1       2.909   7.620   2.368  0.00  0.00    +0.143 A 
ATOM     30  C   UNL     1       2.712   8.832   3.015  0.00  0.00    +0.050 A 
ATOM     31  C   UNL     1       2.697   6.113  -1.178  0.00  0.00    +0.045 C 
BRANCH  22  32
ATOM     32  O   UNL     1       2.070   8.591  -1.074  0.00  0.00    -0.506 OA
ATOM     33  H   UNL     1       2.854   8.784  -1.607  0.00  0.00    +0.292 HD
ENDBRANCH  22  32
ENDBRANCH  18  25
ENDBRANCH   1  18
TORSDOF 6
