REMARK  Name = ZINC39853536
REMARK  9 active torsions:
REMARK  status: ('A' for Active; 'I' for Inactive)
REMARK    1  A    between atoms: C_1  and  C_2
REMARK    2  A    between atoms: C_2  and  O_3
REMARK    3  A    between atoms: O_3  and  C_4
REMARK    4  A    between atoms: C_4  and  C_6
REMARK    5  A    between atoms: N_9  and  C_12
REMARK    6  A    between atoms: C_12  and  C_14
REMARK    7  A    between atoms: C_12  and  C_21
REMARK    8  A    between atoms: C_25  and  N_26
REMARK    9  A    between atoms: C_27  and  C_29
REMARK                            x       y       z     vdW  Elec       q    Type
REMARK                         _______ _______ _______ _____ _____    ______ ____
ROOT
ATOM      1  C   UNL     1      -6.014  -4.248  -1.435  0.00  0.00    -0.004 C 
ENDROOT
BRANCH   1   2
ATOM      2  C   UNL     1      -7.075  -4.064  -2.489  0.00  0.00    -0.025 A 
ATOM      3  C   UNL     1      -8.378  -3.727  -2.118  0.00  0.00    -0.033 A 
ATOM      4  C   UNL     1      -9.279  -3.579  -3.126  0.00  0.00    -0.005 A 
ATOM      5  S   UNL     1      -8.336  -3.903  -4.591  0.00  0.00    -0.078 S 
ATOM      6  C   UNL     1      -6.765  -4.221  -3.803  0.00  0.00    +0.074 A 
ATOM      7  C   UNL     1     -10.727  -3.227  -3.008  0.00  0.00    +0.043 C 
ATOM      8  C   UNL     1     -11.151  -3.410  -1.543  0.00  0.00    +0.005 C 
ATOM      9  C   UNL     1     -10.113  -2.734  -0.643  0.00  0.00    +0.005 C 
ATOM     10  C   UNL     1      -8.805  -3.526  -0.667  0.00  0.00    +0.036 C 
BRANCH   6  11
ATOM     11  N   UNL     1      -5.537  -4.548  -4.385  0.00  0.00    -0.280 N 
ATOM     12  C   UNL     1      -5.399  -4.521  -5.726  0.00  0.00    +0.214 C 
ATOM     13  O   UNL     1      -6.340  -4.214  -6.426  0.00  0.00    -0.276 OA
ATOM     14  C   UNL     1      -4.075  -4.873  -6.353  0.00  0.00    +0.109 C 
ATOM     15  H   UNL     1      -4.785  -4.793  -3.825  0.00  0.00    +0.155 HD
ENDBRANCH   6  11
ENDBRANCH   1   2
BRANCH   1  19
ATOM     16  C   UNL     1      -2.873  -1.369  -1.422  0.00  0.00    +0.094 C 
ATOM     17  C   UNL     1      -3.959  -1.294  -2.499  0.00  0.00    -0.004 C 
ATOM     18  C   UNL     1      -5.187  -2.080  -2.033  0.00  0.00    -0.077 C 
ATOM     19  N   UNL     1      -4.817  -3.482  -1.806  0.00  0.00    +0.387 N 
ATOM     20  C   UNL     1      -3.828  -3.568  -0.726  0.00  0.00    -0.077 C 
ATOM     21  C   UNL     1      -2.548  -2.839  -1.141  0.00  0.00    -0.004 C 
ATOM     22  H   UNL     1      -4.424  -3.866  -2.653  0.00  0.00    -0.080 HD
BRANCH  16  23
ATOM     23  C   UNL     1      -1.633  -0.663  -1.907  0.00  0.00    +0.310 C 
ATOM     24  O   UNL     1      -0.595  -1.272  -2.017  0.00  0.00    -0.251 OA
BRANCH  23  25
ATOM     25  O   UNL     1      -1.681   0.642  -2.217  0.00  0.00    -0.465 OA
BRANCH  25  27
ATOM     26  C   UNL     1      -0.718   2.726  -2.973  0.00  0.00    +0.048 C 
ATOM     27  C   UNL     1      -0.469   1.247  -2.670  0.00  0.00    +0.229 C 
ENDBRANCH  25  27
ENDBRANCH  23  25
ENDBRANCH  16  23
ENDBRANCH   1  19
BRANCH   1  28
ATOM     28  C   UNL     1      -5.661  -5.710  -1.327  0.00  0.00    -0.056 A 
ATOM     29  C   UNL     1      -4.565  -6.208  -2.006  0.00  0.00    +0.002 A 
ATOM     30  C   UNL     1      -4.241  -7.548  -1.908  0.00  0.00    +0.001 A 
ATOM     31  C   UNL     1      -5.013  -8.391  -1.130  0.00  0.00    +0.015 A 
ATOM     32  C   UNL     1      -6.110  -7.893  -0.450  0.00  0.00    +0.018 A 
ATOM     33  C   UNL     1      -6.430  -6.550  -0.545  0.00  0.00    +0.017 A 
ATOM     34 BR   UNL     1      -7.167  -9.045   0.614  0.00  0.00    -0.050 Br
ENDBRANCH   1  28
TORSDOF 7
