REMARK  Name = ZINC38107559
REMARK  6 active torsions:
REMARK  status: ('A' for Active; 'I' for Inactive)
REMARK    1  A    between atoms: C_1  and  C_2
REMARK    2  A    between atoms: C_2  and  C_3
REMARK    3  A    between atoms: C_9  and  N_11
REMARK    4  A    between atoms: N_11  and  S_12
REMARK    5  A    between atoms: S_12  and  C_15
REMARK    6  A    between atoms: C_16  and  C_21
REMARK                            x       y       z     vdW  Elec       q    Type
REMARK                         _______ _______ _______ _____ _____    ______ ____
ROOT
ATOM      1  N   UNL     1      -0.776  -2.430  -1.376  0.00  0.00    -0.186 NA
ATOM      2  H   UNL     1      -1.424  -1.882  -1.847  0.00  0.00    +0.148 HD
ENDROOT
BRANCH   1   8
ATOM      3  C   UNL     1       0.718  -0.497  -1.257  0.00  0.00    +0.007 C 
ATOM      4  C   UNL     1       2.187  -0.073  -1.207  0.00  0.00    +0.005 C 
ATOM      5  C   UNL     1       2.904  -0.566  -2.466  0.00  0.00    +0.000 C 
ATOM      6  C   UNL     1       2.816  -2.092  -2.538  0.00  0.00    +0.002 C 
ATOM      7  C   UNL     1       1.347  -2.517  -2.587  0.00  0.00    +0.020 C 
ATOM      8  C   UNL     1       0.630  -2.023  -1.329  0.00  0.00    +0.080 C 
BRANCH   3  10
ATOM      9  C   UNL     1      -0.019   1.526   0.010  0.00  0.00    +0.004 C 
ATOM     10  C   UNL     1       0.002  -0.004   0.002  0.00  0.00    +0.002 C 
ENDBRANCH   3  10
ENDBRANCH   1   8
BRANCH   1  11
ATOM     11  S   UNL     1      -1.261  -3.825  -0.626  0.00  0.00    +0.067 S 
ATOM     12  O   UNL     1      -2.664  -3.927  -0.826  0.00  0.00    -0.152 OA
ATOM     13  O   UNL     1      -0.357  -4.841  -1.036  0.00  0.00    -0.152 OA
BRANCH  11  14
ATOM     14  C   UNL     1      -1.014  -3.599   1.104  0.00  0.00    +0.166 A 
ATOM     15  C   UNL     1      -1.253  -4.452   2.131  0.00  0.00    +0.074 A 
ATOM     16  N   UNL     1      -0.972  -4.020   3.345  0.00  0.00    -0.231 NA
ATOM     17  C   UNL     1      -0.484  -2.820   3.545  0.00  0.00    +0.169 A 
ATOM     18  S   UNL     1      -0.373  -2.187   1.989  0.00  0.00    -0.036 S 
ATOM     19 CL   UNL     1      -0.052  -2.067   5.049  0.00  0.00    -0.054 Cl
ATOM     20  C   UNL     1      -1.814  -5.831   1.896  0.00  0.00    +0.068 C 
ENDBRANCH  11  14
ENDBRANCH   1  11
TORSDOF 4
