REMARK  Name = ZINC62245942
REMARK  8 active torsions:
REMARK  status: ('A' for Active; 'I' for Inactive)
REMARK    1  A    between atoms: C_1  and  C_2
REMARK    2  A    between atoms: C_5  and  N_9
REMARK    3  A    between atoms: C_6  and  C_8
REMARK    4  A    between atoms: C_10  and  C_16
REMARK    5  A    between atoms: C_11  and  C_14
REMARK    6  A    between atoms: C_14  and  N_15
REMARK    7  A    between atoms: C_19  and  C_23
REMARK    8  A    between atoms: C_20  and  C_22
REMARK                            x       y       z     vdW  Elec       q    Type
REMARK                         _______ _______ _______ _____ _____    ______ ____
ROOT
ATOM      1  N   UNL     1       0.426  -4.118  -0.265  0.00  0.00    -0.212 N 
ATOM      2  C   UNL     1       0.404  -4.756  -1.478  0.00  0.00    +0.096 A 
ATOM      3  C   UNL     1       0.512  -6.089  -1.214  0.00  0.00    +0.074 A 
ATOM      4  N   UNL     1       0.598  -6.262   0.102  0.00  0.00    -0.135 NA
ATOM      5  N   UNL     1       0.557  -5.125   0.704  0.00  0.00    -0.060 NA
ENDROOT
BRANCH   1  10
ATOM      6  C   UNL     1       0.080   1.471   0.655  0.00  0.00    +0.044 C 
ATOM      7  C   UNL     1       0.172  -0.013   0.411  0.00  0.00    -0.050 A 
ATOM      8  C   UNL     1      -0.751  -0.636  -0.409  0.00  0.00    +0.005 A 
ATOM      9  C   UNL     1      -0.670  -1.996  -0.635  0.00  0.00    +0.028 A 
ATOM     10  C   UNL     1       0.340  -2.738  -0.038  0.00  0.00    +0.071 A 
ATOM     11  C   UNL     1       1.266  -2.110   0.785  0.00  0.00    -0.025 A 
ATOM     12  C   UNL     1       1.182  -0.748   1.003  0.00  0.00    +0.008 A 
ATOM     13  C   UNL     1       2.363  -2.912   1.435  0.00  0.00    +0.046 C 
ENDBRANCH   1  10
BRANCH   2  14
ATOM     14  C   UNL     1       0.285  -4.122  -2.810  0.00  0.00    +0.002 A 
ATOM     15  C   UNL     1      -0.679  -4.569  -3.714  0.00  0.00    +0.010 A 
ATOM     16  C   UNL     1      -0.785  -3.974  -4.954  0.00  0.00    +0.004 A 
ATOM     17  C   UNL     1       0.062  -2.937  -5.302  0.00  0.00    -0.047 A 
ATOM     18  C   UNL     1       1.020  -2.490  -4.410  0.00  0.00    -0.047 A 
ATOM     19  C   UNL     1       1.132  -3.072  -3.164  0.00  0.00    +0.013 A 
ATOM     20  C   UNL     1       1.940  -1.361  -4.798  0.00  0.00    +0.044 C 
ATOM     21  C   UNL     1      -0.059  -2.292  -6.659  0.00  0.00    +0.044 C 
ENDBRANCH   2  14
BRANCH   3  22
ATOM     22  C   UNL     1       0.533  -7.188  -2.246  0.00  0.00    -0.026 C 
BRANCH  22  23
ATOM     23  N   UNL     1       1.902  -7.363  -2.748  0.00  0.00    +0.382 N 
ATOM     24  H   UNL     1       2.245  -6.483  -3.105  0.00  0.00    -0.090 HD
ATOM     25  H   UNL     1       2.498  -7.676  -1.996  0.00  0.00    -0.090 HD
ATOM     26  H   UNL     1       1.904  -8.050  -3.487  0.00  0.00    -0.090 HD
ENDBRANCH  22  23
ENDBRANCH   3  22
TORSDOF 4
