REMARK  Name = ZINC28286092
REMARK  8 active torsions:
REMARK  status: ('A' for Active; 'I' for Inactive)
REMARK    1  A    between atoms: C_1  and  C_2
REMARK    2  A    between atoms: C_2  and  C_3
REMARK    3  A    between atoms: C_3  and  C_36
REMARK    4  A    between atoms: C_7  and  N_28
REMARK    5  A    between atoms: C_14  and  N_19
REMARK    6  A    between atoms: N_19  and  C_20
REMARK    7  A    between atoms: C_20  and  C_21
REMARK    8  A    between atoms: C_21  and  N_22
REMARK                            x       y       z     vdW  Elec       q    Type
REMARK                         _______ _______ _______ _____ _____    ______ ____
ROOT
ATOM      1  C   UNL     1       1.909  -0.832  -9.615  0.00  0.00    +0.071 C 
ATOM      2  C   UNL     1       1.577  -0.495  -8.159  0.00  0.00    +0.071 C 
ATOM      3  C   UNL     1       0.392  -1.307  -7.708  0.00  0.00    -0.025 A 
ATOM      4  C   UNL     1      -0.027  -2.408  -8.386  0.00  0.00    +0.020 A 
ATOM      5  C   UNL     1      -1.126  -3.138  -7.921  0.00  0.00    +0.105 A 
ATOM      6  N   UNL     1      -1.766  -2.763  -6.825  0.00  0.00    -0.337 N 
ATOM      7  C   UNL     1      -1.389  -1.701  -6.147  0.00  0.00    +0.089 A 
ATOM      8  C   UNL     1      -0.295  -0.902  -6.537  0.00  0.00    +0.031 A 
ATOM      9  C   UNL     1      -0.012   0.248  -5.671  0.00  0.00    +0.055 A 
ATOM     10  C   UNL     1      -0.822   0.414  -4.587  0.00  0.00    +0.050 A 
ATOM     11  S   UNL     1      -1.984  -0.911  -4.669  0.00  0.00    -0.070 S 
ATOM     12  C   UNL     1      -0.680   1.521  -3.587  0.00  0.00    +0.188 C 
ATOM     13  N   UNL     1       0.062   2.598  -4.275  0.00  0.00    -0.359 N 
ATOM     14  C   UNL     1       1.028   2.269  -5.194  0.00  0.00    +0.157 C 
ATOM     15  N   UNL     1       1.007   1.172  -5.887  0.00  0.00    -0.306 N 
ATOM     16  C   UNL     1       0.667  -2.870  -9.642  0.00  0.00    +0.199 C 
ATOM     17  O   UNL     1       1.951  -2.257  -9.751  0.00  0.00    -0.369 OA
ATOM     18  C   UNL     1       0.830  -0.258 -10.535  0.00  0.00    +0.042 C 
ATOM     19  H   UNL     1      -0.153   3.655  -4.058  0.00  0.00    +0.162 HD
ATOM     20  H   UNL     1      -2.629  -3.343  -6.466  0.00  0.00    +0.168 HD
ATOM     21  H   UNL     1       1.783   0.968  -6.639  0.00  0.00    +0.153 HD
ENDROOT
BRANCH   5  22
ATOM     22  N   UNL     1      -1.549  -4.266  -8.615  0.00  0.00    -0.312 N 
ATOM     23  C   UNL     1      -2.920  -4.092  -9.117  0.00  0.00    +0.134 C 
ATOM     24  C   UNL     1      -3.323  -5.330  -9.924  0.00  0.00    +0.178 C 
ATOM     25  O   UNL     1      -3.191  -6.492  -9.101  0.00  0.00    -0.377 OA
ATOM     26  C   UNL     1      -1.868  -6.693  -8.595  0.00  0.00    +0.178 C 
ATOM     27  C   UNL     1      -1.451  -5.469  -7.775  0.00  0.00    +0.134 C 
ENDBRANCH   5  22
BRANCH   1  29
ATOM     28  C   UNL     1       3.552  -0.493 -11.467  0.00  0.00    +0.007 C 
ATOM     29  C   UNL     1       3.270  -0.238  -9.985  0.00  0.00    +0.032 C 
ENDBRANCH   1  29
BRANCH  12  30
ATOM     30  N   UNL     1       0.076   1.052  -2.418  0.00  0.00    -0.291 NA
ATOM     31  H   UNL     1       0.124  -0.046  -2.429  0.00  0.00    +0.124 HD
BRANCH  30  32
ATOM     32  C   UNL     1      -0.565   1.484  -1.169  0.00  0.00    +0.098 C 
BRANCH  32  33
ATOM     33  C   UNL     1       0.249   0.978   0.024  0.00  0.00    +0.099 C 
BRANCH  33  34
ATOM     34  N   UNL     1      -0.392   1.409   1.273  0.00  0.00    -0.297 NA
ATOM     35  C   UNL     1      -0.337   2.872   1.415  0.00  0.00    +0.112 C 
ATOM     36  C   UNL     1      -1.067   3.281   2.697  0.00  0.00    +0.175 C 
ATOM     37  O   UNL     1      -0.478   2.606   3.812  0.00  0.00    -0.377 OA
ATOM     38  C   UNL     1      -0.514   1.181   3.707  0.00  0.00    +0.175 C 
ATOM     39  C   UNL     1       0.221   0.749   2.435  0.00  0.00    +0.112 C 
ENDBRANCH  33  34
ENDBRANCH  32  33
ENDBRANCH  30  32
ENDBRANCH  12  30
TORSDOF 6
