REMARK  Name = ZINC67468126
REMARK  8 active torsions:
REMARK  status: ('A' for Active; 'I' for Inactive)
REMARK    1  A    between atoms: C_1  and  C_2
REMARK    2  A    between atoms: C_2  and  N_3
REMARK    3  A    between atoms: C_4  and  C_27
REMARK    4  A    between atoms: C_5  and  C_9
REMARK    5  A    between atoms: C_6  and  C_8
REMARK    6  A    between atoms: C_9  and  N_10
REMARK    7  A    between atoms: N_13  and  N_14
REMARK    8  A    between atoms: C_15  and  C_17
REMARK                            x       y       z     vdW  Elec       q    Type
REMARK                         _______ _______ _______ _____ _____    ______ ____
ROOT
ATOM      1  N   UNL     1      -5.307  -0.498   1.874  0.00  0.00    -0.294 N 
ATOM      2  C   UNL     1      -6.396  -0.641   2.655  0.00  0.00    +0.316 C 
ATOM      3  O   UNL     1      -6.674  -1.731   3.117  0.00  0.00    -0.251 OA
ATOM      4  N   UNL     1      -7.176   0.424   2.925  0.00  0.00    -0.218 N 
ATOM      5  H   UNL     1      -5.085   0.371   1.506  0.00  0.00    +0.151 HD
ATOM      6  H   UNL     1      -7.960   0.322   3.487  0.00  0.00    +0.174 HD
ENDROOT
BRANCH   4   7
ATOM      7  N   UNL     1      -6.855   1.680   2.393  0.00  0.00    -0.230 N 
ATOM      8  C   UNL     1      -7.636   2.745   2.663  0.00  0.00    +0.270 C 
ATOM      9  O   UNL     1      -8.616   2.617   3.366  0.00  0.00    -0.270 OA
ATOM     10  H   UNL     1      -6.072   1.783   1.831  0.00  0.00    +0.173 HD
BRANCH   8  11
ATOM     11  C   UNL     1      -7.290   4.096   2.091  0.00  0.00    +0.264 C 
ATOM     12  C   UNL     1      -7.462   4.100   0.553  0.00  0.00    +0.093 C 
ATOM     13  C   UNL     1      -8.884   4.604   0.398  0.00  0.00    -0.002 A 
ATOM     14  C   UNL     1      -9.759   4.590  -0.666  0.00  0.00    +0.007 A 
ATOM     15  C   UNL     1     -11.027   5.124  -0.525  0.00  0.00    +0.000 A 
ATOM     16  C   UNL     1     -11.411   5.671   0.685  0.00  0.00    +0.004 A 
ATOM     17  C   UNL     1     -10.535   5.689   1.751  0.00  0.00    +0.046 A 
ATOM     18  C   UNL     1      -9.255   5.157   1.616  0.00  0.00    +0.125 A 
ATOM     19  O   UNL     1      -8.236   5.089   2.523  0.00  0.00    -0.479 OA
ENDBRANCH   8  11
ENDBRANCH   4   7
BRANCH   1  20
ATOM     20  C   UNL     1      -4.459  -1.656   1.581  0.00  0.00    +0.144 C 
BRANCH  20  23
ATOM     21  N   UNL     1      -1.372  -0.511   0.012  0.00  0.00    -0.268 N 
ATOM     22  C   UNL     1      -2.109  -0.787   1.109  0.00  0.00    +0.041 A 
ATOM     23  C   UNL     1      -3.317  -1.231   0.694  0.00  0.00    +0.013 A 
ATOM     24  C   UNL     1      -3.320  -1.227  -0.705  0.00  0.00    +0.065 A 
ATOM     25  N   UNL     1      -2.156  -0.790  -1.114  0.00  0.00    -0.176 NA
ATOM     26  C   UNL     1      -4.467  -1.647  -1.588  0.00  0.00    +0.068 C 
ATOM     27  C   UNL     1      -1.664  -0.628   2.541  0.00  0.00    +0.065 C 
BRANCH  21  29
ATOM     28  C   UNL     1      -0.019   1.526   0.010  0.00  0.00    +0.029 C 
ATOM     29  C   UNL     1       0.002  -0.004   0.002  0.00  0.00    +0.140 C 
ENDBRANCH  21  29
ENDBRANCH  20  23
ENDBRANCH   1  20
TORSDOF 5
