REMARK  Name = ZINC12447768
REMARK  5 active torsions:
REMARK  status: ('A' for Active; 'I' for Inactive)
REMARK    1  A    between atoms: C_1  and  C_2
REMARK    2  A    between atoms: C_5  and  N_8
REMARK    3  A    between atoms: C_11  and  C_32
REMARK    4  A    between atoms: N_21  and  C_24
REMARK    5  A    between atoms: C_24  and  C_25
REMARK                            x       y       z     vdW  Elec       q    Type
REMARK                         _______ _______ _______ _____ _____    ______ ____
ROOT
ATOM      1  N   UNL     1       3.724  -1.133  -3.585  0.00  0.00    -0.243 N 
ATOM      2  C   UNL     1       3.731  -1.544  -4.852  0.00  0.00    +0.234 C 
ATOM      3  O   UNL     1       4.606  -2.271  -5.273  0.00  0.00    -0.274 OA
ATOM      4  C   UNL     1       2.599  -1.067  -5.751  0.00  0.00    +0.132 C 
ATOM      5  S   UNL     1       1.413  -0.427  -4.487  0.00  0.00    -0.108 S 
ATOM      6  C   UNL     1       2.639  -0.269  -3.131  0.00  0.00    +0.193 C 
ATOM      7  C   UNL     1       3.051   1.158  -2.945  0.00  0.00    +0.017 A 
ATOM      8  C   UNL     1       3.647   2.095  -3.760  0.00  0.00    +0.009 A 
ATOM      9  C   UNL     1       3.902   3.368  -3.282  0.00  0.00    +0.000 A 
ATOM     10  C   UNL     1       3.556   3.698  -1.984  0.00  0.00    +0.002 A 
ATOM     11  C   UNL     1       2.960   2.764  -1.164  0.00  0.00    +0.024 A 
ATOM     12  C   UNL     1       2.700   1.480  -1.635  0.00  0.00    +0.043 A 
ATOM     13  N   UNL     1       2.117   0.377  -1.006  0.00  0.00    -0.264 N 
ATOM     14  C   UNL     1       2.051  -0.697  -1.821  0.00  0.00    +0.259 C 
ATOM     15  O   UNL     1       1.603  -1.790  -1.547  0.00  0.00    -0.272 OA
ATOM     16  C   UNL     1       3.067   0.051  -6.686  0.00  0.00    +0.029 C 
ENDROOT
BRANCH   1  21
ATOM     17  C   UNL     1       7.843  -2.713  -0.018  0.00  0.00    +0.044 C 
ATOM     18  C   UNL     1       6.748  -2.293  -0.965  0.00  0.00    -0.050 A 
ATOM     19  C   UNL     1       5.658  -3.119  -1.169  0.00  0.00    +0.005 A 
ATOM     20  C   UNL     1       4.654  -2.737  -2.037  0.00  0.00    +0.024 A 
ATOM     21  C   UNL     1       4.740  -1.522  -2.704  0.00  0.00    +0.038 A 
ATOM     22  C   UNL     1       5.838  -0.698  -2.501  0.00  0.00    +0.024 A 
ATOM     23  C   UNL     1       6.837  -1.083  -1.628  0.00  0.00    +0.005 A 
ENDBRANCH   1  21
BRANCH  13  24
ATOM     24  C   UNL     1       1.637   0.384   0.378  0.00  0.00    +0.150 C 
BRANCH  24  25
ATOM     25  C   UNL     1       0.192   0.810   0.407  0.00  0.00    -0.011 A 
ATOM     26  C   UNL     1      -0.139   2.111   0.738  0.00  0.00    +0.006 A 
ATOM     27  C   UNL     1      -1.464   2.502   0.765  0.00  0.00    +0.000 A 
ATOM     28  C   UNL     1      -2.460   1.592   0.461  0.00  0.00    +0.001 A 
ATOM     29  C   UNL     1      -2.130   0.293   0.125  0.00  0.00    +0.020 A 
ATOM     30  C   UNL     1      -0.804  -0.101   0.103  0.00  0.00    +0.046 A 
ATOM     31 CL   UNL     1      -0.389  -1.735  -0.312  0.00  0.00    -0.083 Cl
ENDBRANCH  24  25
ENDBRANCH  13  24
TORSDOF 3
