REMARK  Name = ZINC62779439
REMARK  2 active torsions:
REMARK  status: ('A' for Active; 'I' for Inactive)
REMARK    1  A    between atoms: C_6  and  C_7
REMARK    2  A    between atoms: C_7  and  C_9
REMARK                            x       y       z     vdW  Elec       q    Type
REMARK                         _______ _______ _______ _____ _____    ______ ____
ROOT
ATOM      1  C   UNL     1      -1.231  -1.698   1.293  0.00  0.00    -0.010 A 
ATOM      2  C   UNL     1      -1.897  -1.195   2.397  0.00  0.00    +0.055 A 
ATOM      3  C   UNL     1      -1.921  -1.922   3.574  0.00  0.00    +0.162 A 
ATOM      4  C   UNL     1      -1.280  -3.151   3.646  0.00  0.00    +0.163 A 
ATOM      5  C   UNL     1      -0.614  -3.652   2.541  0.00  0.00    +0.065 A 
ATOM      6  C   UNL     1      -0.597  -2.925   1.362  0.00  0.00    +0.026 A 
ATOM      7 BR   UNL     1       0.303  -3.608  -0.154  0.00  0.00    -0.050 Br
ATOM      8  O   UNL     1      -1.310  -3.861   4.811  0.00  0.00    -0.488 OA
ATOM      9  C   UNL     1      -0.582  -3.298   5.905  0.00  0.00    +0.232 C 
ATOM     10  C   UNL     1      -1.425  -2.267   6.641  0.00  0.00    +0.082 C 
ATOM     11  C   UNL     1      -1.750  -1.061   5.774  0.00  0.00    +0.232 C 
ATOM     12  O   UNL     1      -2.575  -1.438   4.670  0.00  0.00    -0.488 OA
ENDROOT
BRANCH   1  13
ATOM     13  C   UNL     1      -1.203  -0.909   0.009  0.00  0.00    +0.135 C 
ATOM     14 BR   UNL     1      -1.403   1.005   0.411  0.00  0.00    -0.076 Br
BRANCH  13  20
ATOM     15  C   UNL     1      -2.211  -1.972  -2.079  0.00  0.00    +0.045 A 
ATOM     16  C   UNL     1      -3.497  -2.216  -2.572  0.00  0.00    +0.134 A 
ATOM     17  N   UNL     1      -4.361  -1.763  -1.701  0.00  0.00    -0.182 NA
ATOM     18  N   UNL     1      -3.651  -1.216  -0.624  0.00  0.00    -0.280 N 
ATOM     19  H   UNL     1      -4.039  -0.807   0.166  0.00  0.00    +0.189 HD
ATOM     20  C   UNL     1      -2.334  -1.357  -0.880  0.00  0.00    +0.054 A 
ENDBRANCH  13  20
ENDBRANCH   1  13
TORSDOF 2
