REMARK  Name = ZINC12797196
REMARK  7 active torsions:
REMARK  status: ('A' for Active; 'I' for Inactive)
REMARK    1  A    between atoms: C_4  and  C_7
REMARK    2  A    between atoms: C_10  and  S_18
REMARK    3  A    between atoms: N_11  and  C_12
REMARK    4  A    between atoms: C_12  and  C_13
REMARK    5  A    between atoms: S_18  and  C_19
REMARK    6  A    between atoms: C_19  and  C_20
REMARK    7  A    between atoms: N_25  and  C_26
REMARK                            x       y       z     vdW  Elec       q    Type
REMARK                         _______ _______ _______ _____ _____    ______ ____
ROOT
ATOM      1  C   UNL     1       3.553   3.518  -0.416  0.00  0.00    +0.173 C 
ENDROOT
BRANCH   1   2
ATOM      2  C   UNL     1       5.049   3.364  -0.510  0.00  0.00    +0.231 C 
ATOM      3  O   UNL     1       5.550   2.262  -0.441  0.00  0.00    -0.274 OA
ATOM      4  N   UNL     1       5.829   4.451  -0.670  0.00  0.00    -0.239 N 
ATOM      5  C   UNL     1       7.167   4.313  -0.753  0.00  0.00    +0.306 C 
ATOM      6  O   UNL     1       7.670   3.209  -0.684  0.00  0.00    -0.252 OA
ATOM      7  N   UNL     1       7.948   5.400  -0.914  0.00  0.00    -0.294 N 
ATOM      8  H   UNL     1       5.428   5.332  -0.725  0.00  0.00    +0.159 HD
ATOM      9  H   UNL     1       7.547   6.281  -0.969  0.00  0.00    +0.151 HD
BRANCH   7  10
ATOM     10  C   UNL     1       9.402   5.250  -1.005  0.00  0.00    +0.037 C 
ATOM     11  C   UNL     1       9.930   4.603   0.277  0.00  0.00    +0.029 C 
ATOM     12  C   UNL     1      11.448   4.446   0.183  0.00  0.00    -0.008 C 
ATOM     13  C   UNL     1      12.093   5.823   0.004  0.00  0.00    +0.007 C 
ATOM     14  C   UNL     1      11.566   6.471  -1.278  0.00  0.00    -0.008 C 
ATOM     15  C   UNL     1      10.046   6.627  -1.183  0.00  0.00    +0.029 C 
ATOM     16  C   UNL     1      11.913   5.586  -2.476  0.00  0.00    +0.007 C 
ATOM     17  C   UNL     1      11.269   4.209  -2.298  0.00  0.00    -0.008 C 
ATOM     18  C   UNL     1      11.796   3.562  -1.016  0.00  0.00    +0.007 C 
ATOM     19  C   UNL     1       9.750   4.365  -2.203  0.00  0.00    +0.029 C 
ENDBRANCH   7  10
ENDBRANCH   1   2
BRANCH   1  20
ATOM     20  S   UNL     1       2.790   1.889  -0.205  0.00  0.00    -0.077 S 
BRANCH  20  24
ATOM     21  C   UNL     1      -1.086   2.318   0.027  0.00  0.00    +0.165 A 
ATOM     22  N   UNL     1      -0.668   3.554  -0.116  0.00  0.00    -0.128 NA
ATOM     23  N   UNL     1       0.614   3.575  -0.210  0.00  0.00    -0.122 NA
ATOM     24  C   UNL     1       1.093   2.354  -0.127  0.00  0.00    +0.193 A 
ATOM     25  N   UNL     1       0.029   1.512   0.030  0.00  0.00    -0.295 N 
BRANCH  21  29
ATOM     26  C   UNL     1      -5.121   1.048   0.417  0.00  0.00    +0.000 A 
ATOM     27  C   UNL     1      -4.840   2.310  -0.078  0.00  0.00    +0.001 A 
ATOM     28  C   UNL     1      -3.532   2.728  -0.207  0.00  0.00    +0.011 A 
ATOM     29  C   UNL     1      -2.490   1.876   0.163  0.00  0.00    +0.019 A 
ATOM     30  C   UNL     1      -2.780   0.603   0.656  0.00  0.00    +0.011 A 
ATOM     31  C   UNL     1      -4.093   0.199   0.786  0.00  0.00    +0.001 A 
ENDBRANCH  21  29
BRANCH  25  32
ATOM     32  C   UNL     1       0.067   0.054   0.167  0.00  0.00    +0.200 C 
BRANCH  32  33
ATOM     33  C   UNL     1       0.345  -0.308   1.603  0.00  0.00    +0.125 A 
ATOM     34  C   UNL     1      -0.580  -0.613   2.531  0.00  0.00    +0.046 A 
ATOM     35  C   UNL     1       0.117  -0.889   3.730  0.00  0.00    +0.041 A 
ATOM     36  C   UNL     1       1.426  -0.728   3.465  0.00  0.00    +0.195 A 
ATOM     37  O   UNL     1       1.558  -0.376   2.176  0.00  0.00    -0.466 OA
ENDBRANCH  32  33
ENDBRANCH  25  32
ENDBRANCH  20  24
ENDBRANCH   1  20
TORSDOF 7
