REMARK  Name = ZINC09501317
REMARK  9 active torsions:
REMARK  status: ('A' for Active; 'I' for Inactive)
REMARK    1  A    between atoms: C_1  and  C_2
REMARK    2  A    between atoms: C_5  and  N_9
REMARK    3  A    between atoms: C_6  and  C_8
REMARK    4  A    between atoms: C_22  and  S_23
REMARK    5  A    between atoms: S_23  and  C_24
REMARK    6  A    between atoms: C_24  and  C_25
REMARK    7  A    between atoms: N_27  and  C_28
REMARK    8  A    between atoms: C_33  and  C_38
REMARK    9  A    between atoms: C_35  and  C_37
REMARK                            x       y       z     vdW  Elec       q    Type
REMARK                         _______ _______ _______ _____ _____    ______ ____
ROOT
ATOM      1  N   UNL     1      -2.818   1.560   0.055  0.00  0.00    -0.245 N 
ATOM      2  C   UNL     1      -2.983   2.562  -0.834  0.00  0.00    +0.268 A 
ATOM      3  O   UNL     1      -2.502   3.659  -0.624  0.00  0.00    -0.267 OA
ATOM      4  C   UNL     1      -3.753   2.305  -2.065  0.00  0.00    +0.064 A 
ATOM      5  C   UNL     1      -3.952   3.305  -3.015  0.00  0.00    +0.015 A 
ATOM      6  C   UNL     1      -4.679   3.028  -4.154  0.00  0.00    +0.001 A 
ATOM      7  C   UNL     1      -5.209   1.763  -4.356  0.00  0.00    +0.002 A 
ATOM      8  C   UNL     1      -5.018   0.764  -3.422  0.00  0.00    +0.027 A 
ATOM      9  C   UNL     1      -4.290   1.024  -2.271  0.00  0.00    +0.064 A 
ATOM     10  N   UNL     1      -4.082   0.041  -1.313  0.00  0.00    -0.255 N 
ATOM     11  C   UNL     1      -3.357   0.304  -0.180  0.00  0.00    +0.245 A 
ATOM     12  N   UNL     1      -3.337  -0.802   0.525  0.00  0.00    -0.109 NA
ATOM     13  N   UNL     1      -3.984  -1.728  -0.088  0.00  0.00    -0.120 NA
ATOM     14  C   UNL     1      -4.463  -1.270  -1.220  0.00  0.00    +0.198 A 
ENDROOT
BRANCH   1  19
ATOM     15  C   UNL     1       0.139   2.506   4.803  0.00  0.00    +0.044 C 
ATOM     16  C   UNL     1      -0.647   2.252   3.543  0.00  0.00    -0.050 A 
ATOM     17  C   UNL     1      -2.013   2.465   3.527  0.00  0.00    +0.005 A 
ATOM     18  C   UNL     1      -2.737   2.232   2.374  0.00  0.00    +0.027 A 
ATOM     19  C   UNL     1      -2.089   1.790   1.227  0.00  0.00    +0.056 A 
ATOM     20  C   UNL     1      -0.718   1.572   1.248  0.00  0.00    -0.026 A 
ATOM     21  C   UNL     1      -0.001   1.806   2.405  0.00  0.00    +0.008 A 
ATOM     22  C   UNL     1      -0.013   1.086   0.008  0.00  0.00    +0.046 C 
ENDBRANCH   1  19
BRANCH  14  23
ATOM     23  S   UNL     1      -5.417  -2.172  -2.396  0.00  0.00    -0.076 S 
BRANCH  23  24
ATOM     24  C   UNL     1      -5.559  -3.828  -1.669  0.00  0.00    +0.173 C 
BRANCH  24  25
ATOM     25  C   UNL     1      -6.363  -4.712  -2.588  0.00  0.00    +0.224 C 
ATOM     26  O   UNL     1      -6.797  -4.268  -3.630  0.00  0.00    -0.275 OA
ATOM     27  N   UNL     1      -6.599  -5.995  -2.251  0.00  0.00    -0.312 N 
ATOM     28  H   UNL     1      -6.252  -6.350  -1.418  0.00  0.00    +0.149 HD
BRANCH  27  29
ATOM     29  C   UNL     1      -7.381  -6.855  -3.144  0.00  0.00    +0.076 C 
ATOM     30  C   UNL     1      -8.872  -6.660  -2.863  0.00  0.00    +0.022 C 
ATOM     31  C   UNL     1      -9.169  -7.030  -1.409  0.00  0.00    +0.002 C 
ATOM     32  C   UNL     1      -8.792  -8.493  -1.168  0.00  0.00    +0.003 C 
ATOM     33  C   UNL     1      -7.301  -8.688  -1.448  0.00  0.00    -0.009 C 
ATOM     34  C   UNL     1      -7.003  -8.318  -2.903  0.00  0.00    +0.009 C 
ATOM     35  C   UNL     1      -5.512  -8.512  -3.184  0.00  0.00    +0.009 C 
ATOM     36  C   UNL     1      -6.923 -10.151  -1.208  0.00  0.00    +0.008 C 
ENDBRANCH  27  29
ENDBRANCH  24  25
ENDBRANCH  23  24
ENDBRANCH  14  23
TORSDOF 5
