REMARK  Name = ZINC34686366
REMARK  14 active torsions:
REMARK  status: ('A' for Active; 'I' for Inactive)
REMARK    1  A    between atoms: C_1  and  C_2
REMARK    2  A    between atoms: C_2  and  C_3
REMARK    3  A    between atoms: C_3  and  C_5
REMARK    4  A    between atoms: C_3  and  O_15
REMARK    5  A    between atoms: N_7  and  C_8
REMARK    6  A    between atoms: C_8  and  C_9
REMARK    7  A    between atoms: C_9  and  N_10
REMARK    8  A    between atoms: O_15  and  C_16
REMARK    9  A    between atoms: C_22  and  C_33
REMARK   10  A    between atoms: C_27  and  C_29
REMARK   11  A    between atoms: C_29  and  C_30
REMARK   12  A    between atoms: C_30  and  C_31
REMARK   13  A    between atoms: C_30  and  C_32
REMARK   14  A    between atoms: C_36  and  C_39
REMARK                            x       y       z     vdW  Elec       q    Type
REMARK                         _______ _______ _______ _____ _____    ______ ____
ROOT
ATOM      1  C   UNL     1       0.154   2.498  -2.184  0.00  0.00    +0.122 A 
ATOM      2  C   UNL     1       1.035   3.549  -1.971  0.00  0.00    +0.046 A 
ATOM      3  C   UNL     1       1.174   4.529  -2.929  0.00  0.00    +0.007 A 
ATOM      4  C   UNL     1       0.442   4.477  -4.110  0.00  0.00    -0.040 A 
ATOM      5  C   UNL     1      -0.426   3.429  -4.325  0.00  0.00    -0.016 A 
ATOM      6  C   UNL     1      -0.570   2.441  -3.363  0.00  0.00    +0.051 A 
ATOM      7  C   UNL     1      -1.229   3.295  -5.595  0.00  0.00    +0.137 C 
ATOM      8  N   UNL     1      -1.147   4.541  -6.365  0.00  0.00    -0.290 N 
ATOM      9  C   UNL     1       0.178   5.169  -6.496  0.00  0.00    +0.113 C 
ATOM     10  C   UNL     1       0.637   5.593  -5.101  0.00  0.00    +0.054 C 
ATOM     11  C   UNL     1      -2.241   5.088  -6.931  0.00  0.00    +0.217 C 
ATOM     12  O   UNL     1      -3.298   4.494  -6.907  0.00  0.00    -0.276 OA
ENDROOT
BRANCH   7  13
ATOM     13  C   UNL     1      -2.668   3.013  -5.251  0.00  0.00    -0.023 A 
ATOM     14  C   UNL     1      -3.406   3.946  -4.547  0.00  0.00    +0.006 A 
ATOM     15  C   UNL     1      -4.727   3.687  -4.231  0.00  0.00    +0.004 A 
ATOM     16  C   UNL     1      -5.310   2.495  -4.620  0.00  0.00    -0.050 A 
ATOM     17  C   UNL     1      -4.572   1.563  -5.325  0.00  0.00    +0.004 A 
ATOM     18  C   UNL     1      -3.253   1.823  -5.644  0.00  0.00    +0.006 A 
ATOM     19  C   UNL     1      -6.749   2.212  -4.275  0.00  0.00    +0.044 C 
ENDBRANCH   7  13
BRANCH   1  20
ATOM     20  O   UNL     1       0.006   1.529  -1.243  0.00  0.00    -0.480 OA
BRANCH  20  21
ATOM     21  C   UNL     1       0.865   1.595  -0.103  0.00  0.00    +0.258 C 
BRANCH  21  22
ATOM     22  C   UNL     1       1.286   0.203   0.290  0.00  0.00    +0.254 C 
ATOM     23  O   UNL     1       0.820  -0.758  -0.286  0.00  0.00    -0.272 OA
ATOM     24  N   UNL     1       2.182   0.024   1.282  0.00  0.00    -0.314 N 
ATOM     25  H   UNL     1       2.555   0.792   1.742  0.00  0.00    +0.149 HD
BRANCH  24  26
ATOM     26  C   UNL     1       2.592  -1.329   1.664  0.00  0.00    +0.086 C 
BRANCH  26  27
ATOM     27  C   UNL     1       3.608  -1.252   2.804  0.00  0.00    -0.060 C 
BRANCH  27  28
ATOM     28  N   UNL     1       4.019  -2.609   3.188  0.00  0.00    +0.381 N 
ATOM     29  C   UNL     1       4.822  -3.227   2.101  0.00  0.00    -0.079 C 
ATOM     30  C   UNL     1       5.619  -4.334   2.835  0.00  0.00    -0.020 C 
ATOM     31  C   UNL     1       5.955  -3.676   4.193  0.00  0.00    -0.020 C 
ATOM     32  C   UNL     1       4.909  -2.558   4.368  0.00  0.00    -0.079 C 
ATOM     33  H   UNL     1       3.208  -3.175   3.388  0.00  0.00    -0.082 HD
ENDBRANCH  27  28
ENDBRANCH  26  27
ENDBRANCH  24  26
ENDBRANCH  21  22
BRANCH  21  35
ATOM     34  C   UNL     1      -0.201   3.704   0.709  0.00  0.00    +0.008 C 
ATOM     35  C   UNL     1       0.117   2.249   1.061  0.00  0.00    +0.051 C 
ENDBRANCH  21  35
ENDBRANCH  20  21
ENDBRANCH   1  20
BRANCH  11  36
ATOM     36  C   UNL     1      -2.151   6.439  -7.593  0.00  0.00    +0.099 C 
BRANCH  36  37
ATOM     37  C   UNL     1      -3.522   6.826  -8.150  0.00  0.00    -0.008 C 
ATOM     38  C   UNL     1      -4.510   7.007  -6.995  0.00  0.00    +0.008 C 
ATOM     39  C   UNL     1      -3.405   8.137  -8.930  0.00  0.00    +0.008 C 
ENDBRANCH  36  37
ENDBRANCH  11  36
TORSDOF 10
