REMARK  Name = ZINC41262864
REMARK  2 active torsions:
REMARK  status: ('A' for Active; 'I' for Inactive)
REMARK    1  A    between atoms: N_4  and  S_6
REMARK    2  A    between atoms: S_6  and  C_9
REMARK                            x       y       z     vdW  Elec       q    Type
REMARK                         _______ _______ _______ _____ _____    ______ ____
ROOT
ATOM      1  S   UNL     1       1.829  -1.991   0.678  0.00  0.00    +0.086 S 
ATOM      2  O   UNL     1       1.073  -2.764  -0.244  0.00  0.00    -0.151 OA
ATOM      3  O   UNL     1       3.249  -1.955   0.656  0.00  0.00    -0.151 OA
ENDROOT
BRANCH   1   4
ATOM      4  C   UNL     1       1.363  -2.531   2.289  0.00  0.00    +0.256 A 
ATOM      5  N   UNL     1       0.722  -1.889   3.245  0.00  0.00    -0.119 NA
ATOM      6  N   UNL     1       0.462  -2.425   4.356  0.00  0.00    -0.125 NA
ATOM      7  C   UNL     1       0.820  -3.672   4.633  0.00  0.00    +0.181 A 
ATOM      8  S   UNL     1       1.619  -4.111   3.092  0.00  0.00    -0.011 S 
ATOM      9  N   UNL     1       0.625  -4.422   5.783  0.00  0.00    -0.336 N 
ATOM     10  H   UNL     1       0.162  -4.035   6.542  0.00  0.00    +0.144 HD
ATOM     11  H   UNL     1       0.952  -5.334   5.828  0.00  0.00    +0.144 HD
ENDBRANCH   1   4
BRANCH   1  15
ATOM     12  C   UNL     1      -0.019   1.539   0.011  0.00  0.00    +0.018 C 
ATOM     13  C   UNL     1       1.488   1.907  -0.002  0.00  0.00    +0.018 C 
ATOM     14  C   UNL     1       2.092   0.776   0.868  0.00  0.00    +0.109 C 
ATOM     15  N   UNL     1       1.313  -0.426   0.518  0.00  0.00    -0.175 NA
ATOM     16  C   UNL     1       0.002  -0.004   0.002  0.00  0.00    +0.109 C 
ENDBRANCH   1  15
TORSDOF 2
