REMARK  Name = ZINC44442110
REMARK  6 active torsions:
REMARK  status: ('A' for Active; 'I' for Inactive)
REMARK    1  A    between atoms: C_1  and  N_2
REMARK    2  A    between atoms: C_10  and  C_11
REMARK    3  A    between atoms: C_14  and  C_17
REMARK    4  A    between atoms: C_17  and  N_18
REMARK    5  A    between atoms: C_19  and  C_21
REMARK    6  A    between atoms: C_21  and  C_22
REMARK                            x       y       z     vdW  Elec       q    Type
REMARK                         _______ _______ _______ _____ _____    ______ ____
ROOT
ATOM      1  N   UNL     1       1.186  -1.042   7.571  0.00  0.00    -0.315 N 
ATOM      2  C   UNL     1       1.395  -0.767   8.874  0.00  0.00    +0.215 C 
ATOM      3  O   UNL     1       0.605  -0.077   9.483  0.00  0.00    -0.276 OA
ATOM      4  H   UNL     1       1.818  -1.593   7.084  0.00  0.00    +0.149 HD
ENDROOT
BRANCH   1   5
ATOM      5  C   UNL     1       0.004  -0.506   6.891  0.00  0.00    +0.107 C 
BRANCH   5   9
ATOM      6  C   UNL     1      -0.089  -0.352   2.567  0.00  0.00    +0.055 C 
ATOM      7  C   UNL     1      -1.287  -0.967   3.292  0.00  0.00    +0.011 C 
ATOM      8  C   UNL     1      -1.289  -0.510   4.753  0.00  0.00    +0.006 C 
ATOM      9  C   UNL     1       0.006  -0.964   5.430  0.00  0.00    +0.006 C 
ATOM     10  C   UNL     1       1.204  -0.348   4.705  0.00  0.00    +0.006 C 
ATOM     11  C   UNL     1       1.206  -0.805   3.245  0.00  0.00    +0.011 C 
BRANCH   6  21
ATOM     12  C   UNL     1      -0.257   1.488   0.087  0.00  0.00    +0.150 C 
ATOM     13  N   UNL     1      -0.162   0.027   0.052  0.00  0.00    -0.330 N 
ATOM     14  C   UNL     1      -0.125  -0.764  -1.078  0.00  0.00    +0.069 A 
ATOM     15  C   UNL     1      -0.160  -0.504  -2.442  0.00  0.00    +0.028 A 
ATOM     16  C   UNL     1      -0.104  -1.550  -3.338  0.00  0.00    +0.002 A 
ATOM     17  C   UNL     1      -0.013  -2.859  -2.886  0.00  0.00    +0.002 A 
ATOM     18  C   UNL     1       0.022  -3.134  -1.548  0.00  0.00    +0.030 A 
ATOM     19  C   UNL     1      -0.032  -2.090  -0.622  0.00  0.00    +0.089 A 
ATOM     20  N   UNL     1      -0.018  -2.040   0.735  0.00  0.00    -0.232 NA
ATOM     21  C   UNL     1      -0.087  -0.802   1.129  0.00  0.00    +0.114 A 
ENDBRANCH   6  21
ENDBRANCH   5   9
ENDBRANCH   1   5
BRANCH   2  22
ATOM     22  C   UNL     1       2.611  -1.318   9.574  0.00  0.00    +0.121 C 
BRANCH  22  23
ATOM     23  C   UNL     1       2.691  -0.739  10.988  0.00  0.00    +0.112 C 
ATOM     24  C   UNL     1       2.796   0.801  10.895  0.00  0.00    +0.103 C 
ATOM     25  S   UNL     1       3.861   1.105  12.366  0.00  0.00    -0.086 S 
ATOM     26  C   UNL     1       4.580  -0.522  12.495  0.00  0.00    +0.172 A 
ATOM     27  N   UNL     1       3.842  -1.330  11.680  0.00  0.00    -0.283 N 
ATOM     28  C   UNL     1       4.242  -2.632  11.590  0.00  0.00    +0.258 A 
ATOM     29  O   UNL     1       3.640  -3.402  10.860  0.00  0.00    -0.267 OA
ATOM     30  C   UNL     1       5.342  -3.093  12.334  0.00  0.00    +0.038 A 
ATOM     31  C   UNL     1       6.011  -2.224  13.134  0.00  0.00    +0.052 A 
ATOM     32  N   UNL     1       5.601  -0.958  13.192  0.00  0.00    -0.228 NA
ATOM     33  C   UNL     1       7.204  -2.623  13.960  0.00  0.00    +0.056 C 
ATOM     34  C   UNL     1       7.271  -4.142  14.107  0.00  0.00    +0.006 C 
ATOM     35  C   UNL     1       7.151  -4.768  12.712  0.00  0.00    +0.005 C 
ATOM     36  C   UNL     1       5.728  -4.543  12.206  0.00  0.00    +0.042 C 
ENDBRANCH  22  23
ENDBRANCH   2  22
TORSDOF 5
