REMARK  Name = ZINC39715065
REMARK  9 active torsions:
REMARK  status: ('A' for Active; 'I' for Inactive)
REMARK    1  A    between atoms: C_1  and  C_2
REMARK    2  A    between atoms: C_5  and  N_8
REMARK    3  A    between atoms: C_9  and  C_11
REMARK    4  A    between atoms: C_11  and  C_12
REMARK    5  A    between atoms: N_16  and  C_29
REMARK    6  A    between atoms: N_18  and  N_19
REMARK    7  A    between atoms: C_20  and  C_21
REMARK    8  A    between atoms: C_24  and  O_27
REMARK    9  A    between atoms: C_32  and  O_35
REMARK                            x       y       z     vdW  Elec       q    Type
REMARK                         _______ _______ _______ _____ _____    ______ ____
ROOT
ATOM      1  C   UNL     1       0.597  -7.083   2.552  0.00  0.00    +0.149 C 
ATOM      2  C   UNL     1       0.214  -8.554   2.607  0.00  0.00    +0.239 C 
ATOM      3  O   UNL     1       0.737  -9.382   1.892  0.00  0.00    -0.274 OA
ATOM      4  N   UNL     1      -0.725  -8.873   3.481  0.00  0.00    -0.217 N 
ATOM      5  C   UNL     1      -1.324  -7.935   4.298  0.00  0.00    +0.190 C 
ATOM      6  N   UNL     1      -2.262  -8.126   5.202  0.00  0.00    -0.126 NA
ATOM      7  S   UNL     1      -0.527  -6.402   3.841  0.00  0.00    -0.075 S 
ENDROOT
BRANCH   4   8
ATOM      8  C   UNL     1      -1.126 -10.213   3.583  0.00  0.00    +0.043 A 
ATOM      9  C   UNL     1      -2.264 -10.649   2.919  0.00  0.00    +0.027 A 
ATOM     10  C   UNL     1      -2.659 -11.969   3.020  0.00  0.00    +0.047 A 
ATOM     11  C   UNL     1      -1.918 -12.858   3.785  0.00  0.00    +0.117 A 
ATOM     12  C   UNL     1      -0.780 -12.422   4.449  0.00  0.00    +0.047 A 
ATOM     13  C   UNL     1      -0.381 -11.104   4.344  0.00  0.00    +0.027 A 
BRANCH  11  14
ATOM     14  O   UNL     1      -2.307 -14.157   3.884  0.00  0.00    -0.507 OA
ATOM     15  H   UNL     1      -1.931 -14.733   3.206  0.00  0.00    +0.292 HD
ENDBRANCH  11  14
ENDBRANCH   4   8
BRANCH   6  16
ATOM     16  N   UNL     1      -2.694  -9.317   5.442  0.00  0.00    -0.155 NA
ATOM     17  C   UNL     1      -3.978  -9.546   5.508  0.00  0.00    +0.143 C 
BRANCH  17  18
ATOM     18  C   UNL     1      -4.469 -10.877   5.897  0.00  0.00    -0.005 A 
ATOM     19  C   UNL     1      -3.568 -11.866   6.306  0.00  0.00    +0.013 A 
ATOM     20  C   UNL     1      -4.033 -13.110   6.669  0.00  0.00    +0.046 A 
ATOM     21  C   UNL     1      -5.395 -13.384   6.630  0.00  0.00    +0.117 A 
ATOM     22  C   UNL     1      -6.294 -12.406   6.225  0.00  0.00    +0.046 A 
ATOM     23  C   UNL     1      -5.839 -11.156   5.865  0.00  0.00    +0.013 A 
BRANCH  21  24
ATOM     24  O   UNL     1      -5.848 -14.614   6.988  0.00  0.00    -0.507 OA
ATOM     25  H   UNL     1      -6.059 -14.697   7.928  0.00  0.00    +0.292 HD
ENDBRANCH  21  24
ENDBRANCH  17  18
ENDBRANCH   6  16
BRANCH   1  26
ATOM     26  C   UNL     1       0.295  -6.482   1.179  0.00  0.00    +0.120 C 
BRANCH  26  28
ATOM     27  N   UNL     1       0.544  -4.298   0.045  0.00  0.00    -0.285 N 
ATOM     28  C   UNL     1       0.716  -5.035   1.160  0.00  0.00    +0.219 C 
ATOM     29  O   UNL     1       1.209  -4.534   2.148  0.00  0.00    -0.275 OA
ATOM     30  H   UNL     1       0.085  -4.676  -0.721  0.00  0.00    +0.155 HD
BRANCH  27  35
ATOM     31  C   UNL     1       2.506   1.021  -0.169  0.00  0.00    +0.044 C 
ATOM     32  C   UNL     1       1.985  -0.392  -0.112  0.00  0.00    -0.050 A 
ATOM     33  C   UNL     1       2.684  -1.357   0.588  0.00  0.00    +0.005 A 
ATOM     34  C   UNL     1       2.209  -2.653   0.642  0.00  0.00    +0.023 A 
ATOM     35  C   UNL     1       1.028  -2.986  -0.007  0.00  0.00    +0.033 A 
ATOM     36  C   UNL     1       0.328  -2.014  -0.710  0.00  0.00    +0.023 A 
ATOM     37  C   UNL     1       0.805  -0.719  -0.756  0.00  0.00    +0.005 A 
ENDBRANCH  27  35
ENDBRANCH  26  28
ENDBRANCH   1  26
TORSDOF 8
