REMARK  Name = ZINC20059557
REMARK  6 active torsions:
REMARK  status: ('A' for Active; 'I' for Inactive)
REMARK    1  A    between atoms: C_4  and  S_7
REMARK    2  A    between atoms: S_7  and  N_10
REMARK    3  A    between atoms: N_10  and  C_11
REMARK    4  A    between atoms: N_10  and  C_26
REMARK    5  A    between atoms: C_11  and  C_12
REMARK    6  A    between atoms: N_14  and  N_15
REMARK                            x       y       z     vdW  Elec       q    Type
REMARK                         _______ _______ _______ _____ _____    ______ ____
ROOT
ATOM      1  N   UNL     1       4.807  -1.149   1.845  0.00  0.00    -0.194 N 
ENDROOT
BRANCH   1   2
ATOM      2  C   UNL     1       5.644  -0.317   2.593  0.00  0.00    +0.053 A 
ATOM      3  C   UNL     1       5.232   0.149   3.835  0.00  0.00    +0.026 A 
ATOM      4  C   UNL     1       6.060   0.971   4.573  0.00  0.00    +0.023 A 
ATOM      5  C   UNL     1       7.301   1.331   4.077  0.00  0.00    +0.059 A 
ATOM      6  C   UNL     1       7.714   0.869   2.838  0.00  0.00    +0.061 A 
ATOM      7  C   UNL     1       6.891   0.041   2.099  0.00  0.00    +0.046 A 
ATOM      8 CL   UNL     1       9.270   1.325   2.218  0.00  0.00    -0.082 Cl
ATOM      9 CL   UNL     1       8.339   2.365   5.007  0.00  0.00    -0.082 Cl
ENDBRANCH   1   2
BRANCH   1  10
ATOM     10  S   UNL     1       4.296  -0.674   0.343  0.00  0.00    +0.075 S 
ATOM     11  O   UNL     1       4.014  -1.862  -0.385  0.00  0.00    -0.150 OA
ATOM     12  O   UNL     1       5.227   0.297  -0.115  0.00  0.00    -0.150 OA
BRANCH  10  16
ATOM     13  C   UNL     1       0.349   1.475   0.886  0.00  0.00    +0.000 A 
ATOM     14  C   UNL     1       1.535   2.184   0.934  0.00  0.00    +0.002 A 
ATOM     15  C   UNL     1       2.740   1.528   0.768  0.00  0.00    +0.029 A 
ATOM     16  C   UNL     1       2.760   0.162   0.555  0.00  0.00    +0.109 A 
ATOM     17  C   UNL     1       1.574  -0.547   0.508  0.00  0.00    +0.029 A 
ATOM     18  C   UNL     1       0.369   0.109   0.673  0.00  0.00    +0.002 A 
ENDBRANCH  10  16
ENDBRANCH   1  10
BRANCH   1  19
ATOM     19  C   UNL     1       4.381  -2.441   2.389  0.00  0.00    +0.228 C 
BRANCH  19  20
ATOM     20  C   UNL     1       5.434  -3.479   2.098  0.00  0.00    +0.251 C 
ATOM     21  O   UNL     1       6.440  -3.171   1.495  0.00  0.00    -0.272 OA
ATOM     22  N   UNL     1       5.257  -4.751   2.507  0.00  0.00    -0.205 N 
ATOM     23  H   UNL     1       4.452  -4.998   2.989  0.00  0.00    +0.177 HD
BRANCH  22  24
ATOM     24  N   UNL     1       6.235  -5.717   2.236  0.00  0.00    -0.174 NA
ATOM     25  C   UNL     1       6.116  -6.926   2.728  0.00  0.00    +0.152 C 
ATOM     26  C   UNL     1       5.102  -7.412   3.693  0.00  0.00    +0.028 A 
ATOM     27  C   UNL     1       4.034  -6.801   4.340  0.00  0.00    +0.012 A 
ATOM     28  C   UNL     1       3.247  -7.535   5.205  0.00  0.00    +0.001 A 
ATOM     29  C   UNL     1       3.522  -8.874   5.427  0.00  0.00    +0.002 A 
ATOM     30  C   UNL     1       4.580  -9.489   4.789  0.00  0.00    +0.024 A 
ATOM     31  C   UNL     1       5.384  -8.766   3.914  0.00  0.00    +0.043 A 
ATOM     32  N   UNL     1       6.490  -9.136   3.157  0.00  0.00    -0.280 N 
ATOM     33  C   UNL     1       6.960  -8.103   2.437  0.00  0.00    +0.269 C 
ATOM     34  O   UNL     1       7.913  -8.131   1.681  0.00  0.00    -0.268 OA
ATOM     35  H   UNL     1       6.872 -10.027   3.147  0.00  0.00    +0.155 HD
ENDBRANCH  22  24
ENDBRANCH  19  20
ENDBRANCH   1  19
TORSDOF 6
