REMARK  Name = ZINC66933626
REMARK  5 active torsions:
REMARK  status: ('A' for Active; 'I' for Inactive)
REMARK    1  A    between atoms: C_1  and  C_2
REMARK    2  A    between atoms: C_5  and  S_11
REMARK    3  A    between atoms: C_6  and  N_8
REMARK    4  A    between atoms: S_11  and  N_14
REMARK    5  A    between atoms: C_18  and  C_21
REMARK                            x       y       z     vdW  Elec       q    Type
REMARK                         _______ _______ _______ _____ _____    ______ ____
ROOT
ATOM      1  S   UNL     1       0.398  -3.803   0.654  0.00  0.00    +0.063 S 
ATOM      2  O   UNL     1      -0.472  -4.485   1.546  0.00  0.00    -0.153 OA
ATOM      3  O   UNL     1       0.649  -4.264  -0.667  0.00  0.00    -0.153 OA
ENDROOT
BRANCH   1   8
ATOM      4  C   UNL     1      -1.715   1.825   0.140  0.00  0.00    +0.044 C 
ATOM      5  C   UNL     1      -1.188   0.419   0.269  0.00  0.00    -0.048 A 
ATOM      6  C   UNL     1       0.140   0.206   0.591  0.00  0.00    +0.005 A 
ATOM      7  C   UNL     1       0.624  -1.083   0.709  0.00  0.00    +0.031 A 
ATOM      8  C   UNL     1      -0.219  -2.160   0.505  0.00  0.00    +0.136 A 
ATOM      9  C   UNL     1      -1.546  -1.947   0.184  0.00  0.00    +0.153 A 
ATOM     10  C   UNL     1      -2.032  -0.657   0.070  0.00  0.00    +0.038 A 
BRANCH   9  11
ATOM     11  N   UNL     1      -2.449  -3.099  -0.035  0.00  0.00    +0.058 N 
ATOM     12  O   UNL     1      -3.634  -2.917  -0.195  0.00  0.00    -0.126 OA
ATOM     13  O   UNL     1      -2.002  -4.222  -0.053  0.00  0.00    -0.126 OA
ENDBRANCH   9  11
ENDBRANCH   1   8
BRANCH   1  14
ATOM     14  N   UNL     1       1.869  -3.707   1.408  0.00  0.00    -0.172 NA
ATOM     15  C   UNL     1       3.119  -3.691   0.632  0.00  0.00    +0.137 C 
ATOM     16  C   UNL     1       3.969  -2.508   1.109  0.00  0.00    +0.178 C 
ATOM     17  O   UNL     1       4.106  -2.569   2.531  0.00  0.00    -0.369 OA
ATOM     18  C   UNL     1       2.872  -2.455   3.243  0.00  0.00    +0.167 C 
ATOM     19  C   UNL     1       1.965  -3.630   2.875  0.00  0.00    +0.146 C 
BRANCH  18  20
ATOM     20  C   UNL     1       3.142  -2.470   4.725  0.00  0.00    +0.018 A 
ATOM     21  C   UNL     1       4.287  -3.071   5.213  0.00  0.00    +0.009 A 
ATOM     22  C   UNL     1       4.536  -3.085   6.573  0.00  0.00    +0.001 A 
ATOM     23  C   UNL     1       3.640  -2.497   7.446  0.00  0.00    +0.003 A 
ATOM     24  C   UNL     1       2.495  -1.895   6.961  0.00  0.00    +0.039 A 
ATOM     25  C   UNL     1       2.247  -1.876   5.599  0.00  0.00    +0.129 A 
ATOM     26  F   UNL     1       1.130  -1.283   5.123  0.00  0.00    -0.205 F 
ENDBRANCH  18  20
ENDBRANCH   1  14
TORSDOF 4
