REMARK  Name = ZINC49563476
REMARK  10 active torsions:
REMARK  status: ('A' for Active; 'I' for Inactive)
REMARK    1  A    between atoms: C_1  and  C_2
REMARK    2  A    between atoms: C_3  and  C_8
REMARK    3  A    between atoms: C_4  and  C_7
REMARK    4  A    between atoms: C_8  and  O_9
REMARK    5  A    between atoms: O_9  and  C_10
REMARK    6  A    between atoms: C_13  and  C_16
REMARK    7  A    between atoms: C_16  and  C_17
REMARK    8  A    between atoms: C_17  and  N_19
REMARK    9  A    between atoms: N_26  and  C_29
REMARK   10  A    between atoms: C_29  and  C_30
REMARK                            x       y       z     vdW  Elec       q    Type
REMARK                         _______ _______ _______ _____ _____    ______ ____
ROOT
ATOM      1  N   UNL     1       2.235   3.742  -9.505  0.00  0.00    -0.156 NA
ATOM      2  C   UNL     1       2.281   5.076  -9.525  0.00  0.00    +0.163 A 
ATOM      3  N   UNL     1       2.190   5.940  -8.480  0.00  0.00    -0.339 N 
ATOM      4  C   UNL     1       2.260   7.286  -8.709  0.00  0.00    +0.024 A 
ATOM      5  C   UNL     1       2.417   7.642  -9.994  0.00  0.00    -0.004 A 
ATOM      6  S   UNL     1       2.472   6.095 -10.851  0.00  0.00    -0.059 S 
ATOM      7  C   UNL     1       2.518   9.031 -10.532  0.00  0.00    -0.033 C 
ATOM      8  N   UNL     1       2.049   9.967  -9.492  0.00  0.00    +0.386 N 
ATOM      9  C   UNL     1       2.722   9.665  -8.222  0.00  0.00    -0.072 C 
ATOM     10  C   UNL     1       2.178   8.361  -7.631  0.00  0.00    +0.035 C 
ATOM     11  H   UNL     1       2.076   5.604  -7.577  0.00  0.00    +0.167 HD
ATOM     12  H   UNL     1       1.052   9.869  -9.376  0.00  0.00    -0.081 HD
ENDROOT
BRANCH   1  13
ATOM     13  C   UNL     1       2.078   3.101  -8.354  0.00  0.00    +0.243 C 
ATOM     14  O   UNL     1       1.974   3.729  -7.317  0.00  0.00    -0.273 OA
BRANCH  13  15
ATOM     15  C   UNL     1       2.026   1.595  -8.330  0.00  0.00    +0.133 C 
BRANCH  15  19
ATOM     16  C   UNL     1       1.504   0.249  -4.308  0.00  0.00    +0.121 A 
ATOM     17  C   UNL     1       0.397   0.507  -5.104  0.00  0.00    +0.046 A 
ATOM     18  C   UNL     1       0.568   0.942  -6.404  0.00  0.00    +0.007 A 
ATOM     19  C   UNL     1       1.842   1.121  -6.912  0.00  0.00    -0.038 A 
ATOM     20  C   UNL     1       2.946   0.864  -6.121  0.00  0.00    +0.007 A 
ATOM     21  C   UNL     1       2.780   0.435  -4.819  0.00  0.00    +0.046 A 
BRANCH  16  22
ATOM     22  O   UNL     1       1.338  -0.179  -3.029  0.00  0.00    -0.487 OA
BRANCH  22  23
ATOM     23  C   UNL     1      -0.005  -0.348  -2.571  0.00  0.00    +0.269 C 
BRANCH  23  26
ATOM     24  C   UNL     1      -0.018   1.503   0.010  0.00  0.00    +0.069 C 
ATOM     25  C   UNL     1       0.002  -0.004   0.002  0.00  0.00    +0.087 A 
ATOM     26  C   UNL     1       0.008  -0.824  -1.141  0.00  0.00    +0.054 A 
ATOM     27  C   UNL     1       0.027  -2.108  -0.735  0.00  0.00    +0.141 A 
ATOM     28  O   UNL     1       0.034  -2.119   0.606  0.00  0.00    -0.359 OA
ATOM     29  N   UNL     1       0.023  -0.775   1.052  0.00  0.00    -0.083 NA
ATOM     30  C   UNL     1       0.039  -3.320  -1.631  0.00  0.00    +0.089 C 
ENDBRANCH  23  26
ENDBRANCH  22  23
ENDBRANCH  16  22
ENDBRANCH  15  19
ENDBRANCH  13  15
ENDBRANCH   1  13
BRANCH   8  31
ATOM     31  C   UNL     1       2.361  11.345  -9.897  0.00  0.00    -0.043 C 
BRANCH  31  32
ATOM     32  C   UNL     1       1.575  11.696 -11.133  0.00  0.00    -0.064 A 
ATOM     33  C   UNL     1       2.108  11.448 -12.385  0.00  0.00    +0.002 A 
ATOM     34  C   UNL     1       1.386  11.770 -13.519  0.00  0.00    +0.000 A 
ATOM     35  C   UNL     1       0.132  12.339 -13.402  0.00  0.00    +0.000 A 
ATOM     36  C   UNL     1      -0.401  12.586 -12.151  0.00  0.00    +0.000 A 
ATOM     37  C   UNL     1       0.319  12.261 -11.016  0.00  0.00    +0.002 A 
ENDBRANCH  31  32
ENDBRANCH   8  31
TORSDOF 8
