REMARK  Name = ZINC39675833
REMARK  10 active torsions:
REMARK  status: ('A' for Active; 'I' for Inactive)
REMARK    1  A    between atoms: C_1  and  N_2
REMARK    2  A    between atoms: N_2  and  C_3
REMARK    3  A    between atoms: N_2  and  C_4
REMARK    4  A    between atoms: C_4  and  C_6
REMARK    5  A    between atoms: C_4  and  C_31
REMARK    6  A    between atoms: C_6  and  N_7
REMARK    7  A    between atoms: C_8  and  C_10
REMARK    8  A    between atoms: C_21  and  C_23
REMARK    9  A    between atoms: C_27  and  O_28
REMARK   10  A    between atoms: O_28  and  C_29
REMARK                            x       y       z     vdW  Elec       q    Type
REMARK                         _______ _______ _______ _____ _____    ______ ____
ROOT
ATOM      1  C   UNL     1      -0.108  -2.617   2.936  0.00  0.00    +0.100 C 
ATOM      2  C   UNL     1      -0.677  -1.705   4.046  0.00  0.00    +0.121 C 
ATOM      3  N   UNL     1      -1.701  -2.535   4.724  0.00  0.00    -0.296 N 
ATOM      4  C   UNL     1      -1.102  -3.890   4.776  0.00  0.00    +0.115 C 
ATOM      5  C   UNL     1      -0.385  -4.050   3.420  0.00  0.00    -0.004 C 
ATOM      6  C   UNL     1       0.925  -4.809   3.602  0.00  0.00    -0.010 C 
ATOM      7  C   UNL     1       0.621  -6.249   4.027  0.00  0.00    -0.082 C 
ATOM      8  N   UNL     1      -0.207  -6.899   3.004  0.00  0.00    +0.379 N 
ATOM      9  C   UNL     1      -1.503  -6.217   2.902  0.00  0.00    -0.082 C 
ATOM     10  C   UNL     1      -1.289  -4.777   2.429  0.00  0.00    -0.010 C 
ATOM     11  C   UNL     1      -2.905  -2.146   5.188  0.00  0.00    +0.251 C 
ATOM     12  O   UNL     1      -3.294  -1.010   4.991  0.00  0.00    -0.270 OA
ATOM     13  H   UNL     1       0.265  -6.856   2.113  0.00  0.00    -0.086 HD
ATOM     14  H   UNL     1      -0.355  -7.864   3.257  0.00  0.00    -0.086 HD
ENDROOT
BRANCH  11  15
ATOM     15  C   UNL     1      -3.748  -3.094   5.932  0.00  0.00    +0.087 A 
ATOM     16  C   UNL     1      -3.201  -4.051   6.759  0.00  0.00    +0.063 A 
ATOM     17  S   UNL     1      -4.527  -4.875   7.373  0.00  0.00    -0.081 S 
ATOM     18  C   UNL     1      -5.845  -3.993   6.565  0.00  0.00    +0.120 A 
ATOM     19  C   UNL     1      -5.189  -3.063   5.834  0.00  0.00    +0.158 A 
ATOM     20 CL   UNL     1      -7.556  -4.257   6.690  0.00  0.00    -0.072 Cl
BRANCH  19  21
ATOM     21  O   UNL     1      -5.844  -2.159   5.053  0.00  0.00    -0.492 OA
ATOM     22  C   UNL     1      -6.107  -2.541   3.701  0.00  0.00    +0.277 C 
ENDBRANCH  19  21
ENDBRANCH  11  15
BRANCH   1  24
ATOM     23  N   UNL     1      -0.230  -2.702   0.467  0.00  0.00    -0.316 N 
ATOM     24  C   UNL     1      -0.816  -2.358   1.631  0.00  0.00    +0.218 C 
ATOM     25  O   UNL     1      -1.912  -1.839   1.628  0.00  0.00    -0.275 OA
ATOM     26  H   UNL     1       0.647  -3.117   0.469  0.00  0.00    +0.149 HD
BRANCH  23  27
ATOM     27  C   UNL     1      -0.918  -2.450  -0.802  0.00  0.00    +0.093 C 
BRANCH  27  28
ATOM     28  C   UNL     1       0.006  -2.820  -1.965  0.00  0.00    -0.021 C 
BRANCH  28  29
ATOM     29  C   UNL     1       0.249  -4.307  -1.960  0.00  0.00    -0.059 A 
ATOM     30  C   UNL     1       1.174  -4.854  -1.091  0.00  0.00    +0.002 A 
ATOM     31  C   UNL     1       1.397  -6.218  -1.087  0.00  0.00    +0.000 A 
ATOM     32  C   UNL     1       0.694  -7.035  -1.952  0.00  0.00    +0.000 A 
ATOM     33  C   UNL     1      -0.231  -6.489  -2.821  0.00  0.00    +0.000 A 
ATOM     34  C   UNL     1      -0.457  -5.125  -2.822  0.00  0.00    +0.002 A 
ENDBRANCH  28  29
BRANCH  28  36
ATOM     35  C   UNL     1       2.134  -2.389  -2.984  0.00  0.00    -0.096 C 
ATOM     36  N   UNL     1       1.286  -2.114  -1.817  0.00  0.00    +0.382 N 
ATOM     37  C   UNL     1       1.040  -0.669  -1.719  0.00  0.00    -0.096 C 
ATOM     38  H   UNL     1       1.751  -2.433  -0.980  0.00  0.00    -0.082 HD
ENDBRANCH  28  36
ENDBRANCH  27  28
ENDBRANCH  23  27
ENDBRANCH   1  24
TORSDOF 7
