REMARK  Name = ZINC05946977
REMARK  12 active torsions:
REMARK  status: ('A' for Active; 'I' for Inactive)
REMARK    1  A    between atoms: C_1  and  C_2
REMARK    2  A    between atoms: C_2  and  N_3
REMARK    3  A    between atoms: N_3  and  C_4
REMARK    4  A    between atoms: N_3  and  S_6
REMARK    5  A    between atoms: C_4  and  C_5
REMARK    6  A    between atoms: S_6  and  C_9
REMARK    7  A    between atoms: N_15  and  C_19
REMARK    8  A    between atoms: C_19  and  N_66
REMARK    9  A    between atoms: N_22  and  C_25
REMARK   10  A    between atoms: C_30  and  O_31
REMARK   11  A    between atoms: O_31  and  C_32
REMARK   12  A    between atoms: C_32  and  C_33
REMARK                            x       y       z     vdW  Elec       q    Type
REMARK                         _______ _______ _______ _____ _____    ______ ____
ROOT
ATOM      1  C   UNL     1      -9.599  -2.514   0.476  0.00  0.00    +0.108 A 
ATOM      2  C   UNL     1     -10.138  -2.617   1.747  0.00  0.00    +0.032 A 
ATOM      3  C   UNL     1      -9.742  -1.748   2.745  0.00  0.00    +0.050 A 
ATOM      4  C   UNL     1      -8.799  -0.768   2.474  0.00  0.00    +0.154 A 
ATOM      5  C   UNL     1      -8.261  -0.661   1.192  0.00  0.00    +0.088 A 
ATOM      6  C   UNL     1      -8.659  -1.540   0.197  0.00  0.00    +0.058 A 
ATOM      7  N   UNL     1      -7.353   0.396   1.227  0.00  0.00    -0.319 N 
ATOM      8  C   UNL     1      -7.363   0.898   2.478  0.00  0.00    +0.248 A 
ATOM      9  S   UNL     1      -6.417   2.217   3.022  0.00  0.00    +0.009 S 
ATOM     10  O   UNL     1      -8.231   0.202   3.231  0.00  0.00    -0.431 OA
ENDROOT
BRANCH   1  11
ATOM     11  S   UNL     1     -10.113  -3.627  -0.789  0.00  0.00    +0.061 S 
ATOM     12  O   UNL     1      -9.060  -3.673  -1.742  0.00  0.00    -0.153 OA
ATOM     13  O   UNL     1     -10.597  -4.791  -0.133  0.00  0.00    -0.153 OA
BRANCH  11  14
ATOM     14  N   UNL     1     -11.412  -2.938  -1.550  0.00  0.00    -0.177 NA
BRANCH  14  16
ATOM     15  C   UNL     1     -11.345  -2.877  -3.994  0.00  0.00    +0.022 C 
ATOM     16  C   UNL     1     -11.203  -2.063  -2.707  0.00  0.00    +0.106 C 
ENDBRANCH  14  16
BRANCH  14  17
ATOM     17  C   UNL     1     -12.769  -3.203  -1.067  0.00  0.00    +0.106 C 
ATOM     18  C   UNL     1     -13.198  -2.086  -0.114  0.00  0.00    +0.022 C 
ENDBRANCH  14  17
ENDBRANCH  11  14
ENDBRANCH   1  11
BRANCH   7  19
ATOM     19  C   UNL     1      -6.540   0.878   0.107  0.00  0.00    +0.051 C 
BRANCH  19  25
ATOM     20  C   UNL     1      -4.513   0.444  -1.145  0.00  0.00    -0.057 C 
ATOM     21  C   UNL     1      -3.222  -0.377  -1.158  0.00  0.00    +0.087 C 
ATOM     22  N   UNL     1      -2.417  -0.039   0.024  0.00  0.00    -0.331 N 
ATOM     23  C   UNL     1      -3.160  -0.319   1.261  0.00  0.00    +0.087 C 
ATOM     24  C   UNL     1      -4.452   0.502   1.274  0.00  0.00    -0.057 C 
ATOM     25  N   UNL     1      -5.261   0.137   0.092  0.00  0.00    +0.394 N 
ATOM     26  H   UNL     1      -5.458  -0.870   0.121  0.00  0.00    -0.079 HD
BRANCH  22  27
ATOM     27  C   UNL     1      -1.194  -0.719   0.010  0.00  0.00    +0.072 A 
ATOM     28  C   UNL     1      -1.169  -2.106   0.002  0.00  0.00    +0.027 A 
ATOM     29  C   UNL     1       0.041  -2.775  -0.013  0.00  0.00    +0.002 A 
ATOM     30  C   UNL     1       1.227  -2.065  -0.021  0.00  0.00    +0.004 A 
ATOM     31  C   UNL     1       1.210  -0.682  -0.019  0.00  0.00    +0.047 A 
ATOM     32  C   UNL     1       0.002  -0.004   0.002  0.00  0.00    +0.141 A 
BRANCH  32  33
ATOM     33  O   UNL     1      -0.016   1.356   0.009  0.00  0.00    -0.490 OA
BRANCH  33  34
ATOM     34  C   UNL     1       1.248   2.022   0.001  0.00  0.00    +0.226 C 
ATOM     35  C   UNL     1       1.027   3.536   0.011  0.00  0.00    +0.048 C 
ENDBRANCH  33  34
ENDBRANCH  32  33
ENDBRANCH  22  27
ENDBRANCH  19  25
ENDBRANCH   7  19
TORSDOF 9
