REMARK  Name = ZINC50656677
REMARK  4 active torsions:
REMARK  status: ('A' for Active; 'I' for Inactive)
REMARK    1  A    between atoms: C_1  and  C_2
REMARK    2  A    between atoms: N_5  and  S_11
REMARK    3  A    between atoms: C_6  and  C_10
REMARK    4  A    between atoms: S_11  and  C_14
REMARK                            x       y       z     vdW  Elec       q    Type
REMARK                         _______ _______ _______ _____ _____    ______ ____
ROOT
ATOM      1  S   UNL     1       0.890  -2.738  -2.721  0.00  0.00    +0.063 S 
ATOM      2  O   UNL     1       0.644  -4.074  -2.301  0.00  0.00    -0.153 OA
ATOM      3  O   UNL     1      -0.024  -2.015  -3.533  0.00  0.00    -0.153 OA
ENDROOT
BRANCH   1   4
ATOM      4  C   UNL     1       2.426  -2.756  -3.584  0.00  0.00    +0.124 A 
ATOM      5  C   UNL     1       2.718  -1.769  -4.517  0.00  0.00    +0.033 A 
ATOM      6  C   UNL     1       3.934  -1.820  -5.172  0.00  0.00    +0.045 A 
ATOM      7  C   UNL     1       4.820  -2.852  -4.877  0.00  0.00    +0.116 A 
ATOM      8  N   UNL     1       4.504  -3.774  -3.981  0.00  0.00    -0.239 NA
ATOM      9  C   UNL     1       3.353  -3.748  -3.336  0.00  0.00    +0.141 A 
ATOM     10  N   UNL     1       6.046  -2.915  -5.529  0.00  0.00    -0.343 N 
ATOM     11  H   UNL     1       6.281  -2.242  -6.186  0.00  0.00    +0.144 HD
ATOM     12  H   UNL     1       6.666  -3.633  -5.326  0.00  0.00    +0.144 HD
ENDBRANCH   1   4
BRANCH   1  16
ATOM     13  C   UNL     1      -0.393   1.294   0.139  0.00  0.00    +0.039 C 
ATOM     14  C   UNL     1      -0.137  -0.203  -0.046  0.00  0.00    +0.131 C 
ATOM     15  C   UNL     1       0.724  -0.424  -1.295  0.00  0.00    +0.141 C 
ATOM     16  N   UNL     1       1.111  -1.843  -1.345  0.00  0.00    -0.169 NA
ATOM     17  C   UNL     1       1.701  -2.443  -0.138  0.00  0.00    +0.102 C 
ATOM     18  C   UNL     1       0.792  -2.123   1.054  0.00  0.00    +0.180 C 
ATOM     19  O   UNL     1       0.550  -0.715   1.098  0.00  0.00    -0.374 OA
ATOM     20  C   UNL     1       1.806  -3.959  -0.315  0.00  0.00    +0.028 C 
ENDBRANCH   1  16
TORSDOF 2
