REMARK  Name = ZINC16024511
REMARK  7 active torsions:
REMARK  status: ('A' for Active; 'I' for Inactive)
REMARK    1  A    between atoms: C_1  and  C_2
REMARK    2  A    between atoms: C_2  and  C_3
REMARK    3  A    between atoms: C_2  and  C_4
REMARK    4  A    between atoms: C_2  and  N_5
REMARK    5  A    between atoms: C_10  and  C_28
REMARK    6  A    between atoms: C_28  and  C_29
REMARK    7  A    between atoms: C_29  and  C_30
REMARK                            x       y       z     vdW  Elec       q    Type
REMARK                         _______ _______ _______ _____ _____    ______ ____
ROOT
ATOM      1  N   UNL     1       0.688  -0.476  -1.203  0.00  0.00    -0.236 N 
ATOM      2  C   UNL     1       0.091  -1.247  -2.120  0.00  0.00    +0.228 C 
ATOM      3  O   UNL     1      -1.056  -1.635  -2.069  0.00  0.00    -0.275 OA
ATOM      4  C   UNL     1       1.070  -1.556  -3.230  0.00  0.00    +0.107 C 
ATOM      5  C   UNL     1       1.427  -3.058  -3.185  0.00  0.00    +0.068 C 
ATOM      6  N   UNL     1       2.907  -3.102  -3.321  0.00  0.00    -0.295 NA
ATOM      7  C   UNL     1       3.378  -1.950  -2.531  0.00  0.00    +0.136 C 
ATOM      8  C   UNL     1       2.360  -0.811  -2.788  0.00  0.00    +0.122 C 
ATOM      9  C   UNL     1       1.960  -0.168  -1.480  0.00  0.00    +0.229 C 
ATOM     10  O   UNL     1       2.681   0.517  -0.787  0.00  0.00    -0.275 OA
ATOM     11  C   UNL     1       4.767  -1.540  -2.929  0.00  0.00    +0.005 A 
ATOM     12  C   UNL     1       5.329  -1.122  -4.116  0.00  0.00    +0.008 A 
ATOM     13  C   UNL     1       6.675  -0.808  -4.172  0.00  0.00    +0.002 A 
ATOM     14  C   UNL     1       7.455  -0.914  -3.035  0.00  0.00    +0.022 A 
ATOM     15  C   UNL     1       6.897  -1.333  -1.845  0.00  0.00    +0.062 A 
ATOM     16  C   UNL     1       5.541  -1.651  -1.779  0.00  0.00    +0.057 A 
ATOM     17  N   UNL     1       4.757  -2.091  -0.709  0.00  0.00    -0.282 N 
ATOM     18  C   UNL     1       3.475  -2.290  -1.069  0.00  0.00    +0.243 C 
ATOM     19  O   UNL     1       2.572  -2.669  -0.352  0.00  0.00    -0.273 OA
ATOM     20 CL   UNL     1       7.887  -1.465  -0.424  0.00  0.00    -0.082 Cl
ATOM     21  H   UNL     1       3.278  -3.967  -2.957  0.00  0.00    +0.123 HD
ATOM     22  H   UNL     1       5.097  -2.236   0.188  0.00  0.00    +0.155 HD
ENDROOT
BRANCH   1  24
ATOM     23  C   UNL     1      -0.019   1.526   0.010  0.00  0.00    +0.031 C 
ATOM     24  C   UNL     1       0.002  -0.004   0.002  0.00  0.00    +0.036 C 
ATOM     25  C   UNL     1       0.742  -0.511   1.242  0.00  0.00    +0.031 C 
ATOM     26  C   UNL     1      -1.433  -0.534   0.013  0.00  0.00    +0.031 C 
ENDBRANCH   1  24
BRANCH   5  27
ATOM     27  C   UNL     1       0.761  -3.799  -4.346  0.00  0.00    +0.031 C 
BRANCH  27  28
ATOM     28  C   UNL     1       1.025  -5.300  -4.212  0.00  0.00    +0.126 C 
BRANCH  28  29
ATOM     29  C   UNL     1       0.369  -6.029  -5.356  0.00  0.00    +0.356 C 
ATOM     30  O   UNL     1      -0.253  -5.407  -6.200  0.00  0.00    -0.246 OA
ATOM     31  O   UNL     1       0.459  -7.243  -5.436  0.00  0.00    -0.246 OA
ENDBRANCH  28  29
ENDBRANCH  27  28
ENDBRANCH   5  27
TORSDOF 4
