REMARK  Name = ZINC21880849
REMARK  7 active torsions:
REMARK  status: ('A' for Active; 'I' for Inactive)
REMARK    1  A    between atoms: C_1  and  C_2
REMARK    2  A    between atoms: C_2  and  C_3
REMARK    3  A    between atoms: C_8  and  N_9
REMARK    4  A    between atoms: N_9  and  C_10
REMARK    5  A    between atoms: C_10  and  C_11
REMARK    6  A    between atoms: N_24  and  C_27
REMARK    7  A    between atoms: C_27  and  C_28
REMARK                            x       y       z     vdW  Elec       q    Type
REMARK                         _______ _______ _______ _____ _____    ______ ____
ROOT
ATOM      1  C   UNL     1      -3.536   5.362   6.595  0.00  0.00    +0.043 A 
ATOM      2  C   UNL     1      -3.504   5.387   7.943  0.00  0.00    +0.025 A 
ATOM      3  C   UNL     1      -2.420   4.587   8.356  0.00  0.00    +0.020 A 
ATOM      4  C   UNL     1      -1.833   4.096   7.245  0.00  0.00    +0.093 A 
ATOM      5  N   UNL     1      -2.516   4.565   6.159  0.00  0.00    -0.297 N 
ATOM      6  C   UNL     1      -2.217   4.282   4.825  0.00  0.00    +0.202 A 
ATOM      7  N   UNL     1      -2.813   4.686   3.716  0.00  0.00    -0.121 NA
ATOM      8  N   UNL     1      -2.408   4.338   2.574  0.00  0.00    -0.124 NA
ATOM      9  C   UNL     1      -1.365   3.536   2.414  0.00  0.00    +0.186 A 
ATOM     10  S   UNL     1      -0.916   3.269   4.127  0.00  0.00    -0.013 S 
ATOM     11  N   UNL     1      -0.783   3.048   1.252  0.00  0.00    -0.312 N 
ATOM     12  C   UNL     1      -0.730   1.580   1.267  0.00  0.00    +0.088 C 
ATOM     13  C   UNL     1      -0.013   1.086   0.008  0.00  0.00    -0.060 C 
ATOM     14  N   UNL     1      -0.724   1.573  -1.182  0.00  0.00    +0.382 N 
ATOM     15  C   UNL     1      -0.777   3.042  -1.196  0.00  0.00    -0.060 C 
ATOM     16  C   UNL     1      -1.495   3.536   0.062  0.00  0.00    +0.088 C 
ATOM     17  H   UNL     1      -1.757   1.196  -1.138  0.00  0.00    -0.082 HD
ENDROOT
BRANCH  14  18
ATOM     18  C   UNL     1      -0.109   1.057  -2.412  0.00  0.00    -0.082 C 
ATOM     19  C   UNL     1      -1.011   1.374  -3.606  0.00  0.00    -0.017 C 
ENDBRANCH  14  18
BRANCH   1  20
ATOM     20  C   UNL     1      -4.529   6.084   5.721  0.00  0.00    +0.155 C 
BRANCH  20  21
ATOM     21  N   UNL     1      -3.963   7.366   5.295  0.00  0.00    -0.338 N 
ATOM     22  H   UNL     1      -2.954   7.658   5.624  0.00  0.00    +0.146 HD
BRANCH  21  28
ATOM     23  C   UNL     1      -4.168   9.434   4.068  0.00  0.00    -0.027 A 
ATOM     24  C   UNL     1      -4.902  10.274   3.254  0.00  0.00    +0.005 A 
ATOM     25  C   UNL     1      -6.169   9.905   2.841  0.00  0.00    +0.000 A 
ATOM     26  C   UNL     1      -6.705   8.694   3.242  0.00  0.00    +0.002 A 
ATOM     27  C   UNL     1      -5.974   7.848   4.052  0.00  0.00    +0.023 A 
ATOM     28  C   UNL     1      -4.703   8.218   4.472  0.00  0.00    +0.031 A 
BRANCH  23  30
ATOM     29  C   UNL     1      -1.747   9.232   3.571  0.00  0.00    +0.009 C 
ATOM     30  C   UNL     1      -2.786   9.836   4.516  0.00  0.00    +0.033 C 
ENDBRANCH  23  30
ENDBRANCH  21  28
ENDBRANCH  20  21
ENDBRANCH   1  20
TORSDOF 5
