REMARK  Name = ZINC39978644
REMARK  11 active torsions:
REMARK  status: ('A' for Active; 'I' for Inactive)
REMARK    1  A    between atoms: C_1  and  C_2
REMARK    2  A    between atoms: C_5  and  C_13
REMARK    3  A    between atoms: C_11  and  C_12
REMARK    4  A    between atoms: C_17  and  S_26
REMARK    5  A    between atoms: N_18  and  C_19
REMARK    6  A    between atoms: C_19  and  C_20
REMARK    7  A    between atoms: S_26  and  C_27
REMARK    8  A    between atoms: C_27  and  C_28
REMARK    9  A    between atoms: N_30  and  C_31
REMARK   10  A    between atoms: C_34  and  O_37
REMARK   11  A    between atoms: O_37  and  C_38
REMARK                            x       y       z     vdW  Elec       q    Type
REMARK                         _______ _______ _______ _____ _____    ______ ____
ROOT
ATOM      1  C   UNL     1      -4.630  -1.388  -1.094  0.00  0.00    +0.208 C 
ATOM      2  N   UNL     1      -4.934  -1.475  -2.533  0.00  0.00    -0.242 N 
ATOM      3  N   UNL     1      -5.753  -2.599  -2.691  0.00  0.00    -0.162 NA
ATOM      4  C   UNL     1      -5.976  -3.184  -1.563  0.00  0.00    +0.176 C 
ATOM      5  N   UNL     1      -5.343  -2.535  -0.509  0.00  0.00    -0.281 N 
ATOM      6  H   UNL     1      -4.628  -0.874  -3.231  0.00  0.00    +0.170 HD
ENDROOT
BRANCH   1  11
ATOM      7  C   UNL     1      -0.049   1.538   0.006  0.00  0.00    +0.046 C 
ATOM      8  C   UNL     1      -0.021   0.032  -0.008  0.00  0.00    -0.024 C 
ATOM      9  C   UNL     1      -1.099  -0.760  -0.005  0.00  0.00    -0.014 C 
ATOM     10  C   UNL     1      -2.477  -0.524  -0.189  0.00  0.00    +0.013 C 
ATOM     11  C   UNL     1      -3.146  -1.511  -0.859  0.00  0.00    -0.008 C 
ATOM     12  C   UNL     1      -2.425  -2.683  -1.345  0.00  0.00    +0.005 C 
ATOM     13  C   UNL     1      -1.205  -3.016  -0.909  0.00  0.00    +0.004 C 
ATOM     14  C   UNL     1      -0.563  -2.176   0.157  0.00  0.00    +0.159 C 
ATOM     15  N   UNL     1       0.881  -2.032   0.033  0.00  0.00    -0.276 NA
ATOM     16  C   UNL     1       1.150  -0.760  -0.030  0.00  0.00    +0.037 C 
ATOM     17  C   UNL     1       2.545  -0.197  -0.113  0.00  0.00    +0.065 C 
ENDBRANCH   1  11
BRANCH   5  18
ATOM     18  C   UNL     1      -5.377  -2.917   0.905  0.00  0.00    +0.144 C 
BRANCH  18  19
ATOM     19  C   UNL     1      -6.538  -2.235   1.582  0.00  0.00    -0.030 A 
ATOM     20  C   UNL     1      -6.369  -0.989   2.155  0.00  0.00    +0.005 A 
ATOM     21  C   UNL     1      -7.434  -0.364   2.776  0.00  0.00    +0.000 A 
ATOM     22  C   UNL     1      -8.668  -0.985   2.823  0.00  0.00    +0.000 A 
ATOM     23  C   UNL     1      -8.837  -2.231   2.249  0.00  0.00    +0.000 A 
ATOM     24  C   UNL     1      -7.773  -2.854   1.624  0.00  0.00    +0.005 A 
ENDBRANCH  18  19
ENDBRANCH   5  18
BRANCH   4  25
ATOM     25  S   UNL     1      -6.965  -4.630  -1.380  0.00  0.00    -0.080 S 
BRANCH  25  26
ATOM     26  C   UNL     1      -7.513  -5.004  -3.068  0.00  0.00    +0.173 C 
BRANCH  26  27
ATOM     27  C   UNL     1      -8.380  -6.237  -3.053  0.00  0.00    +0.227 C 
ATOM     28  O   UNL     1      -8.606  -6.807  -2.007  0.00  0.00    -0.275 OA
ATOM     29  N   UNL     1      -8.904  -6.706  -4.203  0.00  0.00    -0.285 N 
ATOM     30  H   UNL     1      -8.779  -6.213  -5.029  0.00  0.00    +0.155 HD
BRANCH  29  31
ATOM     31  C   UNL     1      -9.629  -7.905  -4.205  0.00  0.00    +0.034 A 
ATOM     32  C   UNL     1      -9.550  -8.763  -5.293  0.00  0.00    +0.027 A 
ATOM     33  C   UNL     1     -10.265  -9.944  -5.294  0.00  0.00    +0.047 A 
ATOM     34  C   UNL     1     -11.062 -10.274  -4.208  0.00  0.00    +0.120 A 
ATOM     35  C   UNL     1     -11.142  -9.416  -3.120  0.00  0.00    +0.047 A 
ATOM     36  C   UNL     1     -10.423  -8.237  -3.115  0.00  0.00    +0.027 A 
BRANCH  34  37
ATOM     37  O   UNL     1     -11.766 -11.437  -4.209  0.00  0.00    -0.495 OA
ATOM     38  C   UNL     1     -12.567 -11.712  -3.058  0.00  0.00    +0.277 C 
ENDBRANCH  34  37
ENDBRANCH  29  31
ENDBRANCH  26  27
ENDBRANCH  25  26
ENDBRANCH   4  25
TORSDOF 8
