REMARK  Name = ZINC38686387
REMARK  11 active torsions:
REMARK  status: ('A' for Active; 'I' for Inactive)
REMARK    1  A    between atoms: C_1  and  O_2
REMARK    2  A    between atoms: O_2  and  C_3
REMARK    3  A    between atoms: C_6  and  C_9
REMARK    4  A    between atoms: C_9  and  O_11
REMARK    5  A    between atoms: O_11  and  C_12
REMARK    6  A    between atoms: C_19  and  N_40
REMARK    7  A    between atoms: C_20  and  C_38
REMARK    8  A    between atoms: C_21  and  C_23
REMARK    9  A    between atoms: C_26  and  O_29
REMARK   10  A    between atoms: O_29  and  C_30
REMARK   11  A    between atoms: C_30  and  C_31
REMARK                            x       y       z     vdW  Elec       q    Type
REMARK                         _______ _______ _______ _____ _____    ______ ____
ROOT
ATOM      1  C   UNL     1       3.199  -4.303  -5.522  0.00  0.00    +0.135 A 
ATOM      2  C   UNL     1       3.788  -3.415  -6.412  0.00  0.00    +0.047 A 
ATOM      3  C   UNL     1       4.459  -3.893  -7.520  0.00  0.00    +0.012 A 
ATOM      4  C   UNL     1       4.548  -5.254  -7.748  0.00  0.00    +0.008 A 
ATOM      5  C   UNL     1       3.962  -6.145  -6.863  0.00  0.00    +0.138 A 
ATOM      6  C   UNL     1       3.291  -5.667  -5.745  0.00  0.00    +0.093 A 
ATOM      7  O   UNL     1       4.038  -7.483  -7.070  0.00  0.00    -0.441 OA
ATOM      8  C   UNL     1       4.979  -7.982  -7.889  0.00  0.00    +0.199 C 
ATOM      9  C   UNL     1       5.608  -7.214  -8.810  0.00  0.00    +0.098 C 
ATOM     10  C   UNL     1       5.284  -5.755  -8.963  0.00  0.00    +0.098 C 
ENDROOT
BRANCH  10  11
ATOM     11  C   UNL     1       4.422  -5.561 -10.184  0.00  0.00    -0.034 A 
ATOM     12  C   UNL     1       3.184  -6.172 -10.259  0.00  0.00    +0.008 A 
ATOM     13  C   UNL     1       2.393  -5.997 -11.378  0.00  0.00    +0.046 A 
ATOM     14  C   UNL     1       2.841  -5.205 -12.426  0.00  0.00    +0.121 A 
ATOM     15  C   UNL     1       4.083  -4.593 -12.348  0.00  0.00    +0.046 A 
ATOM     16  C   UNL     1       4.868  -4.767 -11.225  0.00  0.00    +0.008 A 
BRANCH  14  17
ATOM     17  O   UNL     1       2.064  -5.031 -13.527  0.00  0.00    -0.487 OA
BRANCH  17  18
ATOM     18  C   UNL     1       2.589  -4.204 -14.567  0.00  0.00    +0.267 C 
BRANCH  18  19
ATOM     19  C   UNL     1       1.596  -4.128 -15.698  0.00  0.00    +0.025 A 
ATOM     20  C   UNL     1       0.393  -4.802 -15.609  0.00  0.00    +0.010 A 
ATOM     21  C   UNL     1      -0.518  -4.733 -16.646  0.00  0.00    +0.001 A 
ATOM     22  C   UNL     1      -0.227  -3.989 -17.774  0.00  0.00    +0.003 A 
ATOM     23  C   UNL     1       0.975  -3.313 -17.866  0.00  0.00    +0.039 A 
ATOM     24  C   UNL     1       1.886  -3.378 -16.825  0.00  0.00    +0.130 A 
ATOM     25  F   UNL     1       3.060  -2.714 -16.912  0.00  0.00    -0.205 F 
ENDBRANCH  18  19
ENDBRANCH  17  18
ENDBRANCH  14  17
ENDBRANCH  10  11
BRANCH   8  26
ATOM     26  N   UNL     1       5.311  -9.310  -7.790  0.00  0.00    -0.328 N 
ATOM     27  H   UNL     1       4.869  -9.873  -7.136  0.00  0.00    +0.145 HD
ATOM     28  H   UNL     1       5.989  -9.685  -8.374  0.00  0.00    +0.145 HD
ENDBRANCH   8  26
BRANCH   9  29
ATOM     29  C   UNL     1       6.603  -7.804  -9.654  0.00  0.00    +0.101 C 
ATOM     30  N   UNL     1       7.392  -8.273 -10.323  0.00  0.00    -0.191 NA
ENDBRANCH   9  29
BRANCH   1  31
ATOM     31  O   UNL     1       2.538  -3.835  -4.430  0.00  0.00    -0.422 OA
BRANCH  31  32
ATOM     32  C   UNL     1       3.161  -3.903  -3.237  0.00  0.00    +0.344 C 
ATOM     33  O   UNL     1       4.240  -4.453  -3.145  0.00  0.00    -0.245 OA
BRANCH  32  37
ATOM     34  C   UNL     1       1.349  -2.196   0.202  0.00  0.00    +0.120 A 
ATOM     35  C   UNL     1       2.584  -2.825   0.310  0.00  0.00    +0.046 A 
ATOM     36  C   UNL     1       3.175  -3.380  -0.803  0.00  0.00    +0.018 A 
ATOM     37  C   UNL     1       2.531  -3.311  -2.042  0.00  0.00    +0.060 A 
ATOM     38  C   UNL     1       1.290  -2.677  -2.146  0.00  0.00    +0.018 A 
ATOM     39  C   UNL     1       0.703  -2.130  -1.027  0.00  0.00    +0.046 A 
BRANCH  34  41
ATOM     40  C   UNL     1       1.489  -1.754   2.533  0.00  0.00    +0.277 C 
ATOM     41  O   UNL     1       0.770  -1.651   1.302  0.00  0.00    -0.495 OA
ENDBRANCH  34  41
ENDBRANCH  32  37
ENDBRANCH  31  32
ENDBRANCH   1  31
TORSDOF 10
