REMARK  Name = ZINC15138812
REMARK  10 active torsions:
REMARK  status: ('A' for Active; 'I' for Inactive)
REMARK    1  A    between atoms: C_1  and  C_2
REMARK    2  A    between atoms: C_5  and  C_34
REMARK    3  A    between atoms: N_8  and  S_10
REMARK    4  A    between atoms: S_10  and  C_13
REMARK    5  A    between atoms: C_16  and  C_19
REMARK    6  A    between atoms: N_21  and  C_22
REMARK    7  A    between atoms: C_22  and  C_23
REMARK    8  A    between atoms: C_23  and  N_24
REMARK    9  A    between atoms: N_24  and  C_25
REMARK   10  A    between atoms: C_28  and  N_31
REMARK                            x       y       z     vdW  Elec       q    Type
REMARK                         _______ _______ _______ _____ _____    ______ ____
ROOT
ATOM      1  C   UNL     1      -0.954   1.915  -1.397  0.00  0.00    +0.106 A 
ATOM      2  C   UNL     1      -1.879   1.049  -1.950  0.00  0.00    +0.029 A 
ATOM      3  C   UNL     1      -2.620   1.435  -3.048  0.00  0.00    +0.015 A 
ATOM      4  C   UNL     1      -2.426   2.699  -3.608  0.00  0.00    +0.037 A 
ATOM      5  C   UNL     1      -1.486   3.566  -3.048  0.00  0.00    +0.015 A 
ATOM      6  C   UNL     1      -0.756   3.170  -1.946  0.00  0.00    +0.029 A 
ENDROOT
BRANCH   4   7
ATOM      7  C   UNL     1      -3.211   3.117  -4.788  0.00  0.00    +0.244 C 
ATOM      8  O   UNL     1      -3.040   4.219  -5.273  0.00  0.00    -0.270 OA
ATOM      9  N   UNL     1      -4.118   2.278  -5.327  0.00  0.00    -0.310 N 
ATOM     10  H   UNL     1      -4.255   1.399  -4.939  0.00  0.00    +0.149 HD
BRANCH   9  11
ATOM     11  C   UNL     1      -4.896   2.692  -6.496  0.00  0.00    +0.123 C 
BRANCH  11  12
ATOM     12  C   UNL     1      -5.845   1.563  -6.904  0.00  0.00    +0.120 C 
BRANCH  12  13
ATOM     13  N   UNL     1      -6.623   1.977  -8.074  0.00  0.00    -0.342 N 
ATOM     14  H   UNL     1      -6.486   2.856  -8.461  0.00  0.00    +0.146 HD
BRANCH  13  15
ATOM     15  C   UNL     1      -7.563   1.107  -8.632  0.00  0.00    +0.027 A 
ATOM     16  C   UNL     1      -7.756  -0.154  -8.082  0.00  0.00    +0.025 A 
ATOM     17  C   UNL     1      -8.690  -1.010  -8.632  0.00  0.00    +0.034 A 
ATOM     18  C   UNL     1      -9.424  -0.617  -9.736  0.00  0.00    +0.126 A 
ATOM     19  C   UNL     1      -9.229   0.636 -10.290  0.00  0.00    +0.034 A 
ATOM     20  C   UNL     1      -8.302   1.499  -9.741  0.00  0.00    +0.025 A 
BRANCH  18  21
ATOM     21  N   UNL     1     -10.419  -1.539 -10.327  0.00  0.00    +0.056 N 
ATOM     22  O   UNL     1     -11.067  -1.194 -11.300  0.00  0.00    -0.126 OA
ATOM     23  O   UNL     1     -10.591  -2.642  -9.841  0.00  0.00    -0.126 OA
ENDBRANCH  18  21
ENDBRANCH  13  15
ENDBRANCH  12  13
ENDBRANCH  11  12
ENDBRANCH   9  11
ENDBRANCH   4   7
BRANCH   1  24
ATOM     24  S   UNL     1      -0.017   1.417   0.010  0.00  0.00    +0.061 S 
ATOM     25  O   UNL     1       0.002  -0.004   0.002  0.00  0.00    -0.153 OA
ATOM     26  O   UNL     1       1.172   2.195   0.003  0.00  0.00    -0.153 OA
BRANCH  24  32
ATOM     27  C   UNL     1      -2.608  -0.037   4.125  0.00  0.00    +0.009 C 
ATOM     28  C   UNL     1      -1.521   0.799   3.447  0.00  0.00    +0.002 C 
ATOM     29  C   UNL     1      -1.456   2.180   4.104  0.00  0.00    +0.009 C 
ATOM     30  C   UNL     1      -0.346   3.007   3.448  0.00  0.00    +0.002 C 
ATOM     31  C   UNL     1      -0.660   3.190   1.965  0.00  0.00    +0.112 C 
ATOM     32  N   UNL     1      -0.872   1.871   1.353  0.00  0.00    -0.176 NA
ATOM     33  C   UNL     1      -1.852   0.960   1.960  0.00  0.00    +0.112 C 
ATOM     34  C   UNL     1      -0.259   4.375   4.128  0.00  0.00    +0.009 C 
ENDBRANCH  24  32
ENDBRANCH   1  24
TORSDOF 8
