REMARK  Name = ZINC04473511
REMARK  7 active torsions:
REMARK  status: ('A' for Active; 'I' for Inactive)
REMARK    1  A    between atoms: C_1  and  C_2
REMARK    2  A    between atoms: C_9  and  N_30
REMARK    3  A    between atoms: C_10  and  C_28
REMARK    4  A    between atoms: C_11  and  C_13
REMARK    5  A    between atoms: C_18  and  O_19
REMARK    6  A    between atoms: O_19  and  C_20
REMARK    7  A    between atoms: C_20  and  C_21
REMARK                            x       y       z     vdW  Elec       q    Type
REMARK                         _______ _______ _______ _____ _____    ______ ____
ROOT
ATOM      1  C   UNL     1      -0.018   1.503   0.010  0.00  0.00    +0.068 C 
ATOM      2  C   UNL     1       0.002  -0.004   0.002  0.00  0.00    +0.068 A 
ATOM      3  C   UNL     1       0.008  -0.813  -1.126  0.00  0.00    +0.049 A 
ATOM      4  C   UNL     1       0.027  -2.116  -0.713  0.00  0.00    +0.222 A 
ATOM      5  N   UNL     1       0.034  -2.116   0.629  0.00  0.00    -0.246 N 
ATOM      6  H   UNL     1       0.048  -2.900   1.201  0.00  0.00    +0.192 HD
ATOM      7  N   UNL     1       0.023  -0.780   1.060  0.00  0.00    -0.176 NA
ATOM      8  O   UNL     1       0.034  -3.159  -1.580  0.00  0.00    -0.423 OA
ATOM      9  C   UNL     1      -0.255  -2.900  -2.872  0.00  0.00    +0.200 C 
ATOM     10  C   UNL     1      -0.291  -1.656  -3.399  0.00  0.00    +0.098 C 
ATOM     11  C   UNL     1      -0.002  -0.421  -2.581  0.00  0.00    +0.105 C 
ENDROOT
BRANCH  11  12
ATOM     12  C   UNL     1       1.341   0.142  -2.966  0.00  0.00    +0.007 A 
ATOM     13  C   UNL     1       2.477  -0.636  -2.847  0.00  0.00    +0.008 A 
ATOM     14  C   UNL     1       3.710  -0.120  -3.199  0.00  0.00    +0.001 A 
ATOM     15  C   UNL     1       3.811   1.176  -3.671  0.00  0.00    +0.004 A 
ATOM     16  C   UNL     1       2.678   1.958  -3.793  0.00  0.00    +0.046 A 
ATOM     17  C   UNL     1       1.439   1.440  -3.445  0.00  0.00    +0.125 A 
BRANCH  17  18
ATOM     18  O   UNL     1       0.322   2.205  -3.569  0.00  0.00    -0.487 OA
BRANCH  18  19
ATOM     19  C   UNL     1       0.498   3.532  -4.069  0.00  0.00    +0.264 C 
BRANCH  19  20
ATOM     20  C   UNL     1      -0.839   4.224  -4.137  0.00  0.00    -0.010 A 
ATOM     21  C   UNL     1      -1.606   4.135  -5.284  0.00  0.00    +0.008 A 
ATOM     22  C   UNL     1      -2.832   4.770  -5.347  0.00  0.00    +0.020 A 
ATOM     23  C   UNL     1      -3.292   5.494  -4.262  0.00  0.00    +0.041 A 
ATOM     24  C   UNL     1      -2.525   5.582  -3.114  0.00  0.00    +0.020 A 
ATOM     25  C   UNL     1      -1.301   4.943  -3.050  0.00  0.00    +0.008 A 
ATOM     26 CL   UNL     1      -4.832   6.292  -4.340  0.00  0.00    -0.084 Cl
ENDBRANCH  19  20
ENDBRANCH  18  19
ENDBRANCH  17  18
ENDBRANCH  11  12
BRANCH   9  27
ATOM     27  N   UNL     1      -0.527  -3.961  -3.699  0.00  0.00    -0.328 N 
ATOM     28  H   UNL     1      -0.509  -4.865  -3.349  0.00  0.00    +0.145 HD
ATOM     29  H   UNL     1      -0.738  -3.806  -4.633  0.00  0.00    +0.145 HD
ENDBRANCH   9  27
BRANCH  10  30
ATOM     30  C   UNL     1      -0.615  -1.504  -4.786  0.00  0.00    +0.101 C 
ATOM     31  N   UNL     1      -0.872  -1.384  -5.886  0.00  0.00    -0.191 NA
ENDBRANCH  10  30
TORSDOF 6
