REMARK  Name = ZINC22927057
REMARK  10 active torsions:
REMARK  status: ('A' for Active; 'I' for Inactive)
REMARK    1  A    between atoms: C_1  and  N_2
REMARK    2  A    between atoms: N_2  and  C_3
REMARK    3  A    between atoms: N_2  and  C_4
REMARK    4  A    between atoms: C_4  and  C_5
REMARK    5  A    between atoms: C_5  and  N_6
REMARK    6  A    between atoms: N_6  and  C_7
REMARK    7  A    between atoms: C_10  and  C_33
REMARK    8  A    between atoms: C_13  and  C_29
REMARK    9  A    between atoms: C_29  and  O_31
REMARK   10  A    between atoms: O_31  and  C_32
REMARK                            x       y       z     vdW  Elec       q    Type
REMARK                         _______ _______ _______ _____ _____    ______ ____
ROOT
ATOM      1  C   UNL     1      -4.716  -1.276  -3.029  0.00  0.00    -0.068 C 
ATOM      2  C   UNL     1      -4.489   0.229  -3.188  0.00  0.00    +0.008 C 
ATOM      3  C   UNL     1      -5.195   0.975  -2.053  0.00  0.00    +0.087 C 
ATOM      4  N   UNL     1      -6.629   0.665  -2.088  0.00  0.00    -0.274 NA
ATOM      5  C   UNL     1      -7.388   1.490  -1.142  0.00  0.00    +0.172 C 
ATOM      6  C   UNL     1      -8.882   1.422  -1.488  0.00  0.00    +0.068 C 
ATOM      7  C   UNL     1      -9.257  -0.027  -1.673  0.00  0.00    -0.016 A 
ATOM      8  C   UNL     1     -10.567  -0.637  -1.703  0.00  0.00    +0.003 A 
ATOM      9  C   UNL     1     -11.860  -0.120  -1.579  0.00  0.00    +0.010 A 
ATOM     10  C   UNL     1     -12.898  -1.015  -1.659  0.00  0.00    +0.001 A 
ATOM     11  C   UNL     1     -12.688  -2.371  -1.854  0.00  0.00    +0.002 A 
ATOM     12  C   UNL     1     -11.419  -2.910  -1.980  0.00  0.00    +0.026 A 
ATOM     13  C   UNL     1     -10.346  -2.025  -1.903  0.00  0.00    +0.047 A 
ATOM     14  N   UNL     1      -8.996  -2.215  -1.984  0.00  0.00    -0.356 N 
ATOM     15  H   UNL     1      -8.560  -3.071  -2.121  0.00  0.00    +0.166 HD
ATOM     16  C   UNL     1      -8.351  -1.017  -1.844  0.00  0.00    +0.038 A 
ATOM     17  C   UNL     1      -6.863  -0.769  -1.868  0.00  0.00    +0.103 C 
ATOM     18  C   UNL     1      -6.220  -1.565  -3.006  0.00  0.00    +0.009 C 
ENDROOT
BRANCH   3  19
ATOM     19  C   UNL     1      -4.996   2.459  -2.226  0.00  0.00    -0.027 A 
ATOM     20  C   UNL     1      -5.780   3.161  -3.122  0.00  0.00    +0.008 A 
ATOM     21  C   UNL     1      -5.599   4.522  -3.282  0.00  0.00    +0.041 A 
ATOM     22  C   UNL     1      -4.632   5.183  -2.544  0.00  0.00    +0.158 A 
ATOM     23  C   UNL     1      -3.846   4.479  -1.646  0.00  0.00    +0.159 A 
ATOM     24  C   UNL     1      -4.033   3.117  -1.484  0.00  0.00    +0.046 A 
ATOM     25  F   UNL     1      -2.901   5.122  -0.925  0.00  0.00    -0.202 F 
ATOM     26  F   UNL     1      -4.455   6.513  -2.701  0.00  0.00    -0.202 F 
ENDBRANCH   3  19
BRANCH   1  27
ATOM     27  N   UNL     1      -4.111  -1.732  -1.770  0.00  0.00    +0.382 N 
ATOM     28  H   UNL     1      -4.331  -2.706  -1.624  0.00  0.00    -0.085 HD
ATOM     29  H   UNL     1      -4.476  -1.186  -1.004  0.00  0.00    -0.085 HD
BRANCH  27  30
ATOM     30  C   UNL     1      -2.653  -1.565  -1.838  0.00  0.00    -0.067 C 
BRANCH  30  31
ATOM     31  C   UNL     1      -2.023  -2.039  -0.527  0.00  0.00    +0.065 C 
BRANCH  31  33
ATOM     32  C   UNL     1      -0.201  -0.450  -0.664  0.00  0.00    +0.104 C 
ATOM     33  N   UNL     1      -0.565  -1.871  -0.596  0.00  0.00    -0.310 NA
ATOM     34  C   UNL     1       0.095  -2.530   0.539  0.00  0.00    +0.104 C 
ENDBRANCH  31  33
ENDBRANCH  30  31
ENDBRANCH  27  30
ENDBRANCH   1  27
BRANCH   5  35
ATOM     35  C   UNL     1      -7.173   0.977   0.258  0.00  0.00    +0.325 C 
ATOM     36  O   UNL     1      -6.309   0.161   0.476  0.00  0.00    -0.249 OA
BRANCH  35  37
ATOM     37  O   UNL     1      -7.941   1.425   1.263  0.00  0.00    -0.467 OA
ATOM     38  C   UNL     1      -7.681   0.895   2.565  0.00  0.00    +0.280 C 
ENDBRANCH  35  37
ENDBRANCH   5  35
TORSDOF 7
