REMARK  Name = ZINC32996282
REMARK  8 active torsions:
REMARK  status: ('A' for Active; 'I' for Inactive)
REMARK    1  A    between atoms: C_1  and  C_2
REMARK    2  A    between atoms: C_2  and  C_3
REMARK    3  A    between atoms: C_3  and  C_5
REMARK    4  A    between atoms: C_3  and  N_6
REMARK    5  A    between atoms: N_9  and  C_10
REMARK    6  A    between atoms: C_13  and  C_16
REMARK    7  A    between atoms: C_18  and  C_21
REMARK    8  A    between atoms: C_24  and  C_26
REMARK                            x       y       z     vdW  Elec       q    Type
REMARK                         _______ _______ _______ _____ _____    ______ ____
ROOT
ATOM      1  C   UNL     1       8.803   2.253  -0.071  0.00  0.00    +0.035 A 
ATOM      2  C   UNL     1       8.421   0.928   0.108  0.00  0.00    +0.024 A 
ATOM      3  C   UNL     1       7.084   0.592   0.127  0.00  0.00    +0.013 A 
ATOM      4  C   UNL     1       6.116   1.582  -0.034  0.00  0.00    +0.023 A 
ATOM      5  C   UNL     1       6.501   2.909  -0.219  0.00  0.00    +0.013 A 
ATOM      6  C   UNL     1       7.839   3.241  -0.232  0.00  0.00    +0.024 A 
ENDROOT
BRANCH   1  10
ATOM      7  N   UNL     1      12.378   2.007  -0.521  0.00  0.00    -0.297 N 
ATOM      8  C   UNL     1      11.062   1.729  -0.599  0.00  0.00    +0.304 C 
ATOM      9  O   UNL     1      10.688   0.700  -1.128  0.00  0.00    -0.253 OA
ATOM     10  N   UNL     1      10.159   2.591  -0.090  0.00  0.00    -0.269 N 
ATOM     11  H   UNL     1      12.716   2.938  -0.042  0.00  0.00    +0.151 HD
ATOM     12  H   UNL     1      10.489   3.561   0.310  0.00  0.00    +0.156 HD
BRANCH   7  13
ATOM     13  C   UNL     1      13.359   1.070  -1.074  0.00  0.00    +0.071 C 
ATOM     14  C   UNL     1      13.540   1.344  -2.568  0.00  0.00    +0.028 C 
BRANCH  13  16
ATOM     15  C   UNL     1      14.547   0.858   1.114  0.00  0.00    +0.005 C 
ATOM     16  C   UNL     1      14.698   1.252  -0.356  0.00  0.00    +0.019 C 
ENDBRANCH  13  16
ENDBRANCH   7  13
ENDBRANCH   1  10
BRANCH   4  17
ATOM     17  C   UNL     1       4.676   1.222  -0.014  0.00  0.00    +0.202 A 
ATOM     18  N   UNL     1       3.639   2.072  -0.162  0.00  0.00    -0.187 NA
ATOM     19  C   UNL     1       2.553   1.322  -0.074  0.00  0.00    +0.265 A 
ATOM     20  O   UNL     1       2.968   0.057   0.113  0.00  0.00    -0.332 OA
ATOM     21  N   UNL     1       4.180   0.022   0.145  0.00  0.00    -0.056 NA
BRANCH  19  22
ATOM     22  C   UNL     1       1.161   1.781  -0.171  0.00  0.00    +0.077 A 
ATOM     23  C   UNL     1      -0.008   1.044  -0.093  0.00  0.00    +0.021 A 
ATOM     24  C   UNL     1      -1.191   1.732  -0.223  0.00  0.00    +0.012 A 
ATOM     25  C   UNL     1      -1.159   3.076  -0.407  0.00  0.00    -0.013 A 
ATOM     26  S   UNL     1       0.537   3.434  -0.419  0.00  0.00    -0.089 S 
ATOM     27  C   UNL     1      -2.317   4.027  -0.569  0.00  0.00    +0.051 C 
ENDBRANCH  19  22
ENDBRANCH   4  17
TORSDOF 5
