REMARK  Name = ZINC20214719
REMARK  11 active torsions:
REMARK  status: ('A' for Active; 'I' for Inactive)
REMARK    1  A    between atoms: C_1  and  C_2
REMARK    2  A    between atoms: C_2  and  O_3
REMARK    3  A    between atoms: O_3  and  C_4
REMARK    4  A    between atoms: C_4  and  C_6
REMARK    5  A    between atoms: C_7  and  C_24
REMARK    6  A    between atoms: C_12  and  C_14
REMARK    7  A    between atoms: C_17  and  O_20
REMARK    8  A    between atoms: O_20  and  C_21
REMARK    9  A    between atoms: C_21  and  C_22
REMARK   10  A    between atoms: C_21  and  C_23
REMARK   11  A    between atoms: C_24  and  N_25
REMARK                            x       y       z     vdW  Elec       q    Type
REMARK                         _______ _______ _______ _____ _____    ______ ____
ROOT
ATOM      1  C   UNL     1      -1.431   2.921  -0.556  0.00  0.00    +0.079 C 
ATOM      2  C   UNL     1      -2.463   2.051  -0.617  0.00  0.00    +0.038 C 
ATOM      3  N   UNL     1      -3.713   2.410  -0.202  0.00  0.00    -0.271 N 
ATOM      4  C   UNL     1      -4.017   3.623   0.277  0.00  0.00    +0.304 C 
ATOM      5  O   UNL     1      -5.162   3.851   0.617  0.00  0.00    -0.252 OA
ATOM      6  N   UNL     1      -3.096   4.599   0.394  0.00  0.00    -0.288 N 
ATOM      7  C   UNL     1      -1.713   4.311  -0.022  0.00  0.00    +0.144 C 
ATOM      8  H   UNL     1      -4.538   1.684  -0.252  0.00  0.00    +0.156 HD
ATOM      9  H   UNL     1      -3.356   5.593   0.788  0.00  0.00    +0.151 HD
ENDROOT
BRANCH   7  10
ATOM     10  C   UNL     1      -0.813   4.544   1.165  0.00  0.00    -0.022 A 
ATOM     11  C   UNL     1      -1.152   4.024   2.400  0.00  0.00    +0.009 A 
ATOM     12  C   UNL     1      -0.327   4.231   3.488  0.00  0.00    +0.046 A 
ATOM     13  C   UNL     1       0.837   4.971   3.343  0.00  0.00    +0.121 A 
ATOM     14  C   UNL     1       1.172   5.497   2.104  0.00  0.00    +0.046 A 
ATOM     15  C   UNL     1       0.346   5.283   1.018  0.00  0.00    +0.009 A 
BRANCH  13  16
ATOM     16  O   UNL     1       1.648   5.181   4.413  0.00  0.00    -0.489 OA
BRANCH  16  17
ATOM     17  C   UNL     1       2.888   5.849   4.167  0.00  0.00    +0.167 C 
ATOM     18  C   UNL     1       2.665   7.362   4.190  0.00  0.00    +0.051 C 
ATOM     19  C   UNL     1       3.897   5.465   5.251  0.00  0.00    +0.051 C 
ENDBRANCH  16  17
ENDBRANCH  13  16
ENDBRANCH   7  10
BRANCH   1  20
ATOM     20  C   UNL     1      -0.134   2.549  -0.980  0.00  0.00    +0.339 C 
ATOM     21  O   UNL     1       0.707   2.235  -0.159  0.00  0.00    -0.245 OA
BRANCH  20  22
ATOM     22  O   UNL     1       0.168   2.538  -2.295  0.00  0.00    -0.462 OA
BRANCH  22  24
ATOM     23  C   UNL     1       1.649   2.194  -4.174  0.00  0.00    +0.048 C 
ATOM     24  C   UNL     1       1.495   2.146  -2.652  0.00  0.00    +0.229 C 
ENDBRANCH  22  24
ENDBRANCH  20  22
ENDBRANCH   1  20
BRANCH   2  25
ATOM     25  C   UNL     1      -2.228   0.660  -1.147  0.00  0.00    +0.136 C 
BRANCH  25  26
ATOM     26  N   UNL     1      -2.489  -0.319  -0.084  0.00  0.00    -0.294 NA
ATOM     27  C   UNL     1      -1.506  -0.192   1.001  0.00  0.00    +0.103 C 
ATOM     28  C   UNL     1      -1.859  -1.173   2.122  0.00  0.00    +0.122 C 
ATOM     29  N   UNL     1      -1.873  -2.541   1.586  0.00  0.00    -0.311 N 
ATOM     30  C   UNL     1      -2.855  -2.668   0.500  0.00  0.00    +0.122 C 
ATOM     31  C   UNL     1      -2.502  -1.687  -0.621  0.00  0.00    +0.103 C 
ATOM     32  C   UNL     1      -2.119  -3.469   2.593  0.00  0.00    +0.144 A 
ATOM     33  C   UNL     1      -1.294  -3.519   3.716  0.00  0.00    +0.048 A 
ATOM     34  C   UNL     1      -1.586  -4.457   4.694  0.00  0.00    +0.045 A 
ATOM     35  C   UNL     1      -2.674  -5.296   4.489  0.00  0.00    +0.152 A 
ATOM     36  N   UNL     1      -3.397  -5.182   3.392  0.00  0.00    -0.136 NA
ATOM     37  N   UNL     1      -3.136  -4.311   2.486  0.00  0.00    -0.133 NA
ATOM     38 CL   UNL     1      -3.082  -6.495   5.677  0.00  0.00    -0.060 Cl
ENDBRANCH  25  26
ENDBRANCH   2  25
TORSDOF 8
