REMARK  Name = ZINC13028685
REMARK  8 active torsions:
REMARK  status: ('A' for Active; 'I' for Inactive)
REMARK    1  A    between atoms: C_1  and  C_2
REMARK    2  A    between atoms: C_7  and  C_8
REMARK    3  A    between atoms: C_8  and  C_10
REMARK    4  A    between atoms: C_8  and  N_19
REMARK    5  A    between atoms: N_12  and  C_13
REMARK    6  A    between atoms: N_19  and  C_20
REMARK    7  A    between atoms: C_29  and  C_31
REMARK    8  A    between atoms: C_31  and  N_32
REMARK                            x       y       z     vdW  Elec       q    Type
REMARK                         _______ _______ _______ _____ _____    ______ ____
ROOT
ATOM      1  N   UNL     1      -2.345   0.849  -0.083  0.00  0.00    -0.254 N 
ATOM      2  C   UNL     1      -2.421  -0.490  -0.221  0.00  0.00    +0.242 C 
ATOM      3  O   UNL     1      -3.503  -1.036  -0.249  0.00  0.00    -0.273 OA
ENDROOT
BRANCH   1   4
ATOM      4  C   UNL     1      -1.103   1.492  -0.156  0.00  0.00    +0.041 A 
ATOM      5  C   UNL     1      -0.505   1.708  -1.390  0.00  0.00    +0.027 A 
ATOM      6  C   UNL     1       0.723   2.338  -1.463  0.00  0.00    +0.051 A 
ATOM      7  C   UNL     1       1.359   2.758  -0.306  0.00  0.00    +0.166 A 
ATOM      8  C   UNL     1       0.760   2.545   0.933  0.00  0.00    +0.168 A 
ATOM      9  C   UNL     1      -0.471   1.915   1.006  0.00  0.00    +0.073 A 
ATOM     10  O   UNL     1       1.579   3.044   1.905  0.00  0.00    -0.453 OA
ATOM     11  C   UNL     1       2.868   3.196   1.282  0.00  0.00    +0.466 C 
ATOM     12  O   UNL     1       2.554   3.391  -0.110  0.00  0.00    -0.453 OA
ENDBRANCH   1   4
BRANCH   1  13
ATOM     13  C   UNL     1      -3.563   1.631   0.145  0.00  0.00    +0.197 C 
BRANCH  13  20
ATOM     14  C   UNL     1      -3.692   0.406   2.758  0.00  0.00    +0.044 C 
ATOM     15  C   UNL     1      -3.455   1.889   2.632  0.00  0.00    -0.045 A 
ATOM     16  C   UNL     1      -3.300   2.663   3.767  0.00  0.00    +0.004 A 
ATOM     17  C   UNL     1      -3.083   4.023   3.651  0.00  0.00    +0.000 A 
ATOM     18  C   UNL     1      -3.020   4.610   2.401  0.00  0.00    +0.000 A 
ATOM     19  C   UNL     1      -3.171   3.835   1.266  0.00  0.00    +0.006 A 
ATOM     20  C   UNL     1      -3.394   2.475   1.382  0.00  0.00    -0.015 A 
ENDBRANCH  13  20
BRANCH  13  21
ATOM     21  C   UNL     1      -3.814   2.525  -1.042  0.00  0.00    +0.239 C 
ATOM     22  O   UNL     1      -2.942   2.698  -1.867  0.00  0.00    -0.273 OA
ATOM     23  N   UNL     1      -5.009   3.131  -1.188  0.00  0.00    -0.311 N 
ATOM     24  H   UNL     1      -5.680   3.056  -0.491  0.00  0.00    +0.149 HD
BRANCH  23  25
ATOM     25  C   UNL     1      -5.295   3.905  -2.399  0.00  0.00    +0.073 C 
ATOM     26  C   UNL     1      -4.758   5.328  -2.233  0.00  0.00    +0.022 C 
ATOM     27  C   UNL     1      -5.056   6.136  -3.498  0.00  0.00    +0.002 C 
ATOM     28  C   UNL     1      -6.568   6.185  -3.727  0.00  0.00    +0.000 C 
ATOM     29  C   UNL     1      -7.105   4.762  -3.892  0.00  0.00    +0.002 C 
ATOM     30  C   UNL     1      -6.807   3.954  -2.628  0.00  0.00    +0.022 C 
ENDBRANCH  23  25
ENDBRANCH  13  21
ENDBRANCH   1  13
BRANCH   2  31
ATOM     31  C   UNL     1      -1.161  -1.307  -0.343  0.00  0.00    +0.242 C 
BRANCH  31  32
ATOM     32  N   UNL     1      -1.509  -2.715  -0.546  0.00  0.00    -0.235 N 
ATOM     33  C   UNL     1      -1.698  -3.665   0.429  0.00  0.00    +0.090 A 
ATOM     34  C   UNL     1      -1.648  -3.647   1.819  0.00  0.00    +0.029 A 
ATOM     35  C   UNL     1      -1.900  -4.791   2.523  0.00  0.00    +0.002 A 
ATOM     36  C   UNL     1      -2.210  -5.973   1.863  0.00  0.00    +0.002 A 
ATOM     37  C   UNL     1      -2.271  -6.016   0.501  0.00  0.00    +0.032 A 
ATOM     38  C   UNL     1      -2.018  -4.857  -0.245  0.00  0.00    +0.113 A 
ATOM     39  N   UNL     1      -2.003  -4.596  -1.567  0.00  0.00    -0.129 NA
ATOM     40  N   UNL     1      -1.711  -3.361  -1.776  0.00  0.00    -0.064 NA
ENDBRANCH  31  32
ENDBRANCH   2  31
TORSDOF 7
