REMARK  Name = ZINC36754097
REMARK  10 active torsions:
REMARK  status: ('A' for Active; 'I' for Inactive)
REMARK    1  A    between atoms: C_1  and  C_2
REMARK    2  A    between atoms: C_2  and  C_3
REMARK    3  A    between atoms: C_2  and  C_4
REMARK    4  A    between atoms: C_4  and  N_5
REMARK    5  A    between atoms: N_5  and  C_6
REMARK    6  A    between atoms: C_7  and  N_22
REMARK    7  A    between atoms: N_8  and  C_15
REMARK    8  A    between atoms: C_15  and  C_16
REMARK    9  A    between atoms: C_23  and  C_25
REMARK   10  A    between atoms: C_25  and  N_26
REMARK                            x       y       z     vdW  Elec       q    Type
REMARK                         _______ _______ _______ _____ _____    ______ ____
ROOT
ATOM      1  N   UNL     1      -1.928  -0.098  -1.153  0.00  0.00    -0.263 N 
ATOM      2  C   UNL     1      -2.499   1.124  -1.182  0.00  0.00    +0.237 C 
ATOM      3  O   UNL     1      -3.111   1.484  -2.166  0.00  0.00    -0.274 OA
ENDROOT
BRANCH   1   4
ATOM      4  C   UNL     1      -1.957  -0.919  -2.300  0.00  0.00    +0.140 A 
ATOM      5  C   UNL     1      -0.786  -1.292  -2.926  0.00  0.00    +0.128 A 
ATOM      6  N   UNL     1      -0.847  -2.093  -4.043  0.00  0.00    -0.276 N 
ATOM      7  C   UNL     1      -2.035  -2.507  -4.519  0.00  0.00    +0.331 A 
ATOM      8  O   UNL     1      -2.068  -3.215  -5.508  0.00  0.00    -0.246 OA
ATOM      9  N   UNL     1      -3.187  -2.154  -3.921  0.00  0.00    -0.273 N 
ATOM     10  H   UNL     1      -4.031  -2.467  -4.284  0.00  0.00    +0.173 HD
ATOM     11  C   UNL     1      -3.182  -1.376  -2.821  0.00  0.00    +0.277 A 
ATOM     12  O   UNL     1      -4.232  -1.066  -2.284  0.00  0.00    -0.266 OA
BRANCH   5  13
ATOM     13  N   UNL     1       0.428  -0.868  -2.441  0.00  0.00    -0.343 N 
ATOM     14  H   UNL     1       0.467  -0.341  -1.627  0.00  0.00    +0.144 HD
ATOM     15  H   UNL     1       1.245  -1.094  -2.912  0.00  0.00    +0.144 HD
ENDBRANCH   5  13
BRANCH   6  16
ATOM     16  C   UNL     1       0.389  -2.496  -4.718  0.00  0.00    +0.163 C 
BRANCH  16  17
ATOM     17  C   UNL     1       0.886  -3.789  -4.125  0.00  0.00    -0.028 A 
ATOM     18  C   UNL     1       1.749  -3.768  -3.046  0.00  0.00    +0.005 A 
ATOM     19  C   UNL     1       2.205  -4.955  -2.502  0.00  0.00    +0.000 A 
ATOM     20  C   UNL     1       1.798  -6.162  -3.038  0.00  0.00    +0.000 A 
ATOM     21  C   UNL     1       0.933  -6.183  -4.117  0.00  0.00    +0.000 A 
ATOM     22  C   UNL     1       0.474  -4.997  -4.658  0.00  0.00    +0.005 A 
ENDBRANCH  16  17
ENDBRANCH   6  16
ENDBRANCH   1   4
BRANCH   1  23
ATOM     23  C   UNL     1      -1.277  -0.573   0.071  0.00  0.00    +0.117 C 
BRANCH  23  25
ATOM     24  C   UNL     1      -2.898  -2.452   0.357  0.00  0.00    +0.009 C 
ATOM     25  C   UNL     1      -2.325  -1.188   1.001  0.00  0.00    +0.001 C 
ATOM     26  C   UNL     1      -1.673  -1.547   2.338  0.00  0.00    +0.009 C 
ENDBRANCH  23  25
ENDBRANCH   1  23
BRANCH   2  27
ATOM     27  C   UNL     1      -2.376   2.042   0.006  0.00  0.00    +0.201 C 
BRANCH  27  28
ATOM     28  N   UNL     1      -3.059   3.306  -0.281  0.00  0.00    -0.319 N 
ATOM     29  C   UNL     1      -2.335   4.420  -0.908  0.00  0.00    +0.106 C 
ATOM     30  C   UNL     1      -2.708   5.704  -0.155  0.00  0.00    +0.024 C 
ATOM     31  C   UNL     1      -4.205   5.961  -0.329  0.00  0.00    +0.039 C 
ATOM     32  C   UNL     1      -4.996   4.730   0.028  0.00  0.00    -0.021 A 
ATOM     33  C   UNL     1      -4.416   3.471   0.033  0.00  0.00    +0.069 A 
ATOM     34  C   UNL     1      -5.177   2.352   0.358  0.00  0.00    +0.147 A 
ATOM     35  C   UNL     1      -6.515   2.493   0.673  0.00  0.00    +0.078 A 
ATOM     36  C   UNL     1      -7.096   3.750   0.665  0.00  0.00    +0.126 A 
ATOM     37  C   UNL     1      -6.337   4.867   0.351  0.00  0.00    +0.044 A 
ATOM     38  F   UNL     1      -8.404   3.890   0.974  0.00  0.00    -0.205 F 
ATOM     39  F   UNL     1      -4.607   1.127   0.365  0.00  0.00    -0.203 F 
ENDBRANCH  27  28
ENDBRANCH   2  27
TORSDOF 8
