REMARK  Name = ZINC10010869
REMARK  11 active torsions:
REMARK  status: ('A' for Active; 'I' for Inactive)
REMARK    1  A    between atoms: C_1  and  C_2
REMARK    2  A    between atoms: C_4  and  C_35
REMARK    3  A    between atoms: C_6  and  N_8
REMARK    4  A    between atoms: N_8  and  S_9
REMARK    5  A    between atoms: S_9  and  C_12
REMARK    6  A    between atoms: C_15  and  N_18
REMARK    7  A    between atoms: N_18  and  C_19
REMARK    8  A    between atoms: C_19  and  N_21
REMARK    9  A    between atoms: C_22  and  C_24
REMARK   10  A    between atoms: C_25  and  C_26
REMARK   11  A    between atoms: C_30  and  N_32
REMARK                            x       y       z     vdW  Elec       q    Type
REMARK                         _______ _______ _______ _____ _____    ______ ____
ROOT
ATOM      1  C   UNL     1      -3.410  14.393  -0.228  0.00  0.00    +0.109 A 
ATOM      2  C   UNL     1      -4.666  13.813  -0.250  0.00  0.00    +0.030 A 
ATOM      3  C   UNL     1      -4.793  12.439  -0.316  0.00  0.00    +0.025 A 
ATOM      4  C   UNL     1      -3.658  11.640  -0.360  0.00  0.00    +0.033 A 
ATOM      5  C   UNL     1      -2.398  12.225  -0.332  0.00  0.00    +0.025 A 
ATOM      6  C   UNL     1      -2.278  13.599  -0.272  0.00  0.00    +0.030 A 
ENDROOT
BRANCH   1   7
ATOM      7  S   UNL     1      -3.253  16.145  -0.144  0.00  0.00    +0.072 S 
ATOM      8  O   UNL     1      -2.025  16.474  -0.780  0.00  0.00    -0.150 OA
ATOM      9  O   UNL     1      -4.498  16.686  -0.565  0.00  0.00    -0.150 OA
BRANCH   7  10
ATOM     10  N   UNL     1      -3.079  16.545   1.454  0.00  0.00    -0.216 N 
ATOM     11  H   UNL     1      -3.766  17.064   1.901  0.00  0.00    +0.174 HD
BRANCH  10  17
ATOM     12  C   UNL     1      -1.005  13.589   4.788  0.00  0.00    +0.044 C 
ATOM     13  C   UNL     1      -0.909  14.705   3.780  0.00  0.00    -0.048 A 
ATOM     14  C   UNL     1       0.305  15.326   3.550  0.00  0.00    +0.006 A 
ATOM     15  C   UNL     1       0.398  16.350   2.626  0.00  0.00    -0.048 A 
ATOM     16  C   UNL     1      -0.722  16.757   1.929  0.00  0.00    +0.028 A 
ATOM     17  C   UNL     1      -1.944  16.136   2.157  0.00  0.00    +0.049 A 
ATOM     18  C   UNL     1      -2.035  15.111   3.090  0.00  0.00    +0.028 A 
ATOM     19  C   UNL     1       1.724  17.023   2.379  0.00  0.00    +0.044 C 
ENDBRANCH  10  17
ENDBRANCH   7  10
ENDBRANCH   1   7
BRANCH   4  20
ATOM     20  N   UNL     1      -3.783  10.248  -0.427  0.00  0.00    -0.297 N 
ATOM     21  H   UNL     1      -3.236   9.684   0.142  0.00  0.00    +0.154 HD
BRANCH  20  22
ATOM     22  C   UNL     1      -4.663   9.691  -1.282  0.00  0.00    +0.141 C 
ATOM     23  S   UNL     1      -5.705  10.686  -2.207  0.00  0.00    -0.018 S 
BRANCH  22  24
ATOM     24  N   UNL     1      -4.723   8.351  -1.409  0.00  0.00    -0.264 N 
ATOM     25  C   UNL     1      -5.603   7.794  -2.264  0.00  0.00    +0.242 C 
ATOM     26  O   UNL     1      -6.344   8.501  -2.922  0.00  0.00    -0.270 OA
ATOM     27  H   UNL     1      -4.133   7.787  -0.885  0.00  0.00    +0.157 HD
BRANCH  25  28
ATOM     28  C   UNL     1      -5.669   6.339  -2.402  0.00  0.00    +0.068 C 
ATOM     29  C   UNL     1      -6.550   5.781  -3.258  0.00  0.00    +0.013 C 
BRANCH  29  30
ATOM     30  C   UNL     1      -6.615   4.317  -3.397  0.00  0.00    -0.023 A 
ATOM     31  C   UNL     1      -5.765   3.501  -2.643  0.00  0.00    +0.008 A 
ATOM     32  C   UNL     1      -5.837   2.131  -2.775  0.00  0.00    +0.003 A 
ATOM     33  C   UNL     1      -6.738   1.562  -3.659  0.00  0.00    +0.033 A 
ATOM     34  C   UNL     1      -7.582   2.363  -4.408  0.00  0.00    +0.127 A 
ATOM     35  C   UNL     1      -7.527   3.736  -4.283  0.00  0.00    +0.040 A 
BRANCH  34  36
ATOM     36  N   UNL     1      -8.547   1.745  -5.345  0.00  0.00    +0.056 N 
ATOM     37  O   UNL     1      -8.597   0.533  -5.457  0.00  0.00    -0.126 OA
ATOM     38  O   UNL     1      -9.290   2.449  -6.006  0.00  0.00    -0.126 OA
ENDBRANCH  34  36
ENDBRANCH  29  30
ENDBRANCH  25  28
ENDBRANCH  22  24
ENDBRANCH  20  22
ENDBRANCH   4  20
TORSDOF 9
