REMARK  Name = ZINC07571293
REMARK  8 active torsions:
REMARK  status: ('A' for Active; 'I' for Inactive)
REMARK    1  A    between atoms: C_1  and  C_2
REMARK    2  A    between atoms: C_7  and  C_8
REMARK    3  A    between atoms: N_11  and  C_12
REMARK    4  A    between atoms: C_12  and  C_14
REMARK    5  A    between atoms: N_25  and  C_26
REMARK    6  A    between atoms: C_26  and  C_27
REMARK    7  A    between atoms: C_27  and  S_28
REMARK    8  A    between atoms: S_28  and  C_29
REMARK                            x       y       z     vdW  Elec       q    Type
REMARK                         _______ _______ _______ _____ _____    ______ ____
ROOT
ATOM      1  C   UNL     1       8.949  12.465   0.230  0.00  0.00    +0.044 C 
ATOM      2  C   UNL     1       8.379  11.086   0.439  0.00  0.00    -0.046 A 
ATOM      3  C   UNL     1       7.111  10.804  -0.012  0.00  0.00    +0.030 A 
ATOM      4  C   UNL     1       6.552   9.530   0.167  0.00  0.00    +0.058 A 
ATOM      5  C   UNL     1       7.347   8.578   0.822  0.00  0.00    +0.039 A 
ATOM      6  C   UNL     1       8.615   8.860   1.273  0.00  0.00    +0.020 A 
ATOM      7  C   UNL     1       9.142  10.126   1.082  0.00  0.00    -0.046 A 
ATOM      8  C   UNL     1      10.530  10.455   1.569  0.00  0.00    +0.044 C 
ATOM      9  S   UNL     1       6.310   7.138   0.860  0.00  0.00    -0.052 S 
ATOM     10  C   UNL     1       4.931   7.798   0.043  0.00  0.00    +0.167 A 
ATOM     11  N   UNL     1       3.780   7.197  -0.252  0.00  0.00    -0.153 NA
ATOM     12  N   UNL     1       5.304   9.078  -0.220  0.00  0.00    -0.320 N 
ENDROOT
BRANCH  11  13
ATOM     13  C   UNL     1       3.589   5.926   0.085  0.00  0.00    +0.283 C 
ATOM     14  O   UNL     1       4.465   5.312   0.663  0.00  0.00    -0.269 OA
BRANCH  13  15
ATOM     15  C   UNL     1       2.286   5.245  -0.248  0.00  0.00    +0.298 C 
ATOM     16  C   UNL     1       1.142   5.906   0.532  0.00  0.00    +0.283 C 
ATOM     17  O   UNL     1      -0.075   5.229   0.203  0.00  0.00    -0.484 OA
ATOM     18  C   UNL     1      -0.040   3.869   0.213  0.00  0.00    +0.162 A 
ATOM     19  C   UNL     1      -1.230   3.157   0.264  0.00  0.00    +0.049 A 
ATOM     20  C   UNL     1      -1.211   1.776   0.266  0.00  0.00    +0.004 A 
ATOM     21  C   UNL     1      -0.006   1.098   0.229  0.00  0.00    +0.004 A 
ATOM     22  C   UNL     1       1.183   1.801   0.180  0.00  0.00    +0.049 A 
ATOM     23  C   UNL     1       1.171   3.188   0.173  0.00  0.00    +0.163 A 
ATOM     24  O   UNL     1       2.350   3.866   0.132  0.00  0.00    -0.472 OA
ENDBRANCH  13  15
ENDBRANCH  11  13
BRANCH  12  25
ATOM     25  C   UNL     1       4.382   9.981  -0.913  0.00  0.00    +0.135 C 
BRANCH  25  26
ATOM     26  C   UNL     1       3.603   9.200  -1.972  0.00  0.00    +0.090 C 
BRANCH  26  27
ATOM     27  S   UNL     1       2.593  10.347  -2.950  0.00  0.00    -0.162 S 
ATOM     28  C   UNL     1       1.744   9.277  -4.144  0.00  0.00    +0.084 C 
ENDBRANCH  26  27
ENDBRANCH  25  26
ENDBRANCH  12  25
TORSDOF 5
