REMARK  Name = ZINC59890386
REMARK  12 active torsions:
REMARK  status: ('A' for Active; 'I' for Inactive)
REMARK    1  A    between atoms: C_1  and  C_2
REMARK    2  A    between atoms: C_7  and  C_9
REMARK    3  A    between atoms: C_7  and  N_30
REMARK    4  A    between atoms: C_9  and  N_10
REMARK    5  A    between atoms: C_11  and  C_13
REMARK    6  A    between atoms: C_16  and  O_28
REMARK    7  A    between atoms: C_17  and  S_19
REMARK    8  A    between atoms: S_19  and  N_22
REMARK    9  A    between atoms: N_22  and  C_23
REMARK   10  A    between atoms: O_28  and  C_29
REMARK   11  A    between atoms: N_30  and  C_31
REMARK   12  A    between atoms: N_30  and  C_32
REMARK                            x       y       z     vdW  Elec       q    Type
REMARK                         _______ _______ _______ _____ _____    ______ ____
ROOT
ATOM      1  C   UNL     1       2.724  -6.050  -0.938  0.00  0.00    +0.039 A 
ATOM      2  C   UNL     1       1.914  -6.853  -0.130  0.00  0.00    +0.017 A 
ATOM      3  C   UNL     1       1.955  -8.223  -0.263  0.00  0.00    +0.048 A 
ATOM      4  C   UNL     1       2.800  -8.807  -1.199  0.00  0.00    +0.146 A 
ATOM      5  C   UNL     1       3.607  -8.012  -2.004  0.00  0.00    +0.147 A 
ATOM      6  C   UNL     1       3.568  -6.641  -1.881  0.00  0.00    +0.045 A 
ENDROOT
BRANCH   1   8
ATOM      7  N   UNL     1       1.867  -4.013   0.111  0.00  0.00    -0.313 N 
ATOM      8  C   UNL     1       2.682  -4.581  -0.799  0.00  0.00    +0.244 C 
ATOM      9  O   UNL     1       3.384  -3.884  -1.506  0.00  0.00    -0.270 OA
ATOM     10  H   UNL     1       1.308  -4.569   0.676  0.00  0.00    +0.149 HD
BRANCH   7  11
ATOM     11  C   UNL     1       1.826  -2.555   0.249  0.00  0.00    +0.092 C 
BRANCH  11  17
ATOM     12  C   UNL     1       3.110  -2.682   4.380  0.00  0.00    +0.007 C 
ATOM     13  C   UNL     1       2.646  -2.132   3.030  0.00  0.00    -0.015 C 
ATOM     14  C   UNL     1       2.536  -0.608   3.111  0.00  0.00    +0.003 C 
ATOM     15  C   UNL     1       2.072  -0.058   1.761  0.00  0.00    -0.001 C 
ATOM     16  C   UNL     1       0.705  -0.649   1.412  0.00  0.00    -0.010 C 
ATOM     17  C   UNL     1       0.814  -2.173   1.331  0.00  0.00    -0.050 C 
ATOM     18  C   UNL     1       1.279  -2.724   2.681  0.00  0.00    -0.007 C 
BRANCH  17  19
ATOM     19  N   UNL     1      -0.498  -2.741   0.996  0.00  0.00    +0.381 N 
ATOM     20  C   UNL     1      -1.487  -2.311   1.994  0.00  0.00    -0.096 C 
ATOM     21  C   UNL     1      -0.910  -2.273  -0.334  0.00  0.00    -0.096 C 
ATOM     22  H   UNL     1      -0.439  -3.748   0.995  0.00  0.00    -0.082 HD
ENDBRANCH  17  19
ENDBRANCH  11  17
ENDBRANCH   7  11
ENDBRANCH   1   8
BRANCH   5  23
ATOM     23  S   UNL     1       4.677  -8.759  -3.189  0.00  0.00    +0.062 S 
ATOM     24  O   UNL     1       3.891  -9.696  -3.912  0.00  0.00    -0.153 OA
ATOM     25  O   UNL     1       5.379  -7.701  -3.826  0.00  0.00    -0.153 OA
BRANCH  23  26
ATOM     26  N   UNL     1       5.803  -9.635  -2.348  0.00  0.00    -0.187 NA
ATOM     27  H   UNL     1       6.738  -9.381  -2.381  0.00  0.00    +0.148 HD
BRANCH  26  28
ATOM     28  C   UNL     1       5.386 -10.793  -1.554  0.00  0.00    +0.077 C 
ATOM     29  C   UNL     1       5.233 -10.391  -0.072  0.00  0.00    +0.020 C 
ATOM     30  C   UNL     1       5.745 -11.625   0.712  0.00  0.00    +0.002 C 
ATOM     31  C   UNL     1       6.939 -12.106  -0.150  0.00  0.00    +0.002 C 
ATOM     32  C   UNL     1       6.471 -11.884  -1.603  0.00  0.00    +0.020 C 
ENDBRANCH  26  28
ENDBRANCH  23  26
ENDBRANCH   5  23
BRANCH   4  33
ATOM     33  O   UNL     1       2.838 -10.158  -1.326  0.00  0.00    -0.493 OA
ATOM     34  C   UNL     1       1.984 -10.915  -0.467  0.00  0.00    +0.277 C 
ENDBRANCH   4  33
TORSDOF 8
