REMARK  Name = ZINC28853182
REMARK  10 active torsions:
REMARK  status: ('A' for Active; 'I' for Inactive)
REMARK    1  A    between atoms: C_1  and  C_2
REMARK    2  A    between atoms: C_3  and  C_12
REMARK    3  A    between atoms: C_12  and  C_14
REMARK    4  A    between atoms: C_14  and  C_16
REMARK    5  A    between atoms: C_14  and  N_17
REMARK    6  A    between atoms: N_17  and  C_18
REMARK    7  A    between atoms: C_21  and  O_33
REMARK    8  A    between atoms: C_22  and  S_24
REMARK    9  A    between atoms: S_24  and  N_27
REMARK   10  A    between atoms: O_33  and  C_34
REMARK                            x       y       z     vdW  Elec       q    Type
REMARK                         _______ _______ _______ _____ _____    ______ ____
ROOT
ATOM      1  N   UNL     1       2.241   4.008  -0.133  0.00  0.00    -0.334 N 
ATOM      2  H   UNL     1       2.315   5.084   0.080  0.00  0.00    +0.147 HD
ENDROOT
BRANCH   1   3
ATOM      3  C   UNL     1       0.988   3.419  -0.337  0.00  0.00    +0.030 A 
ATOM      4  C   UNL     1       0.894   2.060  -0.606  0.00  0.00    +0.026 A 
ATOM      5  C   UNL     1      -0.343   1.480  -0.807  0.00  0.00    +0.049 A 
ATOM      6  C   UNL     1      -1.491   2.256  -0.745  0.00  0.00    +0.146 A 
ATOM      7  C   UNL     1      -1.399   3.612  -0.470  0.00  0.00    +0.149 A 
ATOM      8  C   UNL     1      -0.162   4.194  -0.269  0.00  0.00    +0.055 A 
BRANCH   7   9
ATOM      9  S   UNL     1      -2.859   4.595  -0.384  0.00  0.00    +0.064 S 
ATOM     10  O   UNL     1      -3.765   3.903   0.465  0.00  0.00    -0.153 OA
ATOM     11  O   UNL     1      -2.437   5.927  -0.123  0.00  0.00    -0.153 OA
BRANCH   9  12
ATOM     12  N   UNL     1      -3.536   4.600  -1.895  0.00  0.00    -0.176 NA
ATOM     13  C   UNL     1      -3.172   5.633  -2.874  0.00  0.00    +0.109 C 
ATOM     14  C   UNL     1      -2.716   4.941  -4.168  0.00  0.00    +0.017 C 
ATOM     15  C   UNL     1      -3.813   3.985  -4.642  0.00  0.00    +0.003 C 
ATOM     16  C   UNL     1      -4.048   2.910  -3.578  0.00  0.00    +0.017 C 
ATOM     17  C   UNL     1      -4.516   3.575  -2.280  0.00  0.00    +0.109 C 
ENDBRANCH   9  12
ENDBRANCH   7   9
BRANCH   6  18
ATOM     18  O   UNL     1      -2.709   1.685  -0.948  0.00  0.00    -0.493 OA
ATOM     19  C   UNL     1      -2.730   0.283  -1.221  0.00  0.00    +0.277 C 
ENDBRANCH   6  18
ENDBRANCH   1   3
BRANCH   1  20
ATOM     20  C   UNL     1       3.455   3.190  -0.205  0.00  0.00    +0.139 C 
ATOM     21  C   UNL     1       3.707   2.532   1.152  0.00  0.00    +0.036 C 
BRANCH  20  22
ATOM     22  C   UNL     1       4.628   4.064  -0.566  0.00  0.00    +0.185 C 
ATOM     23  O   UNL     1       4.575   5.262  -0.374  0.00  0.00    -0.290 OA
BRANCH  22  26
ATOM     24  C   UNL     1       5.041   3.453  -3.577  0.00  0.00    +0.064 C 
ATOM     25  C   UNL     1       6.018   3.200  -2.458  0.00  0.00    +0.024 A 
ATOM     26  C   UNL     1       5.795   3.488  -1.128  0.00  0.00    +0.047 A 
ATOM     27  C   UNL     1       7.018   3.080  -0.408  0.00  0.00    +0.010 A 
ATOM     28  C   UNL     1       7.406   3.104   0.928  0.00  0.00    +0.011 A 
ATOM     29  C   UNL     1       8.649   2.628   1.286  0.00  0.00    +0.001 A 
ATOM     30  C   UNL     1       9.509   2.123   0.321  0.00  0.00    +0.002 A 
ATOM     31  C   UNL     1       9.134   2.089  -1.004  0.00  0.00    +0.026 A 
ATOM     32  C   UNL     1       7.883   2.564  -1.385  0.00  0.00    +0.047 A 
ATOM     33  N   UNL     1       7.242   2.659  -2.604  0.00  0.00    -0.358 N 
ATOM     34  H   UNL     1       7.597   2.363  -3.602  0.00  0.00    +0.166 HD
ENDBRANCH  22  26
ENDBRANCH  20  22
ENDBRANCH   1  20
TORSDOF 7
