REMARK  Name = ZINC13301034
REMARK  4 active torsions:
REMARK  status: ('A' for Active; 'I' for Inactive)
REMARK    1  A    between atoms: C_1  and  C_2
REMARK    2  A    between atoms: C_6  and  C_24
REMARK    3  A    between atoms: C_9  and  C_12
REMARK    4  A    between atoms: N_14  and  C_15
REMARK                            x       y       z     vdW  Elec       q    Type
REMARK                         _______ _______ _______ _____ _____    ______ ____
ROOT
ATOM      1  C   UNL     1      -2.826  -2.585   0.017  0.00  0.00    +0.223 C 
ATOM      2  O   UNL     1      -3.759  -1.810   0.039  0.00  0.00    -0.275 OA
ATOM      3  N   UNL     1      -3.055  -3.913   0.010  0.00  0.00    -0.285 N 
ATOM      4  H   UNL     1      -2.213  -4.616  -0.086  0.00  0.00    +0.155 HD
ENDROOT
BRANCH   1  13
ATOM      5  C   UNL     1       1.437  -2.514  -2.553  0.00  0.00    +0.011 C 
ATOM      6  C   UNL     1       0.730  -2.024  -1.287  0.00  0.00    -0.030 C 
ATOM      7  C   UNL     1       1.479  -2.534  -0.054  0.00  0.00    +0.010 C 
ATOM      8  C   UNL     1       0.772  -2.044   1.211  0.00  0.00    -0.009 C 
ATOM      9  C   UNL     1       0.751  -0.515   1.223  0.00  0.00    +0.010 C 
ATOM     10  C   UNL     1       0.002  -0.004  -0.009  0.00  0.00    -0.030 C 
ATOM     11  C   UNL     1       0.710  -0.494  -1.275  0.00  0.00    +0.013 C 
ATOM     12  C   UNL     1      -1.433  -0.534   0.010  0.00  0.00    +0.023 C 
ATOM     13  C   UNL     1      -1.412  -2.064  -0.002  0.00  0.00    +0.049 C 
ATOM     14  C   UNL     1      -0.664  -2.574   1.230  0.00  0.00    +0.019 C 
ATOM     15  C   UNL     1      -0.705  -2.554  -1.268  0.00  0.00    +0.023 C 
ATOM     16  C   UNL     1      -0.018   1.526   0.003  0.00  0.00    +0.011 C 
ENDBRANCH   1  13
BRANCH   3  17
ATOM     17  C   UNL     1      -4.363  -4.400   0.126  0.00  0.00    +0.037 A 
ATOM     18  C   UNL     1      -5.416  -3.703  -0.452  0.00  0.00    +0.027 A 
ATOM     19  C   UNL     1      -6.708  -4.181  -0.339  0.00  0.00    +0.051 A 
ATOM     20  C   UNL     1      -6.956  -5.357   0.352  0.00  0.00    +0.166 A 
ATOM     21  C   UNL     1      -5.902  -6.058   0.932  0.00  0.00    +0.168 A 
ATOM     22  C   UNL     1      -4.607  -5.581   0.813  0.00  0.00    +0.072 A 
ATOM     23  O   UNL     1      -6.402  -7.168   1.548  0.00  0.00    -0.453 OA
ATOM     24  C   UNL     1      -7.815  -6.926   1.689  0.00  0.00    +0.466 C 
ATOM     25  O   UNL     1      -8.118  -6.029   0.604  0.00  0.00    -0.453 OA
ENDBRANCH   3  17
TORSDOF 2
