REMARK  Name = ZINC35692984
REMARK  12 active torsions:
REMARK  status: ('A' for Active; 'I' for Inactive)
REMARK    1  A    between atoms: C_1  and  C_2
REMARK    2  A    between atoms: C_2  and  C_3
REMARK    3  A    between atoms: C_3  and  C_5
REMARK    4  A    between atoms: C_3  and  N_6
REMARK    5  A    between atoms: N_6  and  C_7
REMARK    6  A    between atoms: C_9  and  C_10
REMARK    7  A    between atoms: C_15  and  C_32
REMARK    8  A    between atoms: C_16  and  C_27
REMARK    9  A    between atoms: C_17  and  C_20
REMARK   10  A    between atoms: C_27  and  O_29
REMARK   11  A    between atoms: O_29  and  C_30
REMARK   12  A    between atoms: C_30  and  C_31
REMARK                            x       y       z     vdW  Elec       q    Type
REMARK                         _______ _______ _______ _____ _____    ______ ____
ROOT
ATOM      1  C   UNL     1       4.744   0.812  -3.616  0.00  0.00    +0.048 C 
ATOM      2  C   UNL     1       6.059   1.125  -3.587  0.00  0.00    +0.072 C 
ATOM      3  S   UNL     1       6.509   0.985  -5.306  0.00  0.00    -0.060 S 
ATOM      4  C   UNL     1       5.014   0.544  -5.928  0.00  0.00    +0.166 C 
ATOM      5  N   UNL     1       4.626   0.275  -7.158  0.00  0.00    -0.220 NA
ATOM      6  C   UNL     1       3.394  -0.064  -7.503  0.00  0.00    +0.158 C 
ATOM      7  C   UNL     1       2.401  -0.161  -6.548  0.00  0.00    +0.092 C 
ATOM      8  C   UNL     1       2.772   0.133  -5.112  0.00  0.00    +0.151 C 
ATOM      9  N   UNL     1       4.187   0.499  -4.840  0.00  0.00    -0.267 N 
ENDROOT
BRANCH   8  10
ATOM     10  C   UNL     1       1.895   1.259  -4.628  0.00  0.00    -0.004 A 
ATOM     11  C   UNL     1       2.328   2.567  -4.736  0.00  0.00    +0.007 A 
ATOM     12  C   UNL     1       1.525   3.601  -4.292  0.00  0.00    +0.000 A 
ATOM     13  C   UNL     1       0.287   3.326  -3.739  0.00  0.00    +0.001 A 
ATOM     14  C   UNL     1      -0.146   2.019  -3.630  0.00  0.00    +0.020 A 
ATOM     15  C   UNL     1       0.655   0.984  -4.080  0.00  0.00    +0.046 A 
ATOM     16 CL   UNL     1       0.108  -0.658  -3.950  0.00  0.00    -0.083 Cl
ENDBRANCH   8  10
BRANCH   6  17
ATOM     17  C   UNL     1       3.074  -0.347  -8.948  0.00  0.00    +0.435 C 
ATOM     18  F   UNL     1       1.696  -0.541  -9.091  0.00  0.00    -0.164 F 
ATOM     19  F   UNL     1       3.477   0.737  -9.736  0.00  0.00    -0.164 F 
ATOM     20  F   UNL     1       3.752  -1.500  -9.360  0.00  0.00    -0.164 F 
ENDBRANCH   6  17
BRANCH   1  23
ATOM     21  C   UNL     1       4.530   0.979  -1.191  0.00  0.00    +0.239 C 
ATOM     22  O   UNL     1       5.849   1.283  -1.127  0.00  0.00    -0.271 OA
ATOM     23  C   UNL     1       3.938   0.799  -2.387  0.00  0.00    +0.091 C 
BRANCH  21  24
ATOM     24  N   UNL     1       3.792   0.853  -0.027  0.00  0.00    -0.309 N 
ATOM     25  H   UNL     1       2.867   0.563  -0.068  0.00  0.00    +0.149 HD
BRANCH  24  26
ATOM     26  C   UNL     1       4.407   1.158   1.267  0.00  0.00    +0.070 C 
ATOM     27  C   UNL     1       4.398   2.671   1.492  0.00  0.00    +0.028 C 
BRANCH  26  29
ATOM     28  C   UNL     1       3.727  -1.046   2.228  0.00  0.00    +0.005 C 
ATOM     29  C   UNL     1       3.615   0.472   2.382  0.00  0.00    +0.018 C 
ENDBRANCH  26  29
ENDBRANCH  24  26
ENDBRANCH  21  24
ENDBRANCH   1  23
BRANCH   7  30
ATOM     30  C   UNL     1       1.093  -0.519  -6.899  0.00  0.00    +0.339 C 
ATOM     31  O   UNL     1       0.253   0.345  -7.081  0.00  0.00    -0.245 OA
BRANCH  30  32
ATOM     32  O   UNL     1       0.763  -1.823  -7.036  0.00  0.00    -0.462 OA
BRANCH  32  33
ATOM     33  C   UNL     1      -0.589  -2.115  -7.395  0.00  0.00    +0.229 C 
ATOM     34  C   UNL     1      -0.771  -3.630  -7.503  0.00  0.00    +0.048 C 
ENDBRANCH  32  33
ENDBRANCH  30  32
ENDBRANCH   7  30
TORSDOF 9
