REMARK  Name = ZINC63182661
REMARK  12 active torsions:
REMARK  status: ('A' for Active; 'I' for Inactive)
REMARK    1  A    between atoms: C_1  and  C_2
REMARK    2  A    between atoms: C_2  and  C_3
REMARK    3  A    between atoms: C_2  and  C_4
REMARK    4  A    between atoms: C_4  and  C_6
REMARK    5  A    between atoms: C_4  and  N_28
REMARK    6  A    between atoms: N_8  and  C_9
REMARK    7  A    between atoms: C_9  and  C_10
REMARK    8  A    between atoms: C_10  and  C_12
REMARK    9  A    between atoms: C_10  and  C_19
REMARK   10  A    between atoms: C_29  and  C_31
REMARK   11  A    between atoms: C_31  and  O_32
REMARK   12  A    between atoms: O_32  and  C_33
REMARK                            x       y       z     vdW  Elec       q    Type
REMARK                         _______ _______ _______ _____ _____    ______ ____
ROOT
ATOM      1  C   UNL     1      -2.074  -0.231  -1.335  0.00  0.00    +0.234 C 
ATOM      2  O   UNL     1      -2.511  -1.081  -2.081  0.00  0.00    -0.274 OA
ATOM      3  N   UNL     1      -2.204   1.073  -1.649  0.00  0.00    -0.313 N 
ATOM      4  H   UNL     1      -1.924   1.754  -1.018  0.00  0.00    +0.149 HD
ENDROOT
BRANCH   1   5
ATOM      5  C   UNL     1      -1.386  -0.633  -0.055  0.00  0.00    +0.161 C 
BRANCH   5   6
ATOM      6  N   UNL     1      -1.702  -2.030   0.251  0.00  0.00    -0.301 N 
ATOM      7  C   UNL     1      -1.649  -2.470   1.524  0.00  0.00    +0.251 C 
ATOM      8  O   UNL     1      -1.340  -1.709   2.416  0.00  0.00    -0.272 OA
ATOM      9  H   UNL     1      -1.950  -2.639  -0.463  0.00  0.00    +0.150 HD
BRANCH   7  10
ATOM     10  C   UNL     1      -1.974  -3.908   1.838  0.00  0.00    +0.324 C 
BRANCH  10  11
ATOM     11  O   UNL     1      -1.848  -4.128   3.245  0.00  0.00    -0.483 OA
BRANCH  11  12
ATOM     12  C   UNL     1      -2.108  -5.382   3.699  0.00  0.00    +0.121 A 
ATOM     13  C   UNL     1      -2.472  -6.381   2.808  0.00  0.00    +0.045 A 
ATOM     14  C   UNL     1      -2.735  -7.656   3.272  0.00  0.00    +0.004 A 
ATOM     15  C   UNL     1      -2.637  -7.935   4.623  0.00  0.00    +0.000 A 
ATOM     16  C   UNL     1      -2.276  -6.940   5.513  0.00  0.00    +0.004 A 
ATOM     17  C   UNL     1      -2.005  -5.666   5.053  0.00  0.00    +0.045 A 
ENDBRANCH  11  12
ENDBRANCH  10  11
ENDBRANCH   7  10
ENDBRANCH   5   6
BRANCH   5  19
ATOM     18  C   UNL     1       0.820  -0.801   1.106  0.00  0.00    +0.009 C 
ATOM     19  C   UNL     1       0.127  -0.476  -0.219  0.00  0.00    +0.012 C 
ATOM     20  C   UNL     1       0.624  -1.434  -1.303  0.00  0.00    +0.009 C 
ENDBRANCH   5  19
ENDBRANCH   1   5
BRANCH   3  21
ATOM     21  C   UNL     1      -2.768   1.462  -2.944  0.00  0.00    +0.116 C 
BRANCH  21  22
ATOM     22  C   UNL     1      -2.804   2.988  -3.047  0.00  0.00    +0.066 C 
BRANCH  22  23
ATOM     23  C   UNL     1      -3.496   3.389  -4.324  0.00  0.00    -0.033 C 
ATOM     24  C   UNL     1      -4.613   4.142  -4.442  0.00  0.00    -0.000 A 
ATOM     25  C   UNL     1      -5.487   4.787  -3.454  0.00  0.00    +0.010 A 
ATOM     26  C   UNL     1      -6.558   5.490  -3.886  0.00  0.00    +0.001 A 
ATOM     27  C   UNL     1      -6.854   5.619  -5.250  0.00  0.00    +0.002 A 
ATOM     28  C   UNL     1      -6.099   5.055  -6.217  0.00  0.00    +0.026 A 
ATOM     29  C   UNL     1      -4.948   4.293  -5.876  0.00  0.00    +0.043 A 
ATOM     30  N   UNL     1      -4.071   3.658  -6.616  0.00  0.00    -0.380 N 
ATOM     31  C   UNL     1      -3.077   3.037  -5.734  0.00  0.00    +0.145 C 
ATOM     32  H   UNL     1      -4.077   3.610  -7.585  0.00  0.00    +0.160 HD
ENDBRANCH  22  23
BRANCH  22  33
ATOM     33  C   UNL     1      -1.396   3.525  -3.048  0.00  0.00    -0.020 A 
ATOM     34  C   UNL     1      -0.513   3.149  -4.043  0.00  0.00    +0.006 A 
ATOM     35  C   UNL     1       0.778   3.641  -4.045  0.00  0.00    +0.000 A 
ATOM     36  C   UNL     1       1.188   4.510  -3.050  0.00  0.00    +0.001 A 
ATOM     37  C   UNL     1       0.307   4.887  -2.055  0.00  0.00    +0.020 A 
ATOM     38  C   UNL     1      -0.988   4.399  -2.056  0.00  0.00    +0.045 A 
ATOM     39 CL   UNL     1      -2.097   4.877  -0.810  0.00  0.00    -0.083 Cl
ENDBRANCH  22  33
ENDBRANCH  21  22
ENDBRANCH   3  21
TORSDOF 10
