REMARK  Name = ZINC51750369
REMARK  5 active torsions:
REMARK  status: ('A' for Active; 'I' for Inactive)
REMARK    1  A    between atoms: C_1  and  C_2
REMARK    2  A    between atoms: C_7  and  C_10
REMARK    3  A    between atoms: C_11  and  C_13
REMARK    4  A    between atoms: C_13  and  C_20
REMARK    5  A    between atoms: N_21  and  O_22
REMARK                            x       y       z     vdW  Elec       q    Type
REMARK                         _______ _______ _______ _____ _____    ______ ____
ROOT
ATOM      1  C   UNL     1       3.267  -4.409  -1.138  0.00  0.00    +0.105 C 
ATOM      2  C   UNL     1       2.496  -5.370  -2.002  0.00  0.00    +0.024 C 
ATOM      3  C   UNL     1       1.288  -5.984  -1.270  0.00  0.00    +0.001 C 
ATOM      4  C   UNL     1       1.607  -6.374   0.186  0.00  0.00    +0.000 C 
ATOM      5  C   UNL     1       2.956  -7.025   0.324  0.00  0.00    +0.000 C 
ATOM      6  C   UNL     1       3.989  -5.940   0.692  0.00  0.00    +0.001 C 
ATOM      7  C   UNL     1       4.426  -5.175  -0.467  0.00  0.00    +0.024 C 
ENDROOT
BRANCH   1  16
ATOM      8  C   UNL     1       4.766  -2.478   4.617  0.00  0.00    +0.007 C 
ATOM      9  C   UNL     1       4.093  -2.212   3.269  0.00  0.00    -0.011 C 
ATOM     10  C   UNL     1       4.912  -2.864   2.153  0.00  0.00    +0.022 C 
ATOM     11  C   UNL     1       4.254  -2.567   0.802  0.00  0.00    +0.108 C 
ATOM     12  N   UNL     1       2.851  -3.002   0.854  0.00  0.00    -0.298 N 
ATOM     13  C   UNL     1       1.998  -2.506   1.941  0.00  0.00    +0.073 C 
ATOM     14  C   UNL     1       2.681  -2.804   3.280  0.00  0.00    +0.025 C 
ATOM     15  C   UNL     1       0.639  -3.208   1.889  0.00  0.00    +0.028 C 
ATOM     16  C   UNL     1       2.357  -3.840  -0.080  0.00  0.00    +0.229 C 
ATOM     17  O   UNL     1       1.181  -4.135  -0.068  0.00  0.00    -0.275 OA
ENDBRANCH   1  16
BRANCH   1  18
ATOM     18  C   UNL     1       3.821  -3.292  -1.984  0.00  0.00    +0.147 C 
ATOM     19  N   UNL     1       5.097  -3.173  -2.141  0.00  0.00    -0.076 NA
ATOM     20  N   UNL     1       2.966  -2.398  -2.590  0.00  0.00    -0.343 N 
ATOM     21  H   UNL     1       2.013  -2.440  -2.410  0.00  0.00    +0.144 HD
ATOM     22  H   UNL     1       3.316  -1.728  -3.197  0.00  0.00    +0.144 HD
BRANCH  19  23
ATOM     23  O   UNL     1       5.618  -2.124  -2.937  0.00  0.00    -0.408 OA
ATOM     24  H   UNL     1       6.583  -2.116  -2.995  0.00  0.00    +0.328 HD
ENDBRANCH  19  23
ENDBRANCH   1  18
TORSDOF 3
