REMARK  Name = ZINC34686440
REMARK  10 active torsions:
REMARK  status: ('A' for Active; 'I' for Inactive)
REMARK    1  A    between atoms: C_1  and  C_2
REMARK    2  A    between atoms: C_2  and  C_3
REMARK    3  A    between atoms: C_3  and  C_5
REMARK    4  A    between atoms: C_3  and  O_15
REMARK    5  A    between atoms: N_7  and  C_8
REMARK    6  A    between atoms: C_8  and  C_9
REMARK    7  A    between atoms: C_9  and  N_10
REMARK    8  A    between atoms: O_15  and  C_16
REMARK    9  A    between atoms: C_22  and  C_34
REMARK   10  A    between atoms: C_27  and  C_29
REMARK                            x       y       z     vdW  Elec       q    Type
REMARK                         _______ _______ _______ _____ _____    ______ ____
ROOT
ATOM      1  C   UNL     1       0.190   1.133  -2.910  0.00  0.00    +0.122 A 
ATOM      2  C   UNL     1       1.179   1.945  -2.373  0.00  0.00    +0.046 A 
ATOM      3  C   UNL     1       1.376   3.210  -2.883  0.00  0.00    +0.007 A 
ATOM      4  C   UNL     1       0.596   3.681  -3.934  0.00  0.00    -0.040 A 
ATOM      5  C   UNL     1      -0.379   2.871  -4.473  0.00  0.00    -0.016 A 
ATOM      6  C   UNL     1      -0.582   1.598  -3.961  0.00  0.00    +0.051 A 
ATOM      7  C   UNL     1      -1.240   3.308  -5.631  0.00  0.00    +0.137 C 
ATOM      8  N   UNL     1      -1.067   4.746  -5.862  0.00  0.00    -0.290 N 
ATOM      9  C   UNL     1       0.308   5.273  -5.837  0.00  0.00    +0.113 C 
ATOM     10  C   UNL     1       0.861   5.079  -4.427  0.00  0.00    +0.054 C 
ATOM     11  C   UNL     1      -2.123   5.552  -6.086  0.00  0.00    +0.219 C 
ATOM     12  O   UNL     1      -3.245   5.092  -6.100  0.00  0.00    -0.275 OA
ENDROOT
BRANCH   7  13
ATOM     13  C   UNL     1      -0.837   2.550  -6.870  0.00  0.00    -0.022 A 
ATOM     14  C   UNL     1      -1.784   1.842  -7.586  0.00  0.00    +0.008 A 
ATOM     15  C   UNL     1      -1.416   1.147  -8.722  0.00  0.00    +0.038 A 
ATOM     16  C   UNL     1      -0.097   1.160  -9.143  0.00  0.00    +0.123 A 
ATOM     17  C   UNL     1       0.851   1.869  -8.425  0.00  0.00    +0.038 A 
ATOM     18  C   UNL     1       0.479   2.567  -7.292  0.00  0.00    +0.008 A 
ATOM     19  F   UNL     1       0.265   0.480 -10.253  0.00  0.00    -0.205 F 
ENDBRANCH   7  13
BRANCH  11  20
ATOM     20  C   UNL     1      -1.910   7.026  -6.319  0.00  0.00    +0.075 C 
ATOM     21  C   UNL     1      -1.287   7.674  -5.066  0.00  0.00    +0.013 C 
ATOM     22  C   UNL     1      -1.958   9.068  -4.986  0.00  0.00    +0.001 C 
ATOM     23  C   UNL     1      -3.413   8.773  -5.428  0.00  0.00    +0.001 C 
ATOM     24  C   UNL     1      -3.261   7.724  -6.550  0.00  0.00    +0.013 C 
ENDBRANCH  11  20
BRANCH   1  25
ATOM     25  O   UNL     1      -0.015  -0.115  -2.410  0.00  0.00    -0.480 OA
BRANCH  25  26
ATOM     26  C   UNL     1       0.771  -0.498  -1.280  0.00  0.00    +0.258 C 
BRANCH  26  27
ATOM     27  C   UNL     1       1.085  -1.969  -1.363  0.00  0.00    +0.254 C 
ATOM     28  O   UNL     1       0.603  -2.644  -2.247  0.00  0.00    -0.272 OA
ATOM     29  N   UNL     1       1.903  -2.536  -0.453  0.00  0.00    -0.314 N 
ATOM     30  H   UNL     1       2.289  -1.996   0.254  0.00  0.00    +0.149 HD
BRANCH  29  31
ATOM     31  C   UNL     1       2.209  -3.966  -0.534  0.00  0.00    +0.086 C 
BRANCH  31  32
ATOM     32  C   UNL     1       3.153  -4.351   0.608  0.00  0.00    -0.060 C 
BRANCH  32  33
ATOM     33  N   UNL     1       3.459  -5.785   0.527  0.00  0.00    +0.381 N 
ATOM     34  C   UNL     1       4.294  -6.064  -0.670  0.00  0.00    -0.079 C 
ATOM     35  C   UNL     1       4.977  -7.410  -0.320  0.00  0.00    -0.020 C 
ATOM     36  C   UNL     1       5.261  -7.270   1.193  0.00  0.00    -0.020 C 
ATOM     37  C   UNL     1       4.273  -6.199   1.690  0.00  0.00    -0.079 C 
ATOM     38  H   UNL     1       2.606  -6.323   0.490  0.00  0.00    -0.082 HD
ENDBRANCH  32  33
ENDBRANCH  31  32
ENDBRANCH  29  31
ENDBRANCH  26  27
BRANCH  26  40
ATOM     39  C   UNL     1      -0.223   1.293   0.151  0.00  0.00    +0.008 C 
ATOM     40  C   UNL     1      -0.011  -0.215   0.005  0.00  0.00    +0.051 C 
ENDBRANCH  26  40
ENDBRANCH  25  26
ENDBRANCH   1  25
TORSDOF 9
