REMARK  Name = ZINC13139101
REMARK  11 active torsions:
REMARK  status: ('A' for Active; 'I' for Inactive)
REMARK    1  A    between atoms: C_1  and  C_2
REMARK    2  A    between atoms: C_2  and  O_3
REMARK    3  A    between atoms: O_3  and  C_4
REMARK    4  A    between atoms: C_4  and  C_6
REMARK    5  A    between atoms: C_6  and  C_7
REMARK    6  A    between atoms: C_7  and  C_9
REMARK    7  A    between atoms: C_9  and  S_10
REMARK    8  A    between atoms: S_10  and  C_11
REMARK    9  A    between atoms: N_21  and  C_22
REMARK   10  A    between atoms: C_25  and  C_29
REMARK   11  A    between atoms: C_26  and  C_28
REMARK                            x       y       z     vdW  Elec       q    Type
REMARK                         _______ _______ _______ _____ _____    ______ ____
ROOT
ATOM      1  C   UNL     1       1.241  -7.249  -6.141  0.00  0.00    +0.171 A 
ATOM      2  N   UNL     1       2.208  -6.502  -6.612  0.00  0.00    -0.204 NA
ATOM      3  C   UNL     1       3.336  -7.033  -7.145  0.00  0.00    +0.161 A 
ATOM      4  C   UNL     1       3.410  -8.428  -7.162  0.00  0.00    +0.122 A 
ATOM      5  C   UNL     1       2.386  -9.223  -6.663  0.00  0.00    +0.268 A 
ATOM      6  O   UNL     1       2.471 -10.440  -6.687  0.00  0.00    -0.267 OA
ATOM      7  N   UNL     1       1.295  -8.611  -6.143  0.00  0.00    -0.301 N 
ATOM      8  S   UNL     1       4.988  -8.741  -7.911  0.00  0.00    -0.055 S 
ATOM      9  C   UNL     1       5.472  -7.040  -8.164  0.00  0.00    +0.132 A 
ATOM     10  S   UNL     1       6.910  -6.424  -8.860  0.00  0.00    -0.024 S 
ATOM     11  N   UNL     1       4.415  -6.365  -7.668  0.00  0.00    -0.282 N 
ATOM     12  H   UNL     1       0.562  -9.134  -5.782  0.00  0.00    +0.171 HD
ENDROOT
BRANCH  11  13
ATOM     13  C   UNL     1       4.418  -4.964  -7.688  0.00  0.00    +0.050 A 
ATOM     14  C   UNL     1       3.898  -4.283  -8.781  0.00  0.00    +0.026 A 
ATOM     15  C   UNL     1       3.902  -2.902  -8.797  0.00  0.00    +0.005 A 
ATOM     16  C   UNL     1       4.422  -2.198  -7.726  0.00  0.00    -0.047 A 
ATOM     17  C   UNL     1       4.940  -2.873  -6.637  0.00  0.00    -0.046 A 
ATOM     18  C   UNL     1       4.934  -4.255  -6.612  0.00  0.00    +0.030 A 
ATOM     19  C   UNL     1       5.507  -2.102  -5.473  0.00  0.00    +0.044 C 
ATOM     20  C   UNL     1       4.425  -0.691  -7.747  0.00  0.00    +0.044 C 
ENDBRANCH  11  13
BRANCH   1  21
ATOM     21  S   UNL     1      -0.184  -6.461  -5.469  0.00  0.00    -0.080 S 
BRANCH  21  22
ATOM     22  C   UNL     1       0.159  -4.691  -5.665  0.00  0.00    +0.152 C 
BRANCH  22  23
ATOM     23  C   UNL     1      -0.998  -3.891  -5.123  0.00  0.00    +0.154 C 
ATOM     24  O   UNL     1      -1.955  -4.457  -4.653  0.00  0.00    -0.296 OA
BRANCH  23  25
ATOM     25  C   UNL     1      -0.960  -2.385  -5.167  0.00  0.00    +0.195 C 
BRANCH  25  26
ATOM     26  C   UNL     1      -2.227  -1.833  -4.568  0.00  0.00    +0.314 C 
ATOM     27  O   UNL     1      -3.074  -2.585  -4.147  0.00  0.00    -0.250 OA
BRANCH  26  28
ATOM     28  O   UNL     1      -2.415  -0.506  -4.501  0.00  0.00    -0.465 OA
BRANCH  28  30
ATOM     29  C   UNL     1      -3.673   1.478  -3.931  0.00  0.00    +0.048 C 
ATOM     30  C   UNL     1      -3.639  -0.052  -3.920  0.00  0.00    +0.229 C 
ENDBRANCH  28  30
ENDBRANCH  26  28
ENDBRANCH  25  26
ENDBRANCH  23  25
ENDBRANCH  22  23
ENDBRANCH  21  22
ENDBRANCH   1  21
TORSDOF 8
