REMARK  Name = ZINC20609442
REMARK  10 active torsions:
REMARK  status: ('A' for Active; 'I' for Inactive)
REMARK    1  A    between atoms: C_1  and  C_2
REMARK    2  A    between atoms: C_2  and  O_3
REMARK    3  A    between atoms: O_3  and  C_4
REMARK    4  A    between atoms: C_4  and  C_6
REMARK    5  A    between atoms: C_7  and  N_33
REMARK    6  A    between atoms: C_16  and  C_22
REMARK    7  A    between atoms: C_17  and  C_21
REMARK    8  A    between atoms: C_22  and  O_24
REMARK    9  A    between atoms: O_24  and  C_25
REMARK   10  A    between atoms: C_25  and  C_26
REMARK                            x       y       z     vdW  Elec       q    Type
REMARK                         _______ _______ _______ _____ _____    ______ ____
ROOT
ATOM      1  C   UNL     1      -0.671  -0.529  -1.238  0.00  0.00    +0.098 C 
ATOM      2  C   UNL     1      -1.900  -1.138  -1.182  0.00  0.00    +0.097 C 
ATOM      3  N   UNL     1      -2.561  -1.271   0.009  0.00  0.00    -0.302 N 
ATOM      4  C   UNL     1      -1.872  -1.133   1.217  0.00  0.00    +0.037 A 
ATOM      5  C   UNL     1      -2.434  -1.619   2.391  0.00  0.00    +0.024 A 
ATOM      6  C   UNL     1      -1.758  -1.486   3.588  0.00  0.00    +0.017 A 
ATOM      7  C   UNL     1      -0.520  -0.869   3.616  0.00  0.00    +0.018 A 
ATOM      8  C   UNL     1       0.042  -0.385   2.450  0.00  0.00    +0.022 A 
ATOM      9  C   UNL     1      -0.630  -0.515   1.247  0.00  0.00    +0.001 A 
ATOM     10  C   UNL     1      -0.009   0.018  -0.011  0.00  0.00    +0.164 C 
ATOM     11  C   UNL     1      -0.055   1.531  -0.017  0.00  0.00    +0.100 C 
ATOM     12  C   UNL     1       1.227   1.934  -0.038  0.00  0.00    +0.117 C 
ATOM     13  O   UNL     1       2.089   0.909  -0.047  0.00  0.00    -0.429 OA
ATOM     14  C   UNL     1       1.474  -0.285  -0.032  0.00  0.00    +0.332 C 
ATOM     15  O   UNL     1       1.996  -1.375  -0.035  0.00  0.00    -0.249 OA
ATOM     16  C   UNL     1       1.648   3.381  -0.050  0.00  0.00    +0.087 C 
ATOM     17 BR   UNL     1       0.406  -0.687   5.255  0.00  0.00    -0.050 Br
ATOM     18  H   UNL     1      -3.640  -1.489   0.018  0.00  0.00    +0.153 HD
ENDROOT
BRANCH   2  19
ATOM     19  N   UNL     1      -2.471  -1.617  -2.333  0.00  0.00    -0.346 N 
ATOM     20  H   UNL     1      -3.456  -2.106  -2.295  0.00  0.00    +0.143 HD
ATOM     21  H   UNL     1      -1.946  -1.512  -3.293  0.00  0.00    +0.143 HD
ENDBRANCH   2  19
BRANCH   1  22
ATOM     22  C   UNL     1      -0.020  -0.416  -2.472  0.00  0.00    +0.340 C 
ATOM     23  O   UNL     1      -0.043   0.640  -3.079  0.00  0.00    -0.245 OA
BRANCH  22  24
ATOM     24  O   UNL     1       0.634  -1.479  -2.990  0.00  0.00    -0.462 OA
BRANCH  24  26
ATOM     25  C   UNL     1       1.958  -2.597  -4.675  0.00  0.00    +0.048 C 
ATOM     26  C   UNL     1       1.275  -1.294  -4.253  0.00  0.00    +0.229 C 
ENDBRANCH  24  26
ENDBRANCH  22  24
ENDBRANCH   1  22
BRANCH  11  27
ATOM     27  C   UNL     1      -1.211   2.353  -0.008  0.00  0.00    +0.340 C 
ATOM     28  O   UNL     1      -1.096   3.564  -0.013  0.00  0.00    -0.245 OA
BRANCH  27  29
ATOM     29  O   UNL     1      -2.437   1.791   0.008  0.00  0.00    -0.457 OA
BRANCH  29  30
ATOM     30  C   UNL     1      -3.557   2.679   0.016  0.00  0.00    +0.268 C 
BRANCH  30  31
ATOM     31  C   UNL     1      -4.833   1.878   0.033  0.00  0.00    -0.010 A 
ATOM     32  C   UNL     1      -5.434   1.510  -1.157  0.00  0.00    +0.007 A 
ATOM     33  C   UNL     1      -6.602   0.771  -1.141  0.00  0.00    +0.000 A 
ATOM     34  C   UNL     1      -7.175   0.408   0.063  0.00  0.00    +0.000 A 
ATOM     35  C   UNL     1      -6.577   0.780   1.253  0.00  0.00    +0.000 A 
ATOM     36  C   UNL     1      -5.406   1.515   1.238  0.00  0.00    +0.007 A 
ENDBRANCH  30  31
ENDBRANCH  29  30
ENDBRANCH  27  29
ENDBRANCH  11  27
TORSDOF 8
