REMARK  Name = ZINC20763156
REMARK  5 active torsions:
REMARK  status: ('A' for Active; 'I' for Inactive)
REMARK    1  A    between atoms: C_1  and  C_2
REMARK    2  A    between atoms: C_5  and  C_8
REMARK    3  A    between atoms: C_11  and  C_23
REMARK    4  A    between atoms: C_14  and  C_16
REMARK    5  A    between atoms: C_28  and  O_29
REMARK                            x       y       z     vdW  Elec       q    Type
REMARK                         _______ _______ _______ _____ _____    ______ ____
ROOT
ATOM      1  C   UNL     1      -1.996   3.228   0.032  0.00  0.00    +0.081 C 
ATOM      2  N   UNL     1      -1.025   3.030  -1.051  0.00  0.00    +0.401 N 
ATOM      3  C   UNL     1      -0.753   1.593  -1.233  0.00  0.00    -0.028 C 
ATOM      4  C   UNL     1      -0.013   1.086   0.008  0.00  0.00    +0.044 C 
ATOM      5  C   UNL     1      -0.716   1.571   1.245  0.00  0.00    +0.040 C 
ATOM      6  N   UNL     1      -1.580   2.515   1.233  0.00  0.00    -0.299 NA
ATOM      7  H   UNL     1      -1.431   3.441  -1.987  0.00  0.00    -0.081 HD
ATOM      8  H   UNL     1      -0.086   3.545  -0.801  0.00  0.00    -0.081 HD
ENDROOT
BRANCH   1  13
ATOM      9  C   UNL     1      -2.400   8.871   1.212  0.00  0.00    +0.044 C 
ATOM     10  C   UNL     1      -2.295   7.399   0.905  0.00  0.00    -0.050 A 
ATOM     11  C   UNL     1      -2.508   6.467   1.903  0.00  0.00    +0.003 A 
ATOM     12  C   UNL     1      -2.411   5.117   1.621  0.00  0.00    +0.004 A 
ATOM     13  C   UNL     1      -2.101   4.700   0.340  0.00  0.00    -0.040 A 
ATOM     14  C   UNL     1      -1.883   5.632  -0.657  0.00  0.00    +0.004 A 
ATOM     15  C   UNL     1      -1.984   6.982  -0.376  0.00  0.00    +0.003 A 
ENDBRANCH   1  13
BRANCH   5  16
ATOM     16  C   UNL     1      -0.396   0.927   2.534  0.00  0.00    -0.004 A 
ATOM     17  C   UNL     1       0.536  -0.112   2.587  0.00  0.00    +0.011 A 
ATOM     18  C   UNL     1       0.834  -0.706   3.795  0.00  0.00    +0.016 A 
ATOM     19  C   UNL     1       0.203  -0.283   4.952  0.00  0.00    +0.018 A 
ATOM     20  C   UNL     1      -0.726   0.743   4.906  0.00  0.00    +0.016 A 
ATOM     21  C   UNL     1      -1.029   1.349   3.705  0.00  0.00    +0.011 A 
ATOM     22 BR   UNL     1       0.612  -1.109   6.604  0.00  0.00    -0.050 Br
ENDBRANCH   5  16
BRANCH   3  23
ATOM     23  C   UNL     1       0.103   1.389  -2.456  0.00  0.00    -0.019 A 
ATOM     24  C   UNL     1       0.901   2.417  -2.921  0.00  0.00    +0.005 A 
ATOM     25  C   UNL     1       1.688   2.229  -4.042  0.00  0.00    +0.000 A 
ATOM     26  C   UNL     1       1.679   1.014  -4.701  0.00  0.00    +0.004 A 
ATOM     27  C   UNL     1       0.883  -0.017  -4.240  0.00  0.00    +0.045 A 
ATOM     28  C   UNL     1       0.096   0.167  -3.112  0.00  0.00    +0.118 A 
BRANCH  28  29
ATOM     29  O   UNL     1      -0.683  -0.848  -2.653  0.00  0.00    -0.507 OA
ATOM     30  H   UNL     1      -0.688  -1.816  -3.174  0.00  0.00    +0.292 HD
ENDBRANCH  28  29
ENDBRANCH   3  23
TORSDOF 4
