REMARK  Name = ZINC12806616
REMARK  7 active torsions:
REMARK  status: ('A' for Active; 'I' for Inactive)
REMARK    1  A    between atoms: C_1  and  C_2
REMARK    2  A    between atoms: C_5  and  C_9
REMARK    3  A    between atoms: C_7  and  C_8
REMARK    4  A    between atoms: C_9  and  C_11
REMARK    5  A    between atoms: C_9  and  N_17
REMARK    6  A    between atoms: C_18  and  C_20
REMARK    7  A    between atoms: C_20  and  N_21
REMARK                            x       y       z     vdW  Elec       q    Type
REMARK                         _______ _______ _______ _____ _____    ______ ____
ROOT
ATOM      1  N   UNL     1      -1.041  -0.511   0.897  0.00  0.00    -0.303 N 
ATOM      2  C   UNL     1      -0.792  -0.644   2.215  0.00  0.00    +0.232 C 
ATOM      3  O   UNL     1       0.296  -0.343   2.660  0.00  0.00    -0.274 OA
ATOM      4  H   UNL     1      -1.911  -0.752   0.541  0.00  0.00    +0.150 HD
ENDROOT
BRANCH   1   5
ATOM      5  C   UNL     1       0.002  -0.004   0.002  0.00  0.00    +0.134 C 
BRANCH   5  10
ATOM      6  C   UNL     1      -0.969  -1.914  -5.365  0.00  0.00    +0.044 C 
ATOM      7  C   UNL     1      -0.716  -1.416  -3.965  0.00  0.00    -0.048 A 
ATOM      8  C   UNL     1      -1.774  -1.009  -3.174  0.00  0.00    +0.004 A 
ATOM      9  C   UNL     1      -1.542  -0.557  -1.889  0.00  0.00    +0.006 A 
ATOM     10  C   UNL     1      -0.251  -0.502  -1.398  0.00  0.00    -0.023 A 
ATOM     11  C   UNL     1       0.807  -0.910  -2.188  0.00  0.00    +0.009 A 
ATOM     12  C   UNL     1       0.574  -1.367  -3.472  0.00  0.00    -0.047 A 
ATOM     13  C   UNL     1       1.728  -1.812  -4.334  0.00  0.00    +0.044 C 
ENDBRANCH   5  10
BRANCH   5  14
ATOM     14  C   UNL     1      -0.018   1.503   0.010  0.00  0.00    -0.023 A 
ATOM     15  C   UNL     1      -1.225   2.178   0.020  0.00  0.00    +0.006 A 
ATOM     16  C   UNL     1      -1.244   3.560   0.032  0.00  0.00    +0.000 A 
ATOM     17  C   UNL     1      -0.056   4.267   0.025  0.00  0.00    +0.000 A 
ATOM     18  C   UNL     1       1.151   3.592   0.010  0.00  0.00    +0.000 A 
ATOM     19  C   UNL     1       1.169   2.210   0.003  0.00  0.00    +0.006 A 
ENDBRANCH   5  14
ENDBRANCH   1   5
BRANCH   2  20
ATOM     20  C   UNL     1      -1.864  -1.166   3.136  0.00  0.00    +0.213 C 
BRANCH  20  21
ATOM     21  N   UNL     1      -1.350  -1.216   4.506  0.00  0.00    -0.215 N 
ATOM     22  C   UNL     1      -0.729  -2.286   5.045  0.00  0.00    +0.251 C 
ATOM     23  O   UNL     1      -0.500  -3.348   4.507  0.00  0.00    -0.272 OA
ATOM     24  C   UNL     1      -0.377  -1.881   6.459  0.00  0.00    +0.138 C 
ATOM     25  C   UNL     1      -1.077  -2.796   7.455  0.00  0.00    +0.040 C 
ATOM     26  C   UNL     1      -0.552  -2.479   8.861  0.00  0.00    +0.008 C 
ATOM     27  C   UNL     1       0.903  -2.935   8.947  0.00  0.00    +0.035 C 
ATOM     28  C   UNL     1       1.704  -2.376   7.800  0.00  0.00    -0.042 A 
ATOM     29  C   UNL     1       1.114  -1.896   6.651  0.00  0.00    -0.012 A 
ATOM     30  C   UNL     1       1.909  -1.405   5.624  0.00  0.00    +0.006 A 
ATOM     31  C   UNL     1       3.283  -1.389   5.747  0.00  0.00    +0.000 A 
ATOM     32  C   UNL     1       3.875  -1.867   6.901  0.00  0.00    +0.000 A 
ATOM     33  C   UNL     1       3.087  -2.358   7.922  0.00  0.00    +0.004 A 
ATOM     34  N   UNL     1      -0.891  -0.509   6.573  0.00  0.00    -0.281 N 
ATOM     35  C   UNL     1      -1.442  -0.208   5.382  0.00  0.00    +0.310 C 
ATOM     36  O   UNL     1      -1.964   0.861   5.130  0.00  0.00    -0.252 OA
ATOM     37  H   UNL     1      -0.844   0.065   7.353  0.00  0.00    +0.152 HD
ENDBRANCH  20  21
ENDBRANCH   2  20
TORSDOF 5
