REMARK  Name = ZINC38848356
REMARK  7 active torsions:
REMARK  status: ('A' for Active; 'I' for Inactive)
REMARK    1  A    between atoms: C_1  and  C_2
REMARK    2  A    between atoms: C_5  and  C_36
REMARK    3  A    between atoms: N_11  and  C_12
REMARK    4  A    between atoms: C_12  and  C_13
REMARK    5  A    between atoms: C_13  and  C_14
REMARK    6  A    between atoms: C_14  and  N_15
REMARK    7  A    between atoms: C_20  and  C_22
REMARK                            x       y       z     vdW  Elec       q    Type
REMARK                         _______ _______ _______ _____ _____    ______ ____
ROOT
ATOM      1  C   UNL     1      -0.134   1.506   0.015  0.00  0.00    +0.046 C 
ATOM      2  C   UNL     1      -0.113  -0.001   0.006  0.00  0.00    -0.024 A 
ATOM      3  C   UNL     1      -0.133  -0.672  -1.190  0.00  0.00    +0.006 A 
ATOM      4  C   UNL     1      -0.115  -2.058  -1.243  0.00  0.00    +0.005 A 
ATOM      5  C   UNL     1      -0.076  -2.781  -0.065  0.00  0.00    -0.035 A 
ATOM      6  C   UNL     1      -0.056  -2.118   1.136  0.00  0.00    +0.044 A 
ATOM      7  C   UNL     1      -0.068  -0.708   1.230  0.00  0.00    +0.083 A 
ATOM      8  N   UNL     1      -0.039  -0.204   2.482  0.00  0.00    -0.224 NA
ATOM      9  C   UNL     1       0.002  -0.968   3.549  0.00  0.00    +0.168 A 
ATOM     10  S   UNL     1      -0.007  -2.610   2.843  0.00  0.00    -0.052 S 
ATOM     11  N   UNL     1       0.036  -0.596   4.883  0.00  0.00    -0.250 N 
ATOM     12  C   UNL     1       0.142   0.706   5.218  0.00  0.00    +0.233 C 
ATOM     13  O   UNL     1       0.256   1.025   6.382  0.00  0.00    -0.274 OA
ATOM     14  C   UNL     1      -0.057  -4.288  -0.100  0.00  0.00    +0.045 C 
ENDROOT
BRANCH  12  15
ATOM     15  C   UNL     1       0.119   1.764   4.145  0.00  0.00    +0.142 C 
ATOM     16  C   UNL     1       1.040   2.887   4.535  0.00  0.00    +0.011 A 
ATOM     17  C   UNL     1       2.405   2.733   4.372  0.00  0.00    +0.008 A 
ATOM     18  C   UNL     1       3.267   3.754   4.724  0.00  0.00    +0.001 A 
ATOM     19  C   UNL     1       2.767   4.935   5.240  0.00  0.00    +0.004 A 
ATOM     20  C   UNL     1       1.406   5.095   5.404  0.00  0.00    +0.046 A 
ATOM     21  C   UNL     1       0.536   4.070   5.051  0.00  0.00    +0.133 A 
ATOM     22  O   UNL     1      -0.797   4.245   5.218  0.00  0.00    -0.455 OA
ATOM     23  C   UNL     1      -1.674   3.484   4.521  0.00  0.00    +0.133 A 
ATOM     24  C   UNL     1      -1.288   2.270   3.976  0.00  0.00    +0.011 A 
ATOM     25  C   UNL     1      -2.203   1.510   3.268  0.00  0.00    +0.008 A 
ATOM     26  C   UNL     1      -3.499   1.959   3.103  0.00  0.00    +0.001 A 
ATOM     27  C   UNL     1      -3.887   3.170   3.645  0.00  0.00    +0.004 A 
ATOM     28  C   UNL     1      -2.979   3.932   4.353  0.00  0.00    +0.046 A 
ENDBRANCH  12  15
BRANCH  11  29
ATOM     29  C   UNL     1      -0.044  -1.617   5.931  0.00  0.00    +0.117 C 
BRANCH  29  30
ATOM     30  C   UNL     1       1.366  -2.089   6.291  0.00  0.00    +0.041 C 
BRANCH  30  31
ATOM     31  C   UNL     1       1.283  -3.155   7.385  0.00  0.00    +0.124 C 
BRANCH  31  32
ATOM     32  N   UNL     1       2.633  -3.607   7.731  0.00  0.00    -0.338 N 
ATOM     33  C   UNL     1       3.318  -4.639   7.148  0.00  0.00    +0.104 A 
ATOM     34  C   UNL     1       4.514  -4.710   7.764  0.00  0.00    +0.101 A 
ATOM     35  N   UNL     1       4.557  -3.747   8.697  0.00  0.00    -0.352 N 
ATOM     36  C   UNL     1       3.436  -3.080   8.680  0.00  0.00    +0.173 A 
ATOM     37  H   UNL     1       5.305  -3.573   9.289  0.00  0.00    +0.166 HD
ENDBRANCH  31  32
ENDBRANCH  30  31
ENDBRANCH  29  30
ENDBRANCH  11  29
TORSDOF 5
