REMARK  Name = ZINC41151788
REMARK  7 active torsions:
REMARK  status: ('A' for Active; 'I' for Inactive)
REMARK    1  A    between atoms: C_1  and  C_2
REMARK    2  A    between atoms: C_2  and  C_3
REMARK    3  A    between atoms: C_3  and  C_4
REMARK    4  A    between atoms: C_3  and  C_6
REMARK    5  A    between atoms: C_3  and  N_20
REMARK    6  A    between atoms: C_4  and  C_5
REMARK    7  A    between atoms: C_8  and  C_11
REMARK                            x       y       z     vdW  Elec       q    Type
REMARK                         _______ _______ _______ _____ _____    ______ ____
ROOT
ATOM      1  C   UNL     1      -1.414  -2.036   0.129  0.00  0.00    +0.161 A 
ATOM      2  N   UNL     1      -1.971  -2.744   1.113  0.00  0.00    -0.193 NA
ATOM      3  C   UNL     1      -1.772  -4.027   0.912  0.00  0.00    +0.258 A 
ATOM      4  O   UNL     1      -1.071  -4.165  -0.227  0.00  0.00    -0.333 OA
ATOM      5  N   UNL     1      -0.855  -2.852  -0.720  0.00  0.00    -0.062 NA
ENDROOT
BRANCH   3   6
ATOM      6  C   UNL     1      -2.237  -5.126   1.785  0.00  0.00    +0.040 A 
ATOM      7  C   UNL     1      -2.965  -4.843   2.942  0.00  0.00    +0.013 A 
ATOM      8  C   UNL     1      -3.395  -5.874   3.749  0.00  0.00    +0.004 A 
ATOM      9  C   UNL     1      -3.109  -7.190   3.419  0.00  0.00    -0.044 A 
ATOM     10  C   UNL     1      -2.388  -7.477   2.274  0.00  0.00    -0.043 A 
ATOM     11  C   UNL     1      -1.956  -6.451   1.454  0.00  0.00    +0.017 A 
ATOM     12  C   UNL     1      -2.213  -8.975   2.142  0.00  0.00    +0.036 C 
ATOM     13  C   UNL     1      -2.519  -9.543   3.544  0.00  0.00    +0.009 C 
ATOM     14  C   UNL     1      -3.466  -8.476   4.133  0.00  0.00    +0.036 C 
ENDBRANCH   3   6
BRANCH   1  15
ATOM     15  C   UNL     1      -1.433  -0.534   0.013  0.00  0.00    -0.007 C 
BRANCH  15  16
ATOM     16  N   UNL     1      -2.157   0.036   1.157  0.00  0.00    +0.387 N 
ATOM     17  H   UNL     1      -2.170   1.042   1.080  0.00  0.00    -0.089 HD
ATOM     18  H   UNL     1      -3.103  -0.313   1.165  0.00  0.00    -0.089 HD
ATOM     19  H   UNL     1      -1.694  -0.229   2.014  0.00  0.00    -0.089 HD
ENDBRANCH  15  16
BRANCH  15  21
ATOM     20  C   UNL     1      -0.019   1.526   0.010  0.00  0.00    +0.003 C 
ATOM     21  C   UNL     1       0.002  -0.004   0.002  0.00  0.00    -0.009 C 
ENDBRANCH  15  21
BRANCH  15  22
ATOM     22  C   UNL     1      -2.135  -0.131  -1.286  0.00  0.00    -0.009 C 
ATOM     23  C   UNL     1      -1.382  -0.725  -2.478  0.00  0.00    +0.003 C 
ENDBRANCH  15  22
ENDBRANCH   1  15
TORSDOF 5
