REMARK  Name = ZINC33568984
REMARK  7 active torsions:
REMARK  status: ('A' for Active; 'I' for Inactive)
REMARK    1  A    between atoms: C_4  and  C_7
REMARK    2  A    between atoms: C_8  and  C_18
REMARK    3  A    between atoms: N_10  and  C_12
REMARK    4  A    between atoms: C_19  and  C_20
REMARK    5  A    between atoms: N_22  and  C_23
REMARK    6  A    between atoms: C_31  and  C_32
REMARK    7  A    between atoms: C_32  and  C_34
REMARK                            x       y       z     vdW  Elec       q    Type
REMARK                         _______ _______ _______ _____ _____    ______ ____
ROOT
ATOM      1  C   UNL     1      -4.334  -1.147   0.050  0.00  0.00    +0.241 C 
ATOM      2  O   UNL     1      -3.190  -0.781   0.249  0.00  0.00    -0.270 OA
ATOM      3  N   UNL     1      -5.292  -0.242  -0.230  0.00  0.00    -0.278 N 
ATOM      4  H   UNL     1      -6.305  -0.578  -0.497  0.00  0.00    +0.155 HD
ENDROOT
BRANCH   3   5
ATOM      5  C   UNL     1      -5.001   1.113  -0.183  0.00  0.00    +0.091 A 
ATOM      6  C   UNL     1      -3.736   1.761  -0.549  0.00  0.00    +0.042 A 
ATOM      7  C   UNL     1      -2.509   1.293  -1.023  0.00  0.00    +0.013 A 
ATOM      8  C   UNL     1      -1.496   2.177  -1.270  0.00  0.00    +0.001 A 
ATOM      9  C   UNL     1      -1.681   3.535  -1.052  0.00  0.00    +0.004 A 
ATOM     10  C   UNL     1      -2.885   4.016  -0.584  0.00  0.00    +0.047 A 
ATOM     11  C   UNL     1      -3.930   3.135  -0.326  0.00  0.00    +0.138 A 
ATOM     12  O   UNL     1      -5.187   3.313   0.125  0.00  0.00    -0.450 OA
ATOM     13  C   UNL     1      -5.843   2.134   0.215  0.00  0.00    +0.197 A 
BRANCH  13  14
ATOM     14  C   UNL     1      -7.179   1.971   0.654  0.00  0.00    +0.230 C 
ATOM     15  O   UNL     1      -7.641   0.853   0.798  0.00  0.00    -0.283 OA
BRANCH  14  16
ATOM     16  C   UNL     1      -8.014   3.158   0.939  0.00  0.00    +0.025 A 
ATOM     17  C   UNL     1      -9.367   3.006   1.247  0.00  0.00    +0.012 A 
ATOM     18  C   UNL     1     -10.139   4.116   1.517  0.00  0.00    +0.001 A 
ATOM     19  C   UNL     1      -9.577   5.380   1.478  0.00  0.00    +0.000 A 
ATOM     20  C   UNL     1      -8.238   5.538   1.168  0.00  0.00    +0.001 A 
ATOM     21  C   UNL     1      -7.455   4.436   0.895  0.00  0.00    +0.012 A 
ENDBRANCH  14  16
ENDBRANCH  13  14
ENDBRANCH   3   5
BRANCH   1  23
ATOM     22  C   UNL     1      -3.696  -3.433   0.396  0.00  0.00    +0.016 C 
ATOM     23  C   UNL     1      -4.658  -2.525   0.114  0.00  0.00    +0.068 C 
BRANCH  22  25
ATOM     24  C   UNL     1      -3.112  -5.968   0.747  0.00  0.00    +0.100 A 
ATOM     25  C   UNL     1      -4.032  -4.860   0.461  0.00  0.00    +0.021 A 
ATOM     26  C   UNL     1      -5.276  -5.429   0.261  0.00  0.00    +0.123 A 
ATOM     27  N   UNL     1      -5.148  -6.760   0.412  0.00  0.00    -0.239 N 
ATOM     28  N   UNL     1      -3.820  -7.074   0.712  0.00  0.00    -0.166 NA
BRANCH  24  32
ATOM     29  C   UNL     1       1.051  -5.654   1.545  0.00  0.00    +0.000 A 
ATOM     30  C   UNL     1       0.297  -6.618   2.189  0.00  0.00    +0.001 A 
ATOM     31  C   UNL     1      -1.055  -6.725   1.934  0.00  0.00    +0.010 A 
ATOM     32  C   UNL     1      -1.660  -5.858   1.025  0.00  0.00    +0.003 A 
ATOM     33  C   UNL     1      -0.894  -4.892   0.375  0.00  0.00    +0.010 A 
ATOM     34  C   UNL     1       0.456  -4.791   0.642  0.00  0.00    +0.001 A 
ENDBRANCH  24  32
BRANCH  27  35
ATOM     35  C   UNL     1      -6.189  -7.689   0.287  0.00  0.00    +0.065 A 
ATOM     36  C   UNL     1      -7.475  -7.258  -0.010  0.00  0.00    +0.028 A 
ATOM     37  C   UNL     1      -8.498  -8.177  -0.137  0.00  0.00    +0.002 A 
ATOM     38  C   UNL     1      -8.244  -9.525   0.041  0.00  0.00    +0.000 A 
ATOM     39  C   UNL     1      -6.965  -9.957   0.342  0.00  0.00    +0.002 A 
ATOM     40  C   UNL     1      -5.937  -9.043   0.465  0.00  0.00    +0.028 A 
ENDBRANCH  27  35
ENDBRANCH  22  25
ENDBRANCH   1  23
TORSDOF 7
