REMARK  Name = ZINC08691778
REMARK  9 active torsions:
REMARK  status: ('A' for Active; 'I' for Inactive)
REMARK    1  A    between atoms: C_1  and  O_2
REMARK    2  A    between atoms: O_2  and  C_3
REMARK    3  A    between atoms: C_6  and  C_9
REMARK    4  A    between atoms: C_9  and  C_11
REMARK    5  A    between atoms: C_13  and  C_25
REMARK    6  A    between atoms: C_19  and  C_20
REMARK    7  A    between atoms: C_19  and  O_24
REMARK    8  A    between atoms: C_28  and  C_30
REMARK    9  A    between atoms: C_35  and  N_36
REMARK                            x       y       z     vdW  Elec       q    Type
REMARK                         _______ _______ _______ _____ _____    ______ ____
ROOT
ATOM      1  C   UNL     1      -5.872  -4.344   0.366  0.00  0.00    +0.147 C 
ATOM      2  C   UNL     1      -4.976  -4.652  -0.838  0.00  0.00    +0.156 C 
ATOM      3  N   UNL     1      -5.584  -4.090  -2.045  0.00  0.00    -0.289 N 
ATOM      4  C   UNL     1      -6.913  -3.952  -2.157  0.00  0.00    +0.302 C 
ATOM      5  O   UNL     1      -7.367  -3.489  -3.186  0.00  0.00    -0.253 OA
ATOM      6  N   UNL     1      -7.762  -4.304  -1.180  0.00  0.00    -0.264 N 
ATOM      7  C   UNL     1      -7.279  -4.879   0.082  0.00  0.00    +0.243 C 
ATOM      8  H   UNL     1      -5.013  -3.811  -2.779  0.00  0.00    +0.151 HD
ATOM      9  H   UNL     1      -8.714  -4.176  -1.309  0.00  0.00    +0.153 HD
ENDROOT
BRANCH   2  10
ATOM     10  C   UNL     1      -4.834  -6.144  -0.992  0.00  0.00    +0.127 A 
ATOM     11  C   UNL     1      -5.569  -6.923  -1.809  0.00  0.00    +0.047 A 
ATOM     12  C   UNL     1      -5.111  -8.245  -1.642  0.00  0.00    +0.050 A 
ATOM     13  C   UNL     1      -4.111  -8.200  -0.722  0.00  0.00    +0.137 A 
ATOM     14  O   UNL     1      -3.950  -6.918  -0.341  0.00  0.00    -0.458 OA
BRANCH  13  15
ATOM     15  C   UNL     1      -3.332  -9.355  -0.230  0.00  0.00    +0.047 A 
ATOM     16  C   UNL     1      -3.985 -10.448   0.343  0.00  0.00    +0.014 A 
ATOM     17  C   UNL     1      -3.251 -11.523   0.801  0.00  0.00    +0.001 A 
ATOM     18  C   UNL     1      -1.872 -11.520   0.692  0.00  0.00    +0.002 A 
ATOM     19  C   UNL     1      -1.219 -10.441   0.125  0.00  0.00    +0.033 A 
ATOM     20  C   UNL     1      -1.940  -9.361  -0.342  0.00  0.00    +0.137 A 
BRANCH  20  21
ATOM     21  N   UNL     1      -1.240  -8.210  -0.955  0.00  0.00    +0.057 N 
ATOM     22  O   UNL     1      -0.032  -8.170  -0.960  0.00  0.00    -0.126 OA
ATOM     23  O   UNL     1      -1.877  -7.310  -1.451  0.00  0.00    -0.126 OA
ENDBRANCH  20  21
ENDBRANCH  13  15
ENDBRANCH   2  10
BRANCH   7  24
ATOM     24  C   UNL     1      -8.218  -4.483   1.223  0.00  0.00    +0.436 C 
ATOM     25  F   UNL     1      -8.262  -3.089   1.328  0.00  0.00    -0.166 F 
ATOM     26  F   UNL     1      -9.502  -4.972   0.962  0.00  0.00    -0.166 F 
ATOM     27  F   UNL     1      -7.747  -5.026   2.424  0.00  0.00    -0.166 F 
ENDBRANCH   7  24
BRANCH   1  28
ATOM     28  C   UNL     1      -5.932  -2.854   0.585  0.00  0.00    +0.173 C 
ATOM     29  O   UNL     1      -6.839  -2.207   0.105  0.00  0.00    -0.292 OA
BRANCH  28  33
ATOM     30  C   UNL     1      -2.935  -0.927   2.874  0.00  0.00    +0.120 A 
ATOM     31  C   UNL     1      -3.973  -0.182   2.325  0.00  0.00    +0.046 A 
ATOM     32  C   UNL     1      -4.946  -0.801   1.583  0.00  0.00    +0.015 A 
ATOM     33  C   UNL     1      -4.893  -2.186   1.378  0.00  0.00    +0.018 A 
ATOM     34  C   UNL     1      -3.845  -2.931   1.934  0.00  0.00    +0.015 A 
ATOM     35  C   UNL     1      -2.874  -2.301   2.670  0.00  0.00    +0.046 A 
BRANCH  30  37
ATOM     36  C   UNL     1      -2.097   1.104   3.778  0.00  0.00    +0.277 C 
ATOM     37  O   UNL     1      -1.974  -0.310   3.607  0.00  0.00    -0.495 OA
ENDBRANCH  30  37
ENDBRANCH  28  33
ENDBRANCH   1  28
BRANCH   7  38
ATOM     38  O   UNL     1      -7.235  -6.303  -0.030  0.00  0.00    -0.364 OA
ATOM     39  H   UNL     1      -8.096  -6.712  -0.197  0.00  0.00    +0.212 HD
ENDBRANCH   7  38
TORSDOF 8
