REMARK  Name = ZINC36576216
REMARK  9 active torsions:
REMARK  status: ('A' for Active; 'I' for Inactive)
REMARK    1  A    between atoms: C_1  and  C_2
REMARK    2  A    between atoms: C_2  and  C_3
REMARK    3  A    between atoms: C_3  and  C_5
REMARK    4  A    between atoms: C_3  and  C_6
REMARK    5  A    between atoms: C_6  and  C_8
REMARK    6  A    between atoms: C_6  and  N_12
REMARK    7  A    between atoms: C_8  and  O_10
REMARK    8  A    between atoms: O_10  and  C_11
REMARK    9  A    between atoms: C_24  and  C_26
REMARK                            x       y       z     vdW  Elec       q    Type
REMARK                         _______ _______ _______ _____ _____    ______ ____
ROOT
ATOM      1  N   UNL     1      -2.082   1.739  -1.059  0.00  0.00    -0.286 N 
ATOM      2  C   UNL     1      -0.926   2.112  -1.643  0.00  0.00    +0.304 C 
ATOM      3  O   UNL     1      -0.184   1.271  -2.113  0.00  0.00    -0.253 OA
ATOM      4  N   UNL     1      -0.593   3.416  -1.706  0.00  0.00    -0.273 N 
ATOM      5  C   UNL     1      -1.413   4.436  -1.037  0.00  0.00    +0.116 C 
ATOM      6  C   UNL     1      -0.584   5.102   0.069  0.00  0.00    +0.074 C 
ATOM      7  C   UNL     1       0.785   5.418  -0.474  0.00  0.00    +0.040 A 
ATOM      8  C   UNL     1       1.320   4.867  -1.585  0.00  0.00    +0.062 A 
ATOM      9  N   UNL     1       2.541   5.378  -1.755  0.00  0.00    -0.348 N 
ATOM     10  C   UNL     1       2.786   6.230  -0.794  0.00  0.00    +0.171 A 
ATOM     11  N   UNL     1       1.711   6.282   0.026  0.00  0.00    -0.349 N 
ATOM     12  H   UNL     1       1.618   6.832   0.820  0.00  0.00    +0.166 HD
ATOM     13  C   UNL     1       0.607   3.854  -2.442  0.00  0.00    +0.159 C 
ATOM     14  H   UNL     1      -2.709   2.413  -0.751  0.00  0.00    +0.151 HD
ATOM     15  H   UNL     1       3.149   5.154  -2.477  0.00  0.00    +0.167 HD
ENDROOT
BRANCH  13  16
ATOM     16  C   UNL     1       0.204   4.488  -3.749  0.00  0.00    +0.014 A 
ATOM     17  C   UNL     1       0.225   5.863  -3.885  0.00  0.00    +0.010 A 
ATOM     18  C   UNL     1      -0.144   6.445  -5.084  0.00  0.00    +0.016 A 
ATOM     19  C   UNL     1      -0.535   5.652  -6.147  0.00  0.00    +0.021 A 
ATOM     20  C   UNL     1      -0.558   4.276  -6.012  0.00  0.00    +0.054 A 
ATOM     21  C   UNL     1      -0.182   3.692  -4.814  0.00  0.00    +0.130 A 
ATOM     22  F   UNL     1      -0.198   2.348  -4.683  0.00  0.00    -0.205 F 
ATOM     23 BR   UNL     1      -1.041   6.449  -7.786  0.00  0.00    -0.050 Br
ENDBRANCH  13  16
BRANCH   1  24
ATOM     24  C   UNL     1      -2.391   0.318  -0.888  0.00  0.00    +0.186 C 
BRANCH  24  25
ATOM     25  C   UNL     1      -1.668  -0.217   0.349  0.00  0.00    +0.017 C 
ATOM     26  C   UNL     1      -2.238   0.451   1.602  0.00  0.00    +0.010 C 
BRANCH  25  28
ATOM     27  C   UNL     1      -1.218  -2.407  -0.766  0.00  0.00    +0.004 C 
ATOM     28  C   UNL     1      -1.868  -1.731   0.443  0.00  0.00    +0.002 C 
ENDBRANCH  25  28
ENDBRANCH  24  25
BRANCH  24  29
ATOM     29  C   UNL     1      -3.878   0.145  -0.714  0.00  0.00    +0.328 C 
ATOM     30  O   UNL     1      -4.605   1.110  -0.731  0.00  0.00    -0.249 OA
BRANCH  29  31
ATOM     31  O   UNL     1      -4.396  -1.082  -0.541  0.00  0.00    -0.467 OA
ATOM     32  C   UNL     1      -5.813  -1.172  -0.383  0.00  0.00    +0.280 C 
ENDBRANCH  29  31
ENDBRANCH  24  29
ENDBRANCH   1  24
TORSDOF 6
