REMARK  Name = ZINC38653610
REMARK  8 active torsions:
REMARK  status: ('A' for Active; 'I' for Inactive)
REMARK    1  A    between atoms: C_3  and  C_10
REMARK    2  A    between atoms: C_5  and  N_7
REMARK    3  A    between atoms: C_15  and  O_24
REMARK    4  A    between atoms: C_19  and  N_23
REMARK    5  A    between atoms: C_20  and  C_21
REMARK    6  A    between atoms: O_24  and  C_25
REMARK    7  A    between atoms: C_25  and  C_27
REMARK    8  A    between atoms: C_28  and  C_29
REMARK                            x       y       z     vdW  Elec       q    Type
REMARK                         _______ _______ _______ _____ _____    ______ ____
ROOT
ATOM      1  C   UNL     1       3.713   2.140  -0.050  0.00  0.00    +0.098 C 
ATOM      2  C   UNL     1       3.758   3.016  -1.273  0.00  0.00    +0.008 A 
ATOM      3  C   UNL     1       4.135   2.471  -2.488  0.00  0.00    +0.012 A 
ATOM      4  C   UNL     1       4.182   3.260  -3.620  0.00  0.00    +0.047 A 
ATOM      5  C   UNL     1       3.849   4.605  -3.543  0.00  0.00    +0.135 A 
ATOM      6  C   UNL     1       3.470   5.154  -2.329  0.00  0.00    +0.093 A 
ATOM      7  C   UNL     1       3.423   4.359  -1.190  0.00  0.00    +0.138 A 
ATOM      8  O   UNL     1       3.051   4.911  -0.009  0.00  0.00    -0.441 OA
ATOM      9  C   UNL     1       3.361   4.298   1.145  0.00  0.00    +0.199 C 
ATOM     10  C   UNL     1       3.683   2.986   1.191  0.00  0.00    +0.098 C 
ENDROOT
BRANCH   1  13
ATOM     11  C   UNL     1       0.093   1.076  -0.172  0.00  0.00    +0.003 A 
ATOM     12  C   UNL     1       1.227   1.866  -0.128  0.00  0.00    +0.005 A 
ATOM     13  C   UNL     1       2.478   1.278  -0.097  0.00  0.00    -0.033 A 
ATOM     14  C   UNL     1       2.595  -0.099  -0.110  0.00  0.00    +0.037 A 
ATOM     15  C   UNL     1       1.462  -0.889  -0.153  0.00  0.00    +0.126 A 
ATOM     16  C   UNL     1       0.210  -0.301  -0.185  0.00  0.00    +0.033 A 
BRANCH  15  17
ATOM     17  N   UNL     1       1.587  -2.364  -0.168  0.00  0.00    +0.056 N 
ATOM     18  O   UNL     1       2.682  -2.877  -0.141  0.00  0.00    -0.126 OA
ATOM     19  O   UNL     1       0.596  -3.054  -0.205  0.00  0.00    -0.126 OA
ENDBRANCH  15  17
ENDBRANCH   1  13
BRANCH   9  20
ATOM     20  N   UNL     1       3.349   5.024   2.309  0.00  0.00    -0.328 N 
ATOM     21  H   UNL     1       3.119   5.966   2.291  0.00  0.00    +0.145 HD
ATOM     22  H   UNL     1       3.571   4.595   3.151  0.00  0.00    +0.145 HD
ENDBRANCH   9  20
BRANCH  10  23
ATOM     23  C   UNL     1       4.003   2.392   2.454  0.00  0.00    +0.101 C 
ATOM     24  N   UNL     1       4.257   1.920   3.456  0.00  0.00    -0.191 NA
ENDBRANCH  10  23
BRANCH   5  25
ATOM     25  O   UNL     1       3.895   5.383  -4.656  0.00  0.00    -0.423 OA
BRANCH  25  26
ATOM     26  C   UNL     1       2.978   5.163  -5.621  0.00  0.00    +0.337 C 
ATOM     27  O   UNL     1       2.081   4.363  -5.436  0.00  0.00    -0.245 OA
BRANCH  26  28
ATOM     28  C   UNL     1       3.063   5.886  -6.888  0.00  0.00    +0.092 C 
ATOM     29  C   UNL     1       2.146   5.665  -7.854  0.00  0.00    +0.016 C 
BRANCH  29  30
ATOM     30  C   UNL     1       2.231   6.393  -9.129  0.00  0.00    -0.006 A 
ATOM     31  C   UNL     1       3.265   7.310  -9.348  0.00  0.00    +0.011 A 
ATOM     32  C   UNL     1       3.340   7.987 -10.545  0.00  0.00    +0.020 A 
ATOM     33  C   UNL     1       2.393   7.763 -11.533  0.00  0.00    +0.042 A 
ATOM     34  C   UNL     1       1.366   6.858 -11.325  0.00  0.00    +0.040 A 
ATOM     35  C   UNL     1       1.282   6.167 -10.133  0.00  0.00    +0.049 A 
ATOM     36 CL   UNL     1      -0.002   5.027  -9.876  0.00  0.00    -0.083 Cl
ATOM     37 CL   UNL     1       2.496   8.622 -13.038  0.00  0.00    -0.083 Cl
ENDBRANCH  29  30
ENDBRANCH  26  28
ENDBRANCH  25  26
ENDBRANCH   5  25
TORSDOF 8
