REMARK  Name = ZINC03340042
REMARK  9 active torsions:
REMARK  status: ('A' for Active; 'I' for Inactive)
REMARK    1  A    between atoms: C_1  and  C_2
REMARK    2  A    between atoms: C_2  and  C_3
REMARK    3  A    between atoms: C_2  and  C_4
REMARK    4  A    between atoms: C_2  and  C_5
REMARK    5  A    between atoms: C_8  and  C_11
REMARK    6  A    between atoms: C_14  and  S_23
REMARK    7  A    between atoms: N_15  and  C_16
REMARK    8  A    between atoms: S_23  and  C_24
REMARK    9  A    between atoms: C_24  and  C_25
REMARK                            x       y       z     vdW  Elec       q    Type
REMARK                         _______ _______ _______ _____ _____    ______ ____
ROOT
ATOM      1  C   UNL     1      -2.501   0.983  -0.132  0.00  0.00    +0.169 A 
ATOM      2  N   UNL     1      -2.643  -0.300   0.108  0.00  0.00    -0.128 NA
ATOM      3  N   UNL     1      -3.890  -0.589   0.226  0.00  0.00    -0.122 NA
ATOM      4  C   UNL     1      -4.622   0.491   0.069  0.00  0.00    +0.197 A 
ATOM      5  N   UNL     1      -3.764   1.532  -0.159  0.00  0.00    -0.270 N 
ENDROOT
BRANCH   5   6
ATOM      6  C   UNL     1      -4.100   2.876  -0.377  0.00  0.00    +0.051 A 
ATOM      7  C   UNL     1      -3.775   3.837   0.571  0.00  0.00    +0.027 A 
ATOM      8  C   UNL     1      -4.103   5.160   0.351  0.00  0.00    +0.017 A 
ATOM      9  C   UNL     1      -4.764   5.527  -0.807  0.00  0.00    +0.018 A 
ATOM     10  C   UNL     1      -5.094   4.571  -1.751  0.00  0.00    +0.017 A 
ATOM     11  C   UNL     1      -4.764   3.247  -1.539  0.00  0.00    +0.027 A 
ATOM     12 BR   UNL     1      -5.218   7.339  -1.101  0.00  0.00    -0.050 Br
ENDBRANCH   5   6
BRANCH   1  16
ATOM     13  C   UNL     1       1.164   3.056  -0.694  0.00  0.00    -0.042 A 
ATOM     14  C   UNL     1      -0.024   3.632  -1.107  0.00  0.00    +0.005 A 
ATOM     15  C   UNL     1      -1.217   2.963  -0.931  0.00  0.00    +0.012 A 
ATOM     16  C   UNL     1      -1.225   1.704  -0.329  0.00  0.00    +0.020 A 
ATOM     17  C   UNL     1      -0.023   1.126   0.082  0.00  0.00    +0.012 A 
ATOM     18  C   UNL     1       1.164   1.806  -0.101  0.00  0.00    +0.005 A 
BRANCH  13  20
ATOM     19  C   UNL     1       2.414   5.124  -0.135  0.00  0.00    +0.015 C 
ATOM     20  C   UNL     1       2.464   3.793  -0.889  0.00  0.00    -0.013 C 
ATOM     21  C   UNL     1       3.617   2.945  -0.351  0.00  0.00    +0.015 C 
ATOM     22  C   UNL     1       2.679   4.060  -2.380  0.00  0.00    +0.015 C 
ENDBRANCH  13  20
ENDBRANCH   1  16
BRANCH   4  23
ATOM     23  S   UNL     1      -6.380   0.583   0.144  0.00  0.00    -0.079 S 
BRANCH  23  24
ATOM     24  C   UNL     1      -6.771  -1.153   0.478  0.00  0.00    +0.130 C 
BRANCH  24  25
ATOM     25  C   UNL     1      -8.265  -1.319   0.587  0.00  0.00    +0.036 A 
ATOM     26  C   UNL     1      -8.960  -1.885  -0.424  0.00  0.00    +0.092 A 
ATOM     27  C   UNL     1     -10.361  -2.035  -0.296  0.00  0.00    +0.254 A 
ATOM     28  O   UNL     1     -11.009  -2.547  -1.192  0.00  0.00    -0.268 OA
ATOM     29  N   UNL     1     -10.974  -1.601   0.824  0.00  0.00    -0.275 N 
ATOM     30  H   UNL     1     -11.965  -1.700   0.919  0.00  0.00    +0.173 HD
ATOM     31  C   UNL     1     -10.258  -1.036   1.813  0.00  0.00    +0.327 A 
ATOM     32  O   UNL     1     -10.824  -0.650   2.818  0.00  0.00    -0.247 OA
ATOM     33  N   UNL     1      -8.925  -0.893   1.707  0.00  0.00    -0.311 N 
ATOM     34  H   UNL     1      -8.411  -0.471   2.454  0.00  0.00    +0.170 HD
ENDBRANCH  24  25
ENDBRANCH  23  24
ENDBRANCH   4  23
TORSDOF 6
