REMARK  Name = ZINC27833295
REMARK  7 active torsions:
REMARK  status: ('A' for Active; 'I' for Inactive)
REMARK    1  A    between atoms: C_1  and  O_2
REMARK    2  A    between atoms: O_2  and  C_3
REMARK    3  A    between atoms: C_6  and  C_17
REMARK    4  A    between atoms: C_8  and  C_9
REMARK    5  A    between atoms: C_9  and  O_10
REMARK    6  A    between atoms: O_10  and  C_11
REMARK    7  A    between atoms: N_28  and  C_29
REMARK                            x       y       z     vdW  Elec       q    Type
REMARK                         _______ _______ _______ _____ _____    ______ ____
ROOT
ATOM      1  C   UNL     1      -2.598   5.981   1.325  0.00  0.00    +0.198 C 
ATOM      2  N   UNL     1      -3.447   7.170   1.453  0.00  0.00    -0.321 N 
ATOM      3  C   UNL     1      -3.295   8.203   0.534  0.00  0.00    +0.041 A 
ATOM      4  C   UNL     1      -3.566   9.520   0.865  0.00  0.00    +0.024 A 
ATOM      5  C   UNL     1      -3.416  10.509  -0.087  0.00  0.00    +0.002 A 
ATOM      6  C   UNL     1      -2.997  10.194  -1.371  0.00  0.00    +0.001 A 
ATOM      7  C   UNL     1      -2.717   8.888  -1.715  0.00  0.00    +0.015 A 
ATOM      8  C   UNL     1      -2.857   7.881  -0.763  0.00  0.00    +0.058 A 
ATOM      9  C   UNL     1      -2.538   6.476  -1.073  0.00  0.00    +0.254 C 
ATOM     10  O   UNL     1      -2.309   6.137  -2.218  0.00  0.00    -0.270 OA
ATOM     11  N   UNL     1      -2.507   5.569  -0.076  0.00  0.00    -0.244 N 
ATOM     12  H   UNL     1      -4.186   7.234   2.265  0.00  0.00    +0.148 HD
ENDROOT
BRANCH  11  13
ATOM     13  C   UNL     1      -2.381   4.215  -0.386  0.00  0.00    +0.046 A 
ATOM     14  C   UNL     1      -1.177   3.713  -0.831  0.00  0.00    +0.024 A 
ATOM     15  C   UNL     1      -1.040   2.363  -1.143  0.00  0.00    +0.002 A 
ATOM     16  C   UNL     1      -2.085   1.501  -1.007  0.00  0.00    +0.008 A 
ATOM     17  C   UNL     1      -3.327   1.971  -0.546  0.00  0.00    -0.016 A 
ATOM     18  C   UNL     1      -3.480   3.343  -0.230  0.00  0.00    +0.004 A 
ATOM     19  C   UNL     1      -4.719   3.809   0.236  0.00  0.00    +0.010 A 
ATOM     20  C   UNL     1      -5.758   2.940   0.374  0.00  0.00    +0.001 A 
ATOM     21  C   UNL     1      -5.610   1.591   0.059  0.00  0.00    +0.001 A 
ATOM     22  C   UNL     1      -4.423   1.103  -0.396  0.00  0.00    +0.008 A 
ENDBRANCH  11  13
BRANCH   1  26
ATOM     23  C   UNL     1       1.316   6.871   2.793  0.00  0.00    +0.126 A 
ATOM     24  C   UNL     1       1.124   5.802   1.929  0.00  0.00    +0.046 A 
ATOM     25  C   UNL     1      -0.143   5.513   1.460  0.00  0.00    +0.010 A 
ATOM     26  C   UNL     1      -1.218   6.294   1.843  0.00  0.00    -0.008 A 
ATOM     27  C   UNL     1      -1.030   7.359   2.704  0.00  0.00    +0.017 A 
ATOM     28  C   UNL     1       0.235   7.649   3.180  0.00  0.00    +0.032 A 
BRANCH  23  30
ATOM     29  C   UNL     1       3.626   6.310   2.819  0.00  0.00    +0.277 C 
ATOM     30  O   UNL     1       2.560   7.154   3.260  0.00  0.00    -0.495 OA
ENDBRANCH  23  30
BRANCH  28  31
ATOM     31  C   UNL     1       0.439   8.811   4.118  0.00  0.00    +0.270 C 
BRANCH  31  32
ATOM     32  O   UNL     1      -0.814   9.452   4.363  0.00  0.00    -0.471 OA
BRANCH  32  33
ATOM     33  C   UNL     1      -0.805  10.525   5.194  0.00  0.00    +0.215 A 
ATOM     34  C   UNL     1      -1.993  11.190   5.471  0.00  0.00    +0.067 A 
ATOM     35  C   UNL     1      -1.971  12.282   6.320  0.00  0.00    +0.007 A 
ATOM     36  C   UNL     1      -0.755  12.673   6.864  0.00  0.00    +0.020 A 
ATOM     37  C   UNL     1       0.387  11.965   6.545  0.00  0.00    +0.114 A 
ATOM     38  N   UNL     1       0.333  10.924   5.736  0.00  0.00    -0.221 NA
ENDBRANCH  32  33
ENDBRANCH  31  32
ENDBRANCH  28  31
ENDBRANCH   1  26
TORSDOF 6
