REMARK  Name = ZINC20210664
REMARK  7 active torsions:
REMARK  status: ('A' for Active; 'I' for Inactive)
REMARK    1  A    between atoms: C_1  and  C_2
REMARK    2  A    between atoms: C_2  and  O_3
REMARK    3  A    between atoms: O_3  and  C_4
REMARK    4  A    between atoms: C_7  and  N_10
REMARK    5  A    between atoms: C_14  and  C_15
REMARK    6  A    between atoms: C_25  and  C_27
REMARK    7  A    between atoms: C_31  and  C_33
REMARK                            x       y       z     vdW  Elec       q    Type
REMARK                         _______ _______ _______ _____ _____    ______ ____
ROOT
ATOM      1  C   UNL     1       0.609  -5.883  -4.802  0.00  0.00    +0.042 C 
ATOM      2  C   UNL     1       0.567  -4.524  -5.065  0.00  0.00    +0.082 C 
ATOM      3  C   UNL     1       1.119  -3.524  -4.112  0.00  0.00    +0.153 C 
ATOM      4  N   UNL     1       2.160  -3.753  -3.353  0.00  0.00    -0.283 NA
ATOM      5  N   UNL     1       0.411  -2.303  -4.107  0.00  0.00    -0.152 N 
ATOM      6  C   UNL     1      -0.315  -1.984  -5.236  0.00  0.00    +0.181 C 
ATOM      7  N   UNL     1      -0.509  -2.729  -6.295  0.00  0.00    -0.152 NA
ATOM      8  C   UNL     1      -0.024  -3.990  -6.314  0.00  0.00    +0.273 C 
ATOM      9  O   UNL     1      -0.074  -4.670  -7.326  0.00  0.00    -0.268 OA
ATOM     10  S   UNL     1      -0.906  -0.357  -4.855  0.00  0.00    -0.033 S 
ATOM     11  C   UNL     1      -0.243  -0.247  -3.199  0.00  0.00    +0.130 C 
ATOM     12  N   UNL     1       0.387  -1.390  -3.075  0.00  0.00    -0.164 NA
ATOM     13  H   UNL     1       2.437  -3.094  -2.698  0.00  0.00    +0.188 HD
ENDROOT
BRANCH  11  14
ATOM     14  C   UNL     1      -0.371   0.853  -2.217  0.00  0.00    +0.009 A 
ATOM     15  C   UNL     1       0.318   0.796  -1.006  0.00  0.00    +0.010 A 
ATOM     16  C   UNL     1       0.194   1.825  -0.096  0.00  0.00    +0.001 A 
ATOM     17  C   UNL     1      -0.612   2.913  -0.382  0.00  0.00    +0.003 A 
ATOM     18  C   UNL     1      -1.298   2.975  -1.581  0.00  0.00    -0.050 A 
ATOM     19  C   UNL     1      -1.178   1.955  -2.503  0.00  0.00    +0.014 A 
ATOM     20  C   UNL     1      -2.175   4.163  -1.885  0.00  0.00    +0.044 C 
ENDBRANCH  11  14
BRANCH   1  25
ATOM     21  N   UNL     1       1.065  -7.646  -3.107  0.00  0.00    -0.316 N 
ATOM     22  C   UNL     1       1.247  -7.676  -1.762  0.00  0.00    +0.092 A 
ATOM     23  C   UNL     1       1.137  -6.414  -1.273  0.00  0.00    +0.020 A 
ATOM     24  C   UNL     1       0.877  -5.558  -2.343  0.00  0.00    +0.027 A 
ATOM     25  C   UNL     1       0.839  -6.339  -3.490  0.00  0.00    +0.047 A 
BRANCH  21  29
ATOM     26  C   UNL     1       1.185 -10.947  -5.653  0.00  0.00    +0.121 A 
ATOM     27  C   UNL     1       2.268 -10.664  -4.833  0.00  0.00    +0.047 A 
ATOM     28  C   UNL     1       2.229  -9.571  -3.990  0.00  0.00    +0.030 A 
ATOM     29  C   UNL     1       1.105  -8.755  -3.963  0.00  0.00    +0.047 A 
ATOM     30  C   UNL     1       0.022  -9.038  -4.784  0.00  0.00    +0.030 A 
ATOM     31  C   UNL     1       0.065 -10.128  -5.631  0.00  0.00    +0.047 A 
BRANCH  26  32
ATOM     32  O   UNL     1       1.224 -12.023  -6.483  0.00  0.00    -0.492 OA
BRANCH  32  34
ATOM     33  C   UNL     1       2.283 -13.966  -7.454  0.00  0.00    +0.048 C 
ATOM     34  C   UNL     1       2.360 -12.884  -6.375  0.00  0.00    +0.225 C 
ENDBRANCH  32  34
ENDBRANCH  26  32
ENDBRANCH  21  29
ENDBRANCH   1  25
TORSDOF 5
