REMARK  Name = ZINC08793071
REMARK  8 active torsions:
REMARK  status: ('A' for Active; 'I' for Inactive)
REMARK    1  A    between atoms: C_1  and  C_2
REMARK    2  A    between atoms: C_2  and  O_3
REMARK    3  A    between atoms: O_3  and  C_4
REMARK    4  A    between atoms: C_4  and  C_6
REMARK    5  A    between atoms: C_10  and  N_11
REMARK    6  A    between atoms: C_12  and  C_14
REMARK    7  A    between atoms: C_28  and  C_29
REMARK    8  A    between atoms: C_28  and  N_59
REMARK                            x       y       z     vdW  Elec       q    Type
REMARK                         _______ _______ _______ _____ _____    ______ ____
ROOT
ATOM      1  C   UNL     1       3.767   5.680  -5.249  0.00  0.00    +0.091 A 
ATOM      2  C   UNL     1       3.535   5.293  -3.869  0.00  0.00    -0.025 A 
ATOM      3  C   UNL     1       2.241   5.092  -3.535  0.00  0.00    -0.021 A 
ATOM      4  S   UNL     1       1.335   5.411  -5.020  0.00  0.00    -0.079 S 
ATOM      5  C   UNL     1       2.655   5.804  -6.073  0.00  0.00    +0.086 A 
ATOM      6  C   UNL     1       1.723   4.687  -2.190  0.00  0.00    -0.035 C 
ATOM      7  C   UNL     1       3.982   5.141  -1.440  0.00  0.00    -0.073 C 
ATOM      8  C   UNL     1       4.632   5.111  -2.826  0.00  0.00    +0.018 C 
ATOM      9  N   UNL     1       2.867   4.171  -1.400  0.00  0.00    +0.386 N 
ATOM     10  H   UNL     1       3.182   3.283  -1.808  0.00  0.00    -0.081 HD
ENDROOT
BRANCH   5  11
ATOM     11  N   UNL     1       2.611   6.157  -7.412  0.00  0.00    -0.275 N 
ATOM     12  C   UNL     1       1.427   6.227  -8.052  0.00  0.00    +0.256 C 
ATOM     13  O   UNL     1       0.397   5.979  -7.455  0.00  0.00    -0.270 OA
ATOM     14  H   UNL     1       3.433   6.355  -7.888  0.00  0.00    +0.156 HD
BRANCH  12  15
ATOM     15  C   UNL     1       1.381   6.602  -9.475  0.00  0.00    +0.122 A 
ATOM     16  C   UNL     1       2.546   6.892 -10.165  0.00  0.00    +0.031 A 
ATOM     17  C   UNL     1       2.455   7.245 -11.536  0.00  0.00    +0.018 A 
ATOM     18  C   UNL     1       3.616   7.539 -12.267  0.00  0.00    +0.011 A 
ATOM     19  C   UNL     1       3.521   7.883 -13.584  0.00  0.00    +0.001 A 
ATOM     20  C   UNL     1       2.282   7.945 -14.208  0.00  0.00    +0.004 A 
ATOM     21  C   UNL     1       1.129   7.659 -13.509  0.00  0.00    +0.047 A 
ATOM     22  C   UNL     1       1.199   7.306 -12.166  0.00  0.00    +0.139 A 
ATOM     23  O   UNL     1       0.068   7.027 -11.483  0.00  0.00    -0.422 OA
ATOM     24  C   UNL     1       0.100   6.682 -10.185  0.00  0.00    +0.350 A 
ATOM     25  O   UNL     1      -0.936   6.436  -9.597  0.00  0.00    -0.244 OA
ENDBRANCH  12  15
ENDBRANCH   5  11
BRANCH   1  26
ATOM     26  C   UNL     1       5.119   5.930  -5.752  0.00  0.00    +0.342 C 
ATOM     27  O   UNL     1       5.767   5.019  -6.231  0.00  0.00    -0.245 OA
BRANCH  26  28
ATOM     28  O   UNL     1       5.645   7.170  -5.684  0.00  0.00    -0.461 OA
BRANCH  28  30
ATOM     29  C   UNL     1       7.413   8.806  -6.041  0.00  0.00    +0.048 C 
ATOM     30  C   UNL     1       6.990   7.344  -6.202  0.00  0.00    +0.229 C 
ENDBRANCH  28  30
ENDBRANCH  26  28
ENDBRANCH   1  26
BRANCH   9  31
ATOM     31  C   UNL     1       2.451   3.937  -0.001  0.00  0.00    -0.043 C 
BRANCH  31  32
ATOM     32  C   UNL     1       1.156   3.165   0.008  0.00  0.00    -0.064 A 
ATOM     33  C   UNL     1       1.175   1.783   0.000  0.00  0.00    +0.002 A 
ATOM     34  C   UNL     1      -0.013   1.076   0.008  0.00  0.00    +0.000 A 
ATOM     35  C   UNL     1      -1.219   1.751   0.017  0.00  0.00    +0.000 A 
ATOM     36  C   UNL     1      -1.238   3.133   0.030  0.00  0.00    +0.000 A 
ATOM     37  C   UNL     1      -0.050   3.840   0.023  0.00  0.00    +0.002 A 
ENDBRANCH  31  32
ENDBRANCH   9  31
TORSDOF 7
