REMARK  Name = ZINC00349134
REMARK  12 active torsions:
REMARK  status: ('A' for Active; 'I' for Inactive)
REMARK    1  A    between atoms: C_1  and  C_2
REMARK    2  A    between atoms: C_2  and  C_3
REMARK    3  A    between atoms: C_3  and  C_4
REMARK    4  A    between atoms: C_3  and  C_6
REMARK    5  A    between atoms: C_4  and  C_5
REMARK    6  A    between atoms: C_6  and  O_7
REMARK    7  A    between atoms: O_7  and  C_8
REMARK    8  A    between atoms: C_8  and  C_10
REMARK    9  A    between atoms: C_11  and  C_26
REMARK   10  A    between atoms: C_16  and  C_18
REMARK   11  A    between atoms: C_21  and  O_24
REMARK   12  A    between atoms: O_24  and  C_25
REMARK                            x       y       z     vdW  Elec       q    Type
REMARK                         _______ _______ _______ _____ _____    ______ ____
ROOT
ATOM      1  C   UNL     1       1.295  -4.489  -4.011  0.00  0.00    +0.078 C 
ATOM      2  C   UNL     1       1.118  -5.755  -4.446  0.00  0.00    +0.021 C 
ATOM      3  N   UNL     1       1.563  -6.147  -5.676  0.00  0.00    -0.273 N 
ATOM      4  C   UNL     1       2.196  -5.333  -6.530  0.00  0.00    +0.304 C 
ATOM      5  O   UNL     1       2.556  -5.774  -7.605  0.00  0.00    -0.252 OA
ATOM      6  N   UNL     1       2.446  -4.042  -6.239  0.00  0.00    -0.288 N 
ATOM      7  C   UNL     1       1.999  -3.518  -4.937  0.00  0.00    +0.143 C 
ATOM      8  C   UNL     1       0.417  -6.753  -3.559  0.00  0.00    +0.061 C 
ATOM      9  H   UNL     1       1.413  -7.067  -5.945  0.00  0.00    +0.156 HD
ATOM     10  H   UNL     1       2.906  -3.469  -6.872  0.00  0.00    +0.151 HD
ENDROOT
BRANCH   7  11
ATOM     11  C   UNL     1       1.069  -2.360  -5.190  0.00  0.00    -0.022 A 
ATOM     12  C   UNL     1      -0.021  -2.521  -6.027  0.00  0.00    +0.009 A 
ATOM     13  C   UNL     1      -0.875  -1.461  -6.261  0.00  0.00    +0.046 A 
ATOM     14  C   UNL     1      -0.640  -0.235  -5.657  0.00  0.00    +0.120 A 
ATOM     15  C   UNL     1       0.454  -0.076  -4.818  0.00  0.00    +0.046 A 
ATOM     16  C   UNL     1       1.302  -1.141  -4.582  0.00  0.00    +0.009 A 
BRANCH  14  17
ATOM     17  O   UNL     1      -1.478   0.809  -5.886  0.00  0.00    -0.495 OA
ATOM     18  C   UNL     1      -1.174   2.042  -5.230  0.00  0.00    +0.277 C 
ENDBRANCH  14  17
ENDBRANCH   7  11
BRANCH   1  19
ATOM     19  C   UNL     1       0.834  -4.082  -2.737  0.00  0.00    +0.339 C 
ATOM     20  O   UNL     1       1.623  -3.935  -1.823  0.00  0.00    -0.245 OA
BRANCH  19  21
ATOM     21  O   UNL     1      -0.482  -3.856  -2.537  0.00  0.00    -0.461 OA
BRANCH  21  22
ATOM     22  C   UNL     1      -0.864  -3.344  -1.259  0.00  0.00    +0.236 C 
BRANCH  22  23
ATOM     23  C   UNL     1      -2.364  -3.040  -1.259  0.00  0.00    +0.026 C 
BRANCH  23  25
ATOM     24  C   UNL     1      -4.637  -4.015  -1.610  0.00  0.00    +0.004 C 
ATOM     25  C   UNL     1      -3.147  -4.335  -1.485  0.00  0.00    +0.003 C 
ENDBRANCH  23  25
BRANCH  23  26
ATOM     26  C   UNL     1      -2.761  -2.432   0.087  0.00  0.00    +0.003 C 
ATOM     27  C   UNL     1      -2.078  -1.074   0.255  0.00  0.00    +0.004 C 
ENDBRANCH  23  26
ENDBRANCH  22  23
ENDBRANCH  21  22
ENDBRANCH  19  21
ENDBRANCH   1  19
TORSDOF 8
