REMARK  Name = ZINC18247129
REMARK  6 active torsions:
REMARK  status: ('A' for Active; 'I' for Inactive)
REMARK    1  A    between atoms: C_4  and  N_7
REMARK    2  A    between atoms: N_9  and  S_22
REMARK    3  A    between atoms: C_13  and  C_14
REMARK    4  A    between atoms: C_17  and  O_20
REMARK    5  A    between atoms: S_22  and  C_25
REMARK    6  A    between atoms: C_28  and  N_31
REMARK                            x       y       z     vdW  Elec       q    Type
REMARK                         _______ _______ _______ _____ _____    ______ ____
ROOT
ATOM      1  N   UNL     1       3.543  -0.714  -0.130  0.00  0.00    -0.224 NA
ATOM      2  C   UNL     1       3.718  -1.759   0.648  0.00  0.00    +0.189 C 
ATOM      3  N   UNL     1       4.694  -2.729   0.574  0.00  0.00    -0.110 N 
ATOM      4  C   UNL     1       4.725  -3.722   1.446  0.00  0.00    +0.279 C 
ATOM      5  O   UNL     1       5.580  -4.587   1.395  0.00  0.00    -0.267 OA
ATOM      6  C   UNL     1       3.676  -3.735   2.483  0.00  0.00    +0.080 C 
ATOM      7  C   UNL     1       3.470  -4.622   3.490  0.00  0.00    +0.028 C 
ATOM      8  S   UNL     1       2.753  -2.263   2.063  0.00  0.00    -0.047 S 
ENDROOT
BRANCH   1  12
ATOM      9  C   UNL     1       0.416   1.899   0.585  0.00  0.00    +0.000 A 
ATOM     10  C   UNL     1       1.677   2.395   0.308  0.00  0.00    +0.002 A 
ATOM     11  C   UNL     1       2.725   1.530   0.069  0.00  0.00    +0.028 A 
ATOM     12  C   UNL     1       2.509   0.150   0.107  0.00  0.00    +0.067 A 
ATOM     13  C   UNL     1       1.233  -0.344   0.387  0.00  0.00    +0.028 A 
ATOM     14  C   UNL     1       0.195   0.533   0.624  0.00  0.00    +0.002 A 
ENDBRANCH   1  12
BRANCH   7  15
ATOM     15  C   UNL     1       4.463  -5.670   3.758  0.00  0.00    -0.024 A 
ATOM     16  C   UNL     1       5.831  -5.378   3.685  0.00  0.00    +0.011 A 
ATOM     17  C   UNL     1       6.757  -6.365   3.939  0.00  0.00    +0.046 A 
ATOM     18  C   UNL     1       6.337  -7.649   4.266  0.00  0.00    +0.117 A 
ATOM     19  C   UNL     1       4.981  -7.944   4.340  0.00  0.00    +0.046 A 
ATOM     20  C   UNL     1       4.045  -6.964   4.094  0.00  0.00    +0.011 A 
BRANCH  18  21
ATOM     21  O   UNL     1       7.255  -8.618   4.515  0.00  0.00    -0.507 OA
ATOM     22  H   UNL     1       7.519  -8.680   5.443  0.00  0.00    +0.292 HD
ENDBRANCH  18  21
ENDBRANCH   7  15
BRANCH   3  23
ATOM     23  S   UNL     1       5.840  -2.649  -0.619  0.00  0.00    +0.083 S 
ATOM     24  O   UNL     1       6.322  -3.972  -0.808  0.00  0.00    -0.149 OA
ATOM     25  O   UNL     1       5.273  -1.887  -1.677  0.00  0.00    -0.149 OA
BRANCH  23  26
ATOM     26  C   UNL     1       7.187  -1.707   0.014  0.00  0.00    +0.109 A 
ATOM     27  C   UNL     1       7.207  -0.335  -0.151  0.00  0.00    +0.030 A 
ATOM     28  C   UNL     1       8.262   0.407   0.345  0.00  0.00    +0.024 A 
ATOM     29  C   UNL     1       9.304  -0.228   1.009  0.00  0.00    +0.025 A 
ATOM     30  C   UNL     1       9.280  -1.607   1.173  0.00  0.00    +0.024 A 
ATOM     31  C   UNL     1       8.220  -2.342   0.680  0.00  0.00    +0.030 A 
BRANCH  29  32
ATOM     32  N   UNL     1      10.372   0.518   1.511  0.00  0.00    -0.358 N 
ATOM     33  H   UNL     1      10.387   1.481   1.396  0.00  0.00    +0.142 HD
ATOM     34  H   UNL     1      11.099   0.074   1.975  0.00  0.00    +0.142 HD
ENDBRANCH  29  32
ENDBRANCH  23  26
ENDBRANCH   3  23
TORSDOF 6
