REMARK  Name = ZINC41586670
REMARK  9 active torsions:
REMARK  status: ('A' for Active; 'I' for Inactive)
REMARK    1  A    between atoms: C_1  and  C_2
REMARK    2  A    between atoms: C_2  and  O_3
REMARK    3  A    between atoms: O_3  and  C_4
REMARK    4  A    between atoms: C_4  and  C_6
REMARK    5  A    between atoms: N_11  and  C_13
REMARK    6  A    between atoms: C_13  and  C_14
REMARK    7  A    between atoms: C_15  and  O_33
REMARK    8  A    between atoms: C_22  and  O_25
REMARK    9  A    between atoms: O_25  and  C_26
REMARK                            x       y       z     vdW  Elec       q    Type
REMARK                         _______ _______ _______ _____ _____    ______ ____
ROOT
ATOM      1  C   UNL     1      -5.441  -6.606   0.243  0.00  0.00    +0.020 A 
ATOM      2  C   UNL     1      -5.929  -6.948   1.493  0.00  0.00    +0.122 A 
ATOM      3  C   UNL     1      -7.136  -7.633   1.620  0.00  0.00    +0.046 A 
ATOM      4  C   UNL     1      -7.855  -7.976   0.511  0.00  0.00    +0.019 A 
ATOM      5  C   UNL     1      -7.378  -7.638  -0.755  0.00  0.00    +0.068 A 
ATOM      6  C   UNL     1      -6.163  -6.942  -0.893  0.00  0.00    +0.143 A 
ATOM      7  O   UNL     1      -5.713  -6.617  -2.122  0.00  0.00    -0.459 OA
ATOM      8  C   UNL     1      -6.386  -6.927  -3.238  0.00  0.00    +0.245 A 
ATOM      9  C   UNL     1      -7.561  -7.587  -3.221  0.00  0.00    +0.210 A 
ATOM     10  C   UNL     1      -8.123  -7.989  -1.976  0.00  0.00    +0.235 A 
ATOM     11  O   UNL     1      -9.184  -8.588  -1.923  0.00  0.00    -0.283 OA
ENDROOT
BRANCH   2  12
ATOM     12  O   UNL     1      -5.225  -6.614   2.605  0.00  0.00    -0.506 OA
ATOM     13  H   UNL     1      -5.453  -5.748   2.969  0.00  0.00    +0.292 HD
ENDBRANCH   2  12
BRANCH   1  14
ATOM     14  C   UNL     1      -4.135  -5.865   0.118  0.00  0.00    -0.036 C 
BRANCH  14  19
ATOM     15  C   UNL     1      -3.363  -2.195   0.273  0.00  0.00    +0.081 C 
ATOM     16  C   UNL     1      -4.203  -1.733  -0.921  0.00  0.00    +0.011 C 
ATOM     17  C   UNL     1      -5.503  -2.541  -0.962  0.00  0.00    -0.018 C 
ATOM     18  C   UNL     1      -5.168  -4.033  -1.032  0.00  0.00    -0.078 C 
ATOM     19  N   UNL     1      -4.387  -4.418   0.150  0.00  0.00    +0.383 N 
ATOM     20  C   UNL     1      -3.107  -3.700   0.159  0.00  0.00    -0.064 C 
ATOM     21  H   UNL     1      -4.906  -4.188   0.984  0.00  0.00    -0.081 HD
BRANCH  15  22
ATOM     22  C   UNL     1      -2.047  -1.460   0.278  0.00  0.00    +0.308 C 
ATOM     23  O   UNL     1      -1.011  -2.076   0.200  0.00  0.00    -0.251 OA
BRANCH  22  24
ATOM     24  O   UNL     1      -2.027  -0.121   0.369  0.00  0.00    -0.465 OA
BRANCH  24  26
ATOM     25  C   UNL     1      -0.923   2.026   0.478  0.00  0.00    +0.048 C 
ATOM     26  C   UNL     1      -0.745   0.510   0.368  0.00  0.00    +0.229 C 
ENDBRANCH  24  26
ENDBRANCH  22  24
ENDBRANCH  15  22
ENDBRANCH  14  19
ENDBRANCH   1  14
BRANCH   9  27
ATOM     27  O   UNL     1      -8.201  -7.876  -4.388  0.00  0.00    -0.448 OA
BRANCH  27  28
ATOM     28  C   UNL     1      -9.386  -7.260  -4.634  0.00  0.00    +0.143 A 
ATOM     29  C   UNL     1      -9.855  -6.282  -3.768  0.00  0.00    +0.047 A 
ATOM     30  C   UNL     1     -11.060  -5.657  -4.021  0.00  0.00    +0.004 A 
ATOM     31  C   UNL     1     -11.801  -6.005  -5.136  0.00  0.00    +0.001 A 
ATOM     32  C   UNL     1     -11.338  -6.979  -6.000  0.00  0.00    +0.019 A 
ATOM     33  C   UNL     1     -10.129  -7.604  -5.755  0.00  0.00    +0.060 A 
ATOM     34 BR   UNL     1      -9.492  -8.932  -6.942  0.00  0.00    -0.046 Br
ENDBRANCH  27  28
ENDBRANCH   9  27
TORSDOF 8
