REMARK  Name = ZINC45111824
REMARK  5 active torsions:
REMARK  status: ('A' for Active; 'I' for Inactive)
REMARK    1  A    between atoms: C_1  and  C_2
REMARK    2  A    between atoms: C_15  and  C_17
REMARK    3  A    between atoms: C_21  and  N_23
REMARK    4  A    between atoms: N_23  and  S_24
REMARK    5  A    between atoms: S_24  and  N_27
REMARK                            x       y       z     vdW  Elec       q    Type
REMARK                         _______ _______ _______ _____ _____    ______ ____
ROOT
ATOM      1  C   UNL     1      -0.019   1.526   0.010  0.00  0.00    +0.008 C 
ATOM      2  C   UNL     1       0.002  -0.004   0.002  0.00  0.00    -0.009 C 
ATOM      3  C   UNL     1      -1.433  -0.537   0.021  0.00  0.00    +0.008 C 
ATOM      4  C   UNL     1      -1.431  -2.044  -0.238  0.00  0.00    +0.037 C 
ATOM      5  C   UNL     1      -0.472  -2.712   0.744  0.00  0.00    -0.023 A 
ATOM      6  C   UNL     1       0.476  -1.986   1.383  0.00  0.00    -0.004 A 
ATOM      7  S   UNL     1       1.343  -3.148   2.406  0.00  0.00    -0.073 S 
ATOM      8  C   UNL     1       0.437  -4.601   1.978  0.00  0.00    +0.116 A 
ATOM      9  C   UNL     1      -0.518  -4.131   1.046  0.00  0.00    +0.075 A 
ATOM     10  C   UNL     1      -1.429  -5.096   0.498  0.00  0.00    +0.260 A 
ATOM     11  O   UNL     1      -2.287  -4.789  -0.312  0.00  0.00    -0.267 OA
ATOM     12  N   UNL     1      -1.276  -6.368   0.937  0.00  0.00    -0.306 N 
ATOM     13  H   UNL     1      -1.871  -7.051   0.591  0.00  0.00    +0.170 HD
ATOM     14  C   UNL     1      -0.322  -6.730   1.842  0.00  0.00    +0.142 A 
ATOM     15  N   UNL     1       0.534  -5.866   2.366  0.00  0.00    -0.222 NA
ATOM     16  C   UNL     1       0.737  -0.516   1.249  0.00  0.00    +0.046 C 
ENDROOT
BRANCH  14  17
ATOM     17  C   UNL     1      -0.240  -8.147   2.255  0.00  0.00    +0.019 A 
ATOM     18  C   UNL     1      -1.123  -9.086   1.717  0.00  0.00    +0.011 A 
ATOM     19  C   UNL     1      -1.044 -10.408   2.104  0.00  0.00    +0.003 A 
ATOM     20  C   UNL     1      -0.092 -10.808   3.023  0.00  0.00    +0.024 A 
ATOM     21  C   UNL     1       0.791  -9.882   3.564  0.00  0.00    +0.050 A 
ATOM     22  C   UNL     1       0.724  -8.552   3.178  0.00  0.00    +0.036 A 
BRANCH  21  23
ATOM     23  N   UNL     1       1.751 -10.292   4.494  0.00  0.00    -0.207 N 
ATOM     24  H   UNL     1       1.902  -9.770   5.297  0.00  0.00    +0.175 HD
BRANCH  23  25
ATOM     25  S   UNL     1       2.631 -11.668   4.223  0.00  0.00    +0.107 S 
ATOM     26  O   UNL     1       3.527 -11.799   5.317  0.00  0.00    -0.138 OA
ATOM     27  O   UNL     1       1.699 -12.684   3.876  0.00  0.00    -0.138 OA
BRANCH  25  28
ATOM     28  N   UNL     1       3.560 -11.399   2.879  0.00  0.00    -0.191 NA
ATOM     29  H   UNL     1       4.419 -11.841   2.787  0.00  0.00    +0.146 HD
ATOM     30  H   UNL     1       3.246 -10.800   2.184  0.00  0.00    +0.146 HD
ENDBRANCH  25  28
ENDBRANCH  23  25
ENDBRANCH  21  23
ENDBRANCH  14  17
TORSDOF 4
