REMARK  Name = ZINC07587763
REMARK  7 active torsions:
REMARK  status: ('A' for Active; 'I' for Inactive)
REMARK    1  A    between atoms: C_1  and  C_2
REMARK    2  A    between atoms: C_2  and  C_3
REMARK    3  A    between atoms: C_3  and  N_4
REMARK    4  A    between atoms: C_5  and  N_27
REMARK    5  A    between atoms: C_6  and  C_13
REMARK    6  A    between atoms: C_13  and  C_15
REMARK    7  A    between atoms: C_15  and  N_53
REMARK                            x       y       z     vdW  Elec       q    Type
REMARK                         _______ _______ _______ _____ _____    ______ ____
ROOT
ATOM      1  N   UNL     1      -0.279   1.395   4.904  0.00  0.00    -0.281 N 
ATOM      2  C   UNL     1      -0.796   1.756   3.692  0.00  0.00    +0.116 A 
ATOM      3  C   UNL     1      -0.218   1.232   2.523  0.00  0.00    +0.118 A 
ATOM      4  C   UNL     1       0.917   0.311   2.671  0.00  0.00    +0.266 A 
ATOM      5  O   UNL     1       1.452  -0.177   1.694  0.00  0.00    -0.267 OA
ATOM      6  N   UNL     1       1.357   0.024   3.914  0.00  0.00    -0.274 N 
ATOM      7  H   UNL     1       2.134  -0.594   4.031  0.00  0.00    +0.173 HD
ATOM      8  C   UNL     1       0.764   0.555   4.995  0.00  0.00    +0.331 A 
ATOM      9  O   UNL     1       1.187   0.265   6.097  0.00  0.00    -0.246 OA
ENDROOT
BRANCH   2  10
ATOM     10  N   UNL     1      -1.854   2.609   3.618  0.00  0.00    -0.344 N 
ATOM     11  H   UNL     1      -2.468   2.686   4.365  0.00  0.00    +0.144 HD
ATOM     12  H   UNL     1      -1.993   3.140   2.819  0.00  0.00    +0.144 HD
ENDBRANCH   2  10
BRANCH   3  13
ATOM     13  C   UNL     1      -0.717   1.574   1.248  0.00  0.00    +0.155 C 
ATOM     14  O   UNL     1      -1.724   2.246   1.149  0.00  0.00    -0.294 OA
BRANCH  13  15
ATOM     15  C   UNL     1       0.001   1.105   0.008  0.00  0.00    +0.003 C 
BRANCH  15  25
ATOM     16  C   UNL     1      -0.648   3.054  -1.274  0.00  0.00    -0.078 C 
ATOM     17  C   UNL     1      -1.515   3.533  -2.440  0.00  0.00    -0.018 C 
ATOM     18  C   UNL     1      -1.013   2.897  -3.740  0.00  0.00    +0.000 C 
ATOM     19  C   UNL     1      -1.047   1.373  -3.598  0.00  0.00    -0.025 C 
ATOM     20  C   UNL     1      -0.189   0.959  -2.401  0.00  0.00    -0.065 C 
ATOM     21  C   UNL     1      -0.226  -0.563  -2.251  0.00  0.00    -0.015 C 
ATOM     22  C   UNL     1       0.326  -1.212  -3.522  0.00  0.00    -0.002 C 
ATOM     23  C   UNL     1      -0.526  -0.795  -4.721  0.00  0.00    +0.000 C 
ATOM     24  C   UNL     1      -0.492   0.727  -4.869  0.00  0.00    +0.002 C 
ATOM     25  N   UNL     1      -0.740   1.581  -1.179  0.00  0.00    +0.387 N 
ATOM     26  H   UNL     1      -1.727   1.314  -1.085  0.00  0.00    -0.081 HD
ENDBRANCH  15  25
ENDBRANCH  13  15
ENDBRANCH   3  13
BRANCH   1  27
ATOM     27  C   UNL     1      -0.874   1.937   6.128  0.00  0.00    +0.128 C 
BRANCH  27  29
ATOM     28  C   UNL     1      -2.610   1.571   7.887  0.00  0.00    +0.005 C 
ATOM     29  C   UNL     1      -1.989   1.005   6.609  0.00  0.00    +0.018 C 
ENDBRANCH  27  29
ENDBRANCH   1  27
TORSDOF 6
