REMARK  Name = ZINC39531448
REMARK  11 active torsions:
REMARK  status: ('A' for Active; 'I' for Inactive)
REMARK    1  A    between atoms: C_1  and  O_2
REMARK    2  A    between atoms: O_2  and  N_3
REMARK    3  A    between atoms: N_3  and  C_4
REMARK    4  A    between atoms: C_4  and  C_5
REMARK    5  A    between atoms: C_5  and  C_7
REMARK    6  A    between atoms: C_5  and  N_20
REMARK    7  A    between atoms: C_10  and  C_13
REMARK    8  A    between atoms: C_13  and  C_14
REMARK    9  A    between atoms: C_24  and  S_27
REMARK   10  A    between atoms: S_27  and  O_30
REMARK   11  A    between atoms: O_30  and  C_31
REMARK                            x       y       z     vdW  Elec       q    Type
REMARK                         _______ _______ _______ _____ _____    ______ ____
ROOT
ATOM      1  C   UNL     1       1.240  -2.621  -2.397  0.00  0.00    +0.103 C 
ENDROOT
BRANCH   1   2
ATOM      2  N   UNL     1       2.619  -2.137  -2.545  0.00  0.00    -0.296 NA
ATOM      3  C   UNL     1       3.231  -1.880  -1.233  0.00  0.00    +0.066 C 
ATOM      4  C   UNL     1       4.682  -1.436  -1.428  0.00  0.00    -0.064 C 
ATOM      5  N   UNL     1       4.715  -0.218  -2.249  0.00  0.00    +0.398 N 
ATOM      6  C   UNL     1       4.124  -0.497  -3.565  0.00  0.00    +0.130 C 
ATOM      7  C   UNL     1       2.668  -0.933  -3.387  0.00  0.00    +0.095 C 
ATOM      8  H   UNL     1       4.189   0.510  -1.791  0.00  0.00    -0.083 HD
ATOM      9  H   UNL     1       5.671   0.081  -2.367  0.00  0.00    -0.083 HD
BRANCH   6  10
ATOM     10  S   UNL     1       4.185   1.002  -4.585  0.00  0.00    +0.109 S 
ATOM     11  O   UNL     1       3.783   0.706  -5.915  0.00  0.00    -0.138 OA
ATOM     12  O   UNL     1       3.614   2.097  -3.881  0.00  0.00    -0.138 OA
BRANCH  10  13
ATOM     13  O   UNL     1       5.665   1.341  -4.693  0.00  0.00    -0.347 OA
BRANCH  13  14
ATOM     14  C   UNL     1       6.357   0.533  -5.539  0.00  0.00    +0.156 A 
ATOM     15  C   UNL     1       6.943  -0.631  -5.064  0.00  0.00    +0.048 A 
ATOM     16  C   UNL     1       7.645  -1.451  -5.926  0.00  0.00    +0.004 A 
ATOM     17  C   UNL     1       7.764  -1.113  -7.261  0.00  0.00    +0.000 A 
ATOM     18  C   UNL     1       7.181   0.047  -7.737  0.00  0.00    +0.004 A 
ATOM     19  C   UNL     1       6.472   0.868  -6.880  0.00  0.00    +0.048 A 
ENDBRANCH  13  14
ENDBRANCH  10  13
ENDBRANCH   6  10
ENDBRANCH   1   2
BRANCH   1  20
ATOM     20  C   UNL     1       1.242  -4.126  -2.320  0.00  0.00    -0.029 A 
ATOM     21  C   UNL     1       2.161  -4.776  -1.517  0.00  0.00    +0.005 A 
ATOM     22  C   UNL     1       2.162  -6.156  -1.446  0.00  0.00    +0.004 A 
ATOM     23  C   UNL     1       1.245  -6.887  -2.178  0.00  0.00    -0.043 A 
ATOM     24  C   UNL     1       0.325  -6.237  -2.980  0.00  0.00    +0.004 A 
ATOM     25  C   UNL     1       0.321  -4.856  -3.047  0.00  0.00    +0.005 A 
BRANCH  23  26
ATOM     26  C   UNL     1       1.247  -8.392  -2.101  0.00  0.00    +0.070 C 
BRANCH  26  27
ATOM     27  C   UNL     1       0.337  -8.840  -0.987  0.00  0.00    -0.043 A 
ATOM     28  C   UNL     1       0.837  -8.999   0.292  0.00  0.00    +0.004 A 
ATOM     29  C   UNL     1       0.002  -9.410   1.314  0.00  0.00    +0.000 A 
ATOM     30  C   UNL     1      -1.333  -9.661   1.058  0.00  0.00    +0.000 A 
ATOM     31  C   UNL     1      -1.833  -9.500  -0.221  0.00  0.00    +0.000 A 
ATOM     32  C   UNL     1      -0.999  -9.085  -1.242  0.00  0.00    +0.004 A 
ENDBRANCH  26  27
ENDBRANCH  23  26
ENDBRANCH   1  20
BRANCH   1  33
ATOM     33  C   UNL     1       0.632  -2.045  -1.117  0.00  0.00    +0.134 C 
BRANCH  33  34
ATOM     34  N   UNL     1       0.569  -0.581  -1.220  0.00  0.00    -0.200 NA
ATOM     35  H   UNL     1       1.491  -0.186  -1.328  0.00  0.00    +0.154 HD
BRANCH  34  37
ATOM     36  C   UNL     1      -0.215   1.422  -0.100  0.00  0.00    +0.221 C 
ATOM     37  O   UNL     1      -0.117  -0.003  -0.065  0.00  0.00    -0.303 OA
ENDBRANCH  34  37
ENDBRANCH  33  34
ENDBRANCH   1  33
TORSDOF 10
