REMARK  Name = ZINC12391814
REMARK  10 active torsions:
REMARK  status: ('A' for Active; 'I' for Inactive)
REMARK    1  A    between atoms: C_1  and  C_2
REMARK    2  A    between atoms: C_14  and  O_34
REMARK    3  A    between atoms: C_15  and  C_16
REMARK    4  A    between atoms: C_19  and  C_22
REMARK    5  A    between atoms: C_24  and  O_32
REMARK    6  A    between atoms: C_25  and  O_30
REMARK    7  A    between atoms: C_26  and  O_28
REMARK    8  A    between atoms: O_28  and  C_29
REMARK    9  A    between atoms: O_30  and  C_31
REMARK   10  A    between atoms: O_32  and  C_33
REMARK                            x       y       z     vdW  Elec       q    Type
REMARK                         _______ _______ _______ _____ _____    ______ ____
ROOT
ATOM      1  C   UNL     1      -2.860   1.544  -0.021  0.00  0.00    +0.072 C 
ATOM      2  N   UNL     1      -3.401   0.423  -0.351  0.00  0.00    -0.190 NA
ATOM      3  N   UNL     1      -4.068   0.451  -1.574  0.00  0.00    -0.261 N 
ATOM      4  C   UNL     1      -3.944   1.798  -2.153  0.00  0.00    +0.125 C 
ATOM      5  C   UNL     1      -3.117   2.568  -1.103  0.00  0.00    +0.086 C 
ATOM      6  H   UNL     1      -4.535  -0.296  -1.979  0.00  0.00    +0.169 HD
ENDROOT
BRANCH   1  21
ATOM      7  C   UNL     1      -0.013   1.086   0.008  0.00  0.00    +0.044 C 
ATOM      8  C   UNL     1      -0.718   1.572   1.248  0.00  0.00    -0.035 A 
ATOM      9  C   UNL     1       0.004   1.803   2.397  0.00  0.00    +0.051 A 
ATOM     10  C   UNL     1      -0.633   2.251   3.548  0.00  0.00    +0.143 A 
ATOM     11  C   UNL     1      -2.023   2.469   3.537  0.00  0.00    +0.063 A 
ATOM     12  C   UNL     1      -2.679   2.939   4.758  0.00  0.00    -0.023 A 
ATOM     13  C   UNL     1      -1.918   3.148   5.861  0.00  0.00    +0.041 A 
ATOM     14  C   UNL     1      -0.526   2.909   5.800  0.00  0.00    +0.341 A 
ATOM     15  O   UNL     1       0.151   3.099   6.795  0.00  0.00    -0.245 OA
ATOM     16  O   UNL     1       0.070   2.479   4.679  0.00  0.00    -0.422 OA
ATOM     17  C   UNL     1      -2.784   3.628   7.006  0.00  0.00    +0.043 C 
ATOM     18  C   UNL     1      -4.229   3.275   6.593  0.00  0.00    +0.010 C 
ATOM     19  C   UNL     1      -4.128   3.256   5.052  0.00  0.00    +0.037 C 
ATOM     20  C   UNL     1      -2.760   2.236   2.368  0.00  0.00    +0.137 A 
ATOM     21  C   UNL     1      -2.100   1.790   1.219  0.00  0.00    +0.043 A 
BRANCH  20  22
ATOM     22  O   UNL     1      -4.100   2.445   2.350  0.00  0.00    -0.505 OA
ATOM     23  H   UNL     1      -4.355   3.342   2.093  0.00  0.00    +0.292 HD
ENDBRANCH  20  22
ENDBRANCH   1  21
BRANCH   4  24
ATOM     24  C   UNL     1      -3.214   1.748  -3.470  0.00  0.00    -0.018 A 
ATOM     25  C   UNL     1      -2.198   0.831  -3.660  0.00  0.00    +0.055 A 
ATOM     26  C   UNL     1      -1.527   0.777  -4.873  0.00  0.00    +0.165 A 
ATOM     27  C   UNL     1      -1.870   1.656  -5.894  0.00  0.00    +0.204 A 
ATOM     28  C   UNL     1      -2.889   2.581  -5.696  0.00  0.00    +0.165 A 
ATOM     29  C   UNL     1      -3.558   2.624  -4.483  0.00  0.00    +0.055 A 
BRANCH  28  30
ATOM     30  O   UNL     1      -3.228   3.443  -6.692  0.00  0.00    -0.491 OA
ATOM     31  C   UNL     1      -4.284   4.367  -6.419  0.00  0.00    +0.277 C 
ENDBRANCH  28  30
BRANCH  27  32
ATOM     32  O   UNL     1      -1.210   1.611  -7.083  0.00  0.00    -0.488 OA
ATOM     33  C   UNL     1      -0.047   2.431  -7.211  0.00  0.00    +0.277 C 
ENDBRANCH  27  32
BRANCH  26  34
ATOM     34  O   UNL     1      -0.531  -0.130  -5.061  0.00  0.00    -0.491 OA
ATOM     35  C   UNL     1      -0.233  -1.001  -3.969  0.00  0.00    +0.277 C 
ENDBRANCH  26  34
ENDBRANCH   4  24
TORSDOF 6
