REMARK  Name = ZINC36051783
REMARK  9 active torsions:
REMARK  status: ('A' for Active; 'I' for Inactive)
REMARK    1  A    between atoms: C_1  and  C_2
REMARK    2  A    between atoms: C_2  and  C_3
REMARK    3  A    between atoms: C_3  and  C_4
REMARK    4  A    between atoms: C_4  and  N_5
REMARK    5  A    between atoms: C_6  and  C_8
REMARK    6  A    between atoms: C_13  and  C_15
REMARK    7  A    between atoms: C_20  and  O_21
REMARK    8  A    between atoms: O_21  and  C_22
REMARK    9  A    between atoms: C_23  and  C_25
REMARK                            x       y       z     vdW  Elec       q    Type
REMARK                         _______ _______ _______ _____ _____    ______ ____
ROOT
ATOM      1  C   UNL     1       2.421  -4.358   3.850  0.00  0.00    +0.101 C 
ATOM      2  C   UNL     1       1.725  -3.836   5.132  0.00  0.00    +0.121 C 
ATOM      3  N   UNL     1       0.551  -4.711   5.307  0.00  0.00    -0.294 N 
ATOM      4  C   UNL     1       0.812  -5.990   4.631  0.00  0.00    +0.117 C 
ATOM      5  C   UNL     1       2.210  -5.889   3.982  0.00  0.00    +0.053 C 
ATOM      6  C   UNL     1      -0.574  -4.392   5.977  0.00  0.00    +0.282 C 
ATOM      7  O   UNL     1      -1.482  -5.197   6.058  0.00  0.00    -0.267 OA
ENDROOT
BRANCH   5   8
ATOM      8  C   UNL     1       2.219  -6.547   2.626  0.00  0.00    -0.000 A 
ATOM      9  C   UNL     1       1.238  -7.463   2.296  0.00  0.00    +0.007 A 
ATOM     10  C   UNL     1       1.246  -8.067   1.052  0.00  0.00    +0.001 A 
ATOM     11  C   UNL     1       2.234  -7.757   0.136  0.00  0.00    +0.004 A 
ATOM     12  C   UNL     1       3.216  -6.842   0.462  0.00  0.00    +0.046 A 
ATOM     13  C   UNL     1       3.208  -6.230   1.707  0.00  0.00    +0.124 A 
BRANCH  13  14
ATOM     14  O   UNL     1       4.170  -5.325   2.027  0.00  0.00    -0.495 OA
ATOM     15  C   UNL     1       5.157  -5.047   1.032  0.00  0.00    +0.277 C 
ENDBRANCH  13  14
ENDBRANCH   5   8
BRANCH   6  16
ATOM     16  C   UNL     1      -0.703  -3.075   6.608  0.00  0.00    +0.189 A 
ATOM     17  C   UNL     1      -1.780  -2.627   7.317  0.00  0.00    +0.054 A 
ATOM     18  C   UNL     1      -1.474  -1.322   7.735  0.00  0.00    +0.042 A 
ATOM     19  C   UNL     1      -0.239  -1.034   7.268  0.00  0.00    +0.196 A 
ATOM     20  O   UNL     1       0.225  -2.095   6.594  0.00  0.00    -0.458 OA
ENDBRANCH   6  16
BRANCH   1  22
ATOM     21  N   UNL     1       2.335  -2.850   1.891  0.00  0.00    -0.315 N 
ATOM     22  C   UNL     1       1.746  -3.824   2.613  0.00  0.00    +0.218 C 
ATOM     23  O   UNL     1       0.674  -4.272   2.266  0.00  0.00    -0.275 OA
ATOM     24  H   UNL     1       3.193  -2.492   2.169  0.00  0.00    +0.149 HD
BRANCH  21  25
ATOM     25  C   UNL     1       1.679  -2.331   0.689  0.00  0.00    +0.104 C 
BRANCH  25  26
ATOM     26  C   UNL     1       2.551  -1.241   0.062  0.00  0.00    +0.018 C 
BRANCH  26  28
ATOM     27  C   UNL     1       2.738   0.391  -1.821  0.00  0.00    +0.004 C 
ATOM     28  C   UNL     1       1.866  -0.699  -1.194  0.00  0.00    -0.002 C 
ENDBRANCH  26  28
ENDBRANCH  25  26
ENDBRANCH  21  25
ENDBRANCH   1  22
TORSDOF 7
