REMARK  Name = ZINC23080339
REMARK  11 active torsions:
REMARK  status: ('A' for Active; 'I' for Inactive)
REMARK    1  A    between atoms: C_1  and  N_2
REMARK    2  A    between atoms: N_2  and  C_3
REMARK    3  A    between atoms: N_2  and  C_4
REMARK    4  A    between atoms: C_4  and  C_6
REMARK    5  A    between atoms: C_4  and  C_23
REMARK    6  A    between atoms: C_6  and  N_7
REMARK    7  A    between atoms: C_8  and  C_10
REMARK    8  A    between atoms: C_14  and  S_16
REMARK    9  A    between atoms: S_16  and  N_19
REMARK   10  A    between atoms: N_19  and  C_20
REMARK   11  A    between atoms: N_19  and  C_21
REMARK                            x       y       z     vdW  Elec       q    Type
REMARK                         _______ _______ _______ _____ _____    ______ ____
ROOT
ATOM      1  N   UNL     1      -4.082   1.752   2.196  0.00  0.00    -0.313 N 
ATOM      2  C   UNL     1      -5.052   2.302   2.954  0.00  0.00    +0.244 C 
ATOM      3  O   UNL     1      -4.764   3.110   3.816  0.00  0.00    -0.270 OA
ATOM      4  H   UNL     1      -4.342   1.021   1.417  0.00  0.00    +0.149 HD
ENDROOT
BRANCH   2   5
ATOM      5  C   UNL     1      -6.464   1.923   2.738  0.00  0.00    +0.039 A 
ATOM      6  C   UNL     1      -6.797   1.000   1.745  0.00  0.00    +0.014 A 
ATOM      7  C   UNL     1      -8.116   0.645   1.552  0.00  0.00    +0.018 A 
ATOM      8  C   UNL     1      -9.110   1.213   2.332  0.00  0.00    +0.044 A 
ATOM      9  C   UNL     1      -8.786   2.133   3.314  0.00  0.00    +0.120 A 
ATOM     10  C   UNL     1      -7.470   2.491   3.521  0.00  0.00    +0.042 A 
ATOM     11 BR   UNL     1     -10.916   0.728   2.055  0.00  0.00    -0.048 Br
BRANCH   9  12
ATOM     12  S   UNL     1     -10.057   2.849   4.302  0.00  0.00    +0.061 S 
ATOM     13  O   UNL     1     -10.616   3.909   3.539  0.00  0.00    -0.153 OA
ATOM     14  O   UNL     1     -10.840   1.772   4.798  0.00  0.00    -0.153 OA
BRANCH  12  15
ATOM     15  N   UNL     1      -9.324   3.545   5.614  0.00  0.00    -0.183 NA
ATOM     16  C   UNL     1      -8.939   4.958   5.574  0.00  0.00    +0.131 C 
ATOM     17  C   UNL     1      -9.062   2.748   6.815  0.00  0.00    +0.131 C 
ENDBRANCH  12  15
ENDBRANCH   9  12
ENDBRANCH   2   5
BRANCH   1  18
ATOM     18  C   UNL     1      -2.683   2.127   2.411  0.00  0.00    +0.094 C 
BRANCH  18  19
ATOM     19  C   UNL     1      -1.793   1.365   1.427  0.00  0.00    -0.020 C 
BRANCH  19  20
ATOM     20  C   UNL     1      -0.370   1.841   1.564  0.00  0.00    -0.041 A 
ATOM     21  C   UNL     1      -0.110   3.123   2.010  0.00  0.00    +0.003 A 
ATOM     22  C   UNL     1       1.196   3.559   2.135  0.00  0.00    +0.000 A 
ATOM     23  C   UNL     1       2.242   2.714   1.815  0.00  0.00    +0.001 A 
ATOM     24  C   UNL     1       1.983   1.432   1.369  0.00  0.00    +0.020 A 
ATOM     25  C   UNL     1       0.676   0.992   1.248  0.00  0.00    +0.043 A 
ATOM     26 CL   UNL     1       0.350  -0.621   0.695  0.00  0.00    -0.083 Cl
ENDBRANCH  19  20
BRANCH  19  28
ATOM     27  C   UNL     1      -1.555   0.744  -0.901  0.00  0.00    -0.096 C 
ATOM     28  N   UNL     1      -2.261   1.606   0.056  0.00  0.00    +0.382 N 
ATOM     29  C   UNL     1      -2.118   3.023  -0.307  0.00  0.00    -0.096 C 
ATOM     30  H   UNL     1      -3.331   1.353   0.014  0.00  0.00    -0.082 HD
ENDBRANCH  19  28
ENDBRANCH  18  19
ENDBRANCH   1  18
TORSDOF 7
