REMARK  Name = ZINC38658818
REMARK  13 active torsions:
REMARK  status: ('A' for Active; 'I' for Inactive)
REMARK    1  A    between atoms: C_1  and  O_2
REMARK    2  A    between atoms: O_2  and  C_3
REMARK    3  A    between atoms: C_6  and  C_9
REMARK    4  A    between atoms: C_10  and  C_11
REMARK    5  A    between atoms: C_11  and  O_13
REMARK    6  A    between atoms: O_13  and  C_14
REMARK    7  A    between atoms: C_21  and  N_37
REMARK    8  A    between atoms: C_22  and  C_35
REMARK    9  A    between atoms: C_23  and  C_25
REMARK   10  A    between atoms: C_29  and  O_33
REMARK   11  A    between atoms: C_30  and  O_31
REMARK   12  A    between atoms: O_31  and  C_32
REMARK   13  A    between atoms: O_33  and  C_34
REMARK                            x       y       z     vdW  Elec       q    Type
REMARK                         _______ _______ _______ _____ _____    ______ ____
ROOT
ATOM      1  C   UNL     1       3.982  -6.530   6.470  0.00  0.00    +0.135 A 
ATOM      2  C   UNL     1       4.538  -5.821   7.526  0.00  0.00    +0.047 A 
ATOM      3  C   UNL     1       5.189  -6.492   8.541  0.00  0.00    +0.012 A 
ATOM      4  C   UNL     1       5.292  -7.872   8.512  0.00  0.00    +0.008 A 
ATOM      5  C   UNL     1       4.739  -8.585   7.460  0.00  0.00    +0.138 A 
ATOM      6  C   UNL     1       4.078  -7.912   6.440  0.00  0.00    +0.093 A 
ATOM      7  O   UNL     1       4.830  -9.937   7.413  0.00  0.00    -0.441 OA
ATOM      8  C   UNL     1       5.100 -10.630   8.533  0.00  0.00    +0.199 C 
ATOM      9  C   UNL     1       5.658 -10.046   9.620  0.00  0.00    +0.098 C 
ATOM     10  C   UNL     1       6.007  -8.585   9.629  0.00  0.00    +0.102 C 
ENDROOT
BRANCH  10  11
ATOM     11  C   UNL     1       7.495  -8.426   9.451  0.00  0.00    +0.011 A 
ATOM     12  C   UNL     1       8.107  -8.892   8.302  0.00  0.00    +0.008 A 
ATOM     13  C   UNL     1       9.472  -8.747   8.136  0.00  0.00    +0.004 A 
ATOM     14  C   UNL     1      10.230  -8.137   9.117  0.00  0.00    +0.049 A 
ATOM     15  C   UNL     1       9.623  -7.668  10.271  0.00  0.00    +0.162 A 
ATOM     16  C   UNL     1       8.248  -7.808  10.435  0.00  0.00    +0.166 A 
BRANCH  16  17
ATOM     17  O   UNL     1       7.646  -7.344  11.563  0.00  0.00    -0.491 OA
ATOM     18  C   UNL     1       7.547  -8.249  12.665  0.00  0.00    +0.277 C 
ENDBRANCH  16  17
BRANCH  15  19
ATOM     19  O   UNL     1      10.368  -7.067  11.237  0.00  0.00    -0.491 OA
ATOM     20  C   UNL     1      11.772  -6.953  10.998  0.00  0.00    +0.277 C 
ENDBRANCH  15  19
ENDBRANCH  10  11
BRANCH   8  21
ATOM     21  N   UNL     1       4.801 -11.969   8.575  0.00  0.00    -0.328 N 
ATOM     22  H   UNL     1       4.400 -12.401   7.805  0.00  0.00    +0.145 HD
ATOM     23  H   UNL     1       4.989 -12.483   9.376  0.00  0.00    +0.145 HD
ENDBRANCH   8  21
BRANCH   9  24
ATOM     24  C   UNL     1       5.921 -10.838  10.783  0.00  0.00    +0.101 C 
ATOM     25  N   UNL     1       6.130 -11.466  11.707  0.00  0.00    -0.191 NA
ENDBRANCH   9  24
BRANCH   1  26
ATOM     26  O   UNL     1       3.341  -5.871   5.469  0.00  0.00    -0.423 OA
BRANCH  26  27
ATOM     27  C   UNL     1       4.092  -5.247   4.538  0.00  0.00    +0.337 C 
ATOM     28  O   UNL     1       5.302  -5.209   4.659  0.00  0.00    -0.245 OA
BRANCH  27  30
ATOM     29  C   UNL     1       4.224  -4.011   2.488  0.00  0.00    +0.015 C 
ATOM     30  C   UNL     1       3.472  -4.636   3.420  0.00  0.00    +0.092 C 
BRANCH  29  34
ATOM     31  C   UNL     1       2.367  -2.184  -0.859  0.00  0.00    +0.120 A 
ATOM     32  C   UNL     1       3.750  -2.138  -0.723  0.00  0.00    +0.046 A 
ATOM     33  C   UNL     1       4.358  -2.729   0.361  0.00  0.00    +0.011 A 
ATOM     34  C   UNL     1       3.580  -3.377   1.328  0.00  0.00    -0.025 A 
ATOM     35  C   UNL     1       2.188  -3.421   1.187  0.00  0.00    +0.011 A 
ATOM     36  C   UNL     1       1.590  -2.821   0.102  0.00  0.00    +0.046 A 
BRANCH  31  38
ATOM     37  C   UNL     1       2.630  -0.961  -2.879  0.00  0.00    +0.277 C 
ATOM     38  O   UNL     1       1.773  -1.599  -1.930  0.00  0.00    -0.495 OA
ENDBRANCH  31  38
ENDBRANCH  29  34
ENDBRANCH  27  30
ENDBRANCH  26  27
ENDBRANCH   1  26
TORSDOF 10
