REMARK  Name = ZINC09543166
REMARK  4 active torsions:
REMARK  status: ('A' for Active; 'I' for Inactive)
REMARK    1  A    between atoms: C_4  and  O_32
REMARK    2  A    between atoms: C_5  and  C_7
REMARK    3  A    between atoms: C_10  and  C_23
REMARK    4  A    between atoms: C_12  and  C_15
REMARK                            x       y       z     vdW  Elec       q    Type
REMARK                         _______ _______ _______ _____ _____    ______ ____
ROOT
ATOM      1  C   UNL     1       1.076  -2.050  -0.197  0.00  0.00    -0.028 C 
ATOM      2  C   UNL     1       1.277  -2.450   1.268  0.00  0.00    +0.044 C 
ATOM      3  C   UNL     1       1.116  -3.939   1.404  0.00  0.00    +0.040 C 
ATOM      4  N   UNL     1       0.582  -4.665   0.493  0.00  0.00    -0.298 NA
ATOM      5  C   UNL     1       0.080  -4.147  -0.773  0.00  0.00    +0.085 C 
ATOM      6  N   UNL     1      -0.149  -2.700  -0.691  0.00  0.00    +0.401 N 
ATOM      7  H   UNL     1      -0.910  -2.514  -0.055  0.00  0.00    -0.081 HD
ATOM      8  H   UNL     1      -0.377  -2.341  -1.606  0.00  0.00    -0.081 HD
ENDROOT
BRANCH   3   9
ATOM      9  C   UNL     1       1.593  -4.591   2.638  0.00  0.00    -0.001 A 
ATOM     10  C   UNL     1       2.175  -3.828   3.653  0.00  0.00    +0.013 A 
ATOM     11  C   UNL     1       2.619  -4.439   4.806  0.00  0.00    +0.050 A 
ATOM     12  C   UNL     1       2.492  -5.812   4.962  0.00  0.00    +0.166 A 
ATOM     13  C   UNL     1       1.912  -6.580   3.952  0.00  0.00    +0.167 A 
ATOM     14  C   UNL     1       1.459  -5.973   2.797  0.00  0.00    +0.059 A 
ATOM     15  O   UNL     1       1.905  -7.887   4.348  0.00  0.00    -0.453 OA
ATOM     16  C   UNL     1       2.853  -7.966   5.428  0.00  0.00    +0.466 C 
ATOM     17  O   UNL     1       2.846  -6.639   5.988  0.00  0.00    -0.453 OA
ENDBRANCH   3   9
BRANCH   5  18
ATOM     18  C   UNL     1       1.088  -4.426  -1.857  0.00  0.00    +0.013 A 
ATOM     19  C   UNL     1       2.433  -4.523  -1.545  0.00  0.00    +0.128 A 
ATOM     20  C   UNL     1       3.358  -4.780  -2.542  0.00  0.00    +0.039 A 
ATOM     21  C   UNL     1       2.938  -4.940  -3.850  0.00  0.00    +0.004 A 
ATOM     22  C   UNL     1       1.595  -4.844  -4.162  0.00  0.00    +0.020 A 
ATOM     23  C   UNL     1       0.669  -4.593  -3.165  0.00  0.00    +0.047 A 
ATOM     24 CL   UNL     1      -1.018  -4.479  -3.557  0.00  0.00    -0.083 Cl
ATOM     25  F   UNL     1       2.843  -4.366  -0.267  0.00  0.00    -0.205 F 
ENDBRANCH   5  18
BRANCH   1  30
ATOM     26  C   UNL     1      -0.454   1.396  -0.401  0.00  0.00    +0.000 A 
ATOM     27  C   UNL     1       0.671   2.196  -0.489  0.00  0.00    +0.004 A 
ATOM     28  C   UNL     1       1.929   1.625  -0.484  0.00  0.00    +0.045 A 
ATOM     29  C   UNL     1       2.063   0.247  -0.389  0.00  0.00    +0.118 A 
ATOM     30  C   UNL     1       0.934  -0.553  -0.300  0.00  0.00    -0.019 A 
ATOM     31  C   UNL     1      -0.322   0.023  -0.306  0.00  0.00    +0.005 A 
BRANCH  29  32
ATOM     32  O   UNL     1       3.299  -0.317  -0.384  0.00  0.00    -0.507 OA
ATOM     33  H   UNL     1       3.682  -0.417   0.498  0.00  0.00    +0.292 HD
ENDBRANCH  29  32
ENDBRANCH   1  30
TORSDOF 4
