REMARK  Name = ZINC08299184
REMARK  10 active torsions:
REMARK  status: ('A' for Active; 'I' for Inactive)
REMARK    1  A    between atoms: C_1  and  C_2
REMARK    2  A    between atoms: C_2  and  C_3
REMARK    3  A    between atoms: C_2  and  C_4
REMARK    4  A    between atoms: C_2  and  C_5
REMARK    5  A    between atoms: C_8  and  C_11
REMARK    6  A    between atoms: N_13  and  C_16
REMARK    7  A    between atoms: C_16  and  C_17
REMARK    8  A    between atoms: C_25  and  C_27
REMARK    9  A    between atoms: N_29  and  C_30
REMARK   10  A    between atoms: C_30  and  C_31
REMARK                            x       y       z     vdW  Elec       q    Type
REMARK                         _______ _______ _______ _____ _____    ______ ____
ROOT
ATOM      1  C   UNL     1      -3.980   5.053   5.235  0.00  0.00    -0.046 C 
ATOM      2  C   UNL     1      -5.080   4.233   4.555  0.00  0.00    -0.010 C 
ATOM      3  C   UNL     1      -4.677   3.976   3.097  0.00  0.00    -0.004 C 
ATOM      4  C   UNL     1      -4.484   5.328   2.398  0.00  0.00    -0.015 C 
ATOM      5  C   UNL     1      -3.401   6.118   3.138  0.00  0.00    -0.078 C 
ATOM      6  C   UNL     1      -2.287   4.069   3.806  0.00  0.00    -0.065 C 
ATOM      7  C   UNL     1      -3.341   3.224   3.084  0.00  0.00    +0.061 C 
ATOM      8  N   UNL     1      -2.885   5.337   4.283  0.00  0.00    +0.383 N 
ATOM      9  H   UNL     1      -2.161   5.887   4.762  0.00  0.00    -0.081 HD
ENDROOT
BRANCH   7  10
ATOM     10  C   UNL     1      -2.909   2.987   1.660  0.00  0.00    +0.215 C 
ATOM     11  O   UNL     1      -3.601   3.376   0.743  0.00  0.00    -0.276 OA
ATOM     12  N   UNL     1      -1.753   2.342   1.404  0.00  0.00    -0.311 N 
ATOM     13  H   UNL     1      -1.199   2.031   2.137  0.00  0.00    +0.149 HD
BRANCH  12  14
ATOM     14  C   UNL     1      -1.333   2.112   0.020  0.00  0.00    +0.139 C 
BRANCH  14  15
ATOM     15  C   UNL     1      -0.017   1.378   0.010  0.00  0.00    -0.027 A 
ATOM     16  C   UNL     1       1.169   2.089   0.002  0.00  0.00    +0.009 A 
ATOM     17  C   UNL     1       2.379   1.420  -0.012  0.00  0.00    +0.050 A 
ATOM     18  C   UNL     1       2.405   0.035  -0.021  0.00  0.00    +0.166 A 
ATOM     19  C   UNL     1       1.211  -0.681  -0.014  0.00  0.00    +0.167 A 
ATOM     20  C   UNL     1       0.002  -0.004   0.002  0.00  0.00    +0.054 A 
ATOM     21  O   UNL     1       1.501  -2.015  -0.025  0.00  0.00    -0.453 OA
ATOM     22  C   UNL     1       2.873  -2.106  -0.451  0.00  0.00    +0.466 C 
ATOM     23  O   UNL     1       3.444  -0.851  -0.037  0.00  0.00    -0.453 OA
ENDBRANCH  14  15
ENDBRANCH  12  14
ENDBRANCH   7  10
BRANCH   1  24
ATOM     24  C   UNL     1      -4.563   6.378   5.730  0.00  0.00    +0.130 C 
BRANCH  24  27
ATOM     25  C   UNL     1      -2.176   8.654   7.165  0.00  0.00    +0.113 A 
ATOM     26  C   UNL     1      -3.128   8.373   6.227  0.00  0.00    +0.138 A 
ATOM     27  N   UNL     1      -3.542   7.111   6.481  0.00  0.00    -0.253 N 
ATOM     28  N   UNL     1      -2.883   6.661   7.491  0.00  0.00    -0.065 NA
ATOM     29  N   UNL     1      -2.061   7.550   7.925  0.00  0.00    -0.130 NA
BRANCH  25  33
ATOM     30  C   UNL     1       0.000  12.283   7.587  0.00  0.00    -0.042 A 
ATOM     31  C   UNL     1       0.237  11.232   8.456  0.00  0.00    +0.005 A 
ATOM     32  C   UNL     1      -0.467  10.053   8.323  0.00  0.00    +0.010 A 
ATOM     33  C   UNL     1      -1.416   9.921   7.312  0.00  0.00    +0.004 A 
ATOM     34  C   UNL     1      -1.647  10.980   6.437  0.00  0.00    +0.010 A 
ATOM     35  C   UNL     1      -0.941  12.157   6.582  0.00  0.00    +0.005 A 
BRANCH  30  37
ATOM     36  C   UNL     1       2.267  13.289   7.582  0.00  0.00    +0.015 C 
ATOM     37  C   UNL     1       0.771  13.569   7.738  0.00  0.00    -0.013 C 
ATOM     38  C   UNL     1       0.323  14.561   6.662  0.00  0.00    +0.015 C 
ATOM     39  C   UNL     1       0.505  14.164   9.122  0.00  0.00    +0.015 C 
ENDBRANCH  30  37
ENDBRANCH  25  33
ENDBRANCH  24  27
ENDBRANCH   1  24
TORSDOF 7
