REMARK  Name = ZINC35519494
REMARK  6 active torsions:
REMARK  status: ('A' for Active; 'I' for Inactive)
REMARK    1  A    between atoms: C_4  and  C_8
REMARK    2  A    between atoms: C_11  and  C_13
REMARK    3  A    between atoms: N_17  and  N_21
REMARK    4  A    between atoms: C_22  and  C_24
REMARK    5  A    between atoms: C_24  and  C_25
REMARK    6  A    between atoms: C_25  and  N_26
REMARK                            x       y       z     vdW  Elec       q    Type
REMARK                         _______ _______ _______ _____ _____    ______ ____
ROOT
ATOM      1  C   UNL     1       6.970  -1.338  -1.282  0.00  0.00    +0.066 C 
ATOM      2  C   UNL     1       7.222  -0.479  -2.312  0.00  0.00    +0.082 C 
ATOM      3  C   UNL     1       8.388  -0.356  -3.128  0.00  0.00    +0.275 C 
ATOM      4  O   UNL     1       9.352  -1.080  -2.958  0.00  0.00    -0.267 OA
ATOM      5  N   UNL     1       8.388   0.567  -4.074  0.00  0.00    -0.170 N 
ATOM      6  C   UNL     1       7.317   1.370  -4.263  0.00  0.00    +0.138 C 
ATOM      7  S   UNL     1       7.102   2.618  -5.415  0.00  0.00    -0.026 S 
ATOM      8  S   UNL     1       6.181   0.795  -3.011  0.00  0.00    -0.059 S 
ENDROOT
BRANCH   1  12
ATOM      9  C   UNL     1       3.695  -0.683  -0.038  0.00  0.00    +0.137 A 
ATOM     10  C   UNL     1       4.055  -1.710   0.805  0.00  0.00    +0.050 A 
ATOM     11  C   UNL     1       5.348  -2.098   0.447  0.00  0.00    +0.050 A 
ATOM     12  C   UNL     1       5.731  -1.288  -0.608  0.00  0.00    +0.130 A 
ATOM     13  O   UNL     1       4.713  -0.447  -0.885  0.00  0.00    -0.455 OA
BRANCH   9  17
ATOM     14  C   UNL     1      -0.017   1.381   0.010  0.00  0.00    +0.021 A 
ATOM     15  C   UNL     1       1.168   2.095   0.002  0.00  0.00    +0.022 A 
ATOM     16  C   UNL     1       2.378   1.432  -0.013  0.00  0.00    +0.052 A 
ATOM     17  C   UNL     1       2.405   0.034  -0.021  0.00  0.00    +0.037 A 
ATOM     18  C   UNL     1       1.205  -0.681  -0.013  0.00  0.00    +0.033 A 
ATOM     19  C   UNL     1       0.002  -0.004   0.002  0.00  0.00    +0.042 A 
ATOM     20 CL   UNL     1      -1.491  -0.890   0.012  0.00  0.00    -0.084 Cl
ATOM     21 CL   UNL     1       3.863   2.330  -0.024  0.00  0.00    -0.083 Cl
ENDBRANCH   9  17
ENDBRANCH   1  12
BRANCH   5  22
ATOM     22  N   UNL     1       9.515   0.715  -4.894  0.00  0.00    -0.226 N 
ATOM     23  C   UNL     1       9.488   0.265  -6.164  0.00  0.00    +0.228 C 
ATOM     24  O   UNL     1       8.489  -0.269  -6.597  0.00  0.00    -0.274 OA
ATOM     25  H   UNL     1      10.314   1.142  -4.547  0.00  0.00    +0.173 HD
BRANCH  23  26
ATOM     26  C   UNL     1      10.700   0.424  -7.045  0.00  0.00    +0.079 C 
BRANCH  26  27
ATOM     27  C   UNL     1      10.408  -0.166  -8.426  0.00  0.00    -0.070 C 
BRANCH  27  28
ATOM     28  N   UNL     1      11.590  -0.011  -9.285  0.00  0.00    +0.380 N 
ATOM     29  C   UNL     1      11.845   1.417  -9.510  0.00  0.00    -0.079 C 
ATOM     30  C   UNL     1      13.121   1.587 -10.337  0.00  0.00    -0.019 C 
ATOM     31  C   UNL     1      12.948   0.879 -11.684  0.00  0.00    -0.004 C 
ATOM     32  C   UNL     1      12.609  -0.594 -11.435  0.00  0.00    -0.019 C 
ATOM     33  C   UNL     1      11.352  -0.683 -10.568  0.00  0.00    -0.079 C 
ATOM     34  H   UNL     1      12.390  -0.426  -8.832  0.00  0.00    -0.082 HD
ENDBRANCH  27  28
ENDBRANCH  26  27
ENDBRANCH  23  26
ENDBRANCH   5  22
TORSDOF 6
