REMARK  Name = ZINC43650260
REMARK  4 active torsions:
REMARK  status: ('A' for Active; 'I' for Inactive)
REMARK    1  A    between atoms: C_3  and  C_11
REMARK    2  A    between atoms: C_6  and  N_7
REMARK    3  A    between atoms: C_11  and  C_12
REMARK    4  A    between atoms: C_19  and  N_21
REMARK                            x       y       z     vdW  Elec       q    Type
REMARK                         _______ _______ _______ _____ _____    ______ ____
ROOT
ATOM      1  C   UNL     1       3.672   2.184  -0.022  0.00  0.00    +0.038 C 
ENDROOT
BRANCH   1   4
ATOM      2  C   UNL     1      -0.017   1.378   0.010  0.00  0.00    +0.033 A 
ATOM      3  C   UNL     1       1.171   2.086   0.002  0.00  0.00    +0.007 A 
ATOM      4  C   UNL     1       2.377   1.412  -0.013  0.00  0.00    -0.033 A 
ATOM      5  C   UNL     1       2.397   0.029  -0.021  0.00  0.00    +0.023 A 
ATOM      6  C   UNL     1       1.208  -0.679  -0.013  0.00  0.00    +0.048 A 
ATOM      7  C   UNL     1       0.002  -0.004   0.002  0.00  0.00    +0.127 A 
ATOM      8 BR   UNL     1       4.047  -0.894  -0.042  0.00  0.00    -0.050 Br
BRANCH   7   9
ATOM      9  N   UNL     1      -1.270  -0.761   0.010  0.00  0.00    +0.056 N 
ATOM     10  O   UNL     1      -2.325  -0.171   0.023  0.00  0.00    -0.126 OA
ATOM     11  O   UNL     1      -1.253  -1.970   0.004  0.00  0.00    -0.126 OA
ENDBRANCH   7   9
ENDBRANCH   1   4
BRANCH   1  12
ATOM     12  C   UNL     1       4.252   2.223   1.393  0.00  0.00    -0.021 C 
ATOM     13  C   UNL     1       3.280   2.991   2.309  0.00  0.00    +0.002 C 
ATOM     14  C   UNL     1       3.940   3.460   3.621  0.00  0.00    +0.000 C 
ATOM     15  C   UNL     1       4.838   2.412   4.220  0.00  0.00    -0.000 C 
ATOM     16  C   UNL     1       6.281   2.669   3.737  0.00  0.00    -0.002 C 
ATOM     17  C   UNL     1       6.514   2.166   2.392  0.00  0.00    -0.016 C 
ATOM     18  C   UNL     1       5.616   2.856   1.343  0.00  0.00    -0.072 C 
BRANCH  18  19
ATOM     19  N   UNL     1       6.194   2.677   0.005  0.00  0.00    +0.380 N 
ATOM     20  H   UNL     1       5.596   3.113  -0.681  0.00  0.00    -0.090 HD
ATOM     21  H   UNL     1       7.109   3.102  -0.026  0.00  0.00    -0.090 HD
ATOM     22  H   UNL     1       6.274   1.692  -0.198  0.00  0.00    -0.090 HD
ENDBRANCH  18  19
ENDBRANCH   1  12
TORSDOF 4
