REMARK  Name = ZINC10338946
REMARK  6 active torsions:
REMARK  status: ('A' for Active; 'I' for Inactive)
REMARK    1  A    between atoms: C_1  and  C_2
REMARK    2  A    between atoms: C_2  and  C_3
REMARK    3  A    between atoms: C_3  and  C_4
REMARK    4  A    between atoms: C_5  and  C_21
REMARK    5  A    between atoms: C_9  and  C_16
REMARK    6  A    between atoms: C_10  and  C_15
REMARK                            x       y       z     vdW  Elec       q    Type
REMARK                         _______ _______ _______ _____ _____    ______ ____
ROOT
ATOM      1  C   UNL     1       3.131   6.111   2.666  0.00  0.00    +0.038 A 
ATOM      2  C   UNL     1       3.100   4.816   3.056  0.00  0.00    +0.023 A 
ATOM      3  N   UNL     1       2.552   3.873   2.240  0.00  0.00    -0.343 N 
ATOM      4  H   UNL     1       2.530   2.945   2.520  0.00  0.00    +0.167 HD
ATOM      5  C   UNL     1       2.027   4.236   1.018  0.00  0.00    +0.146 A 
ATOM      6  C   UNL     1       1.421   3.508   0.006  0.00  0.00    +0.054 A 
ATOM      7  C   UNL     1       1.078   4.416  -1.013  0.00  0.00    +0.071 A 
ATOM      8  N   UNL     1       1.456   5.613  -0.649  0.00  0.00    -0.166 NA
ATOM      9  N   UNL     1       2.056   5.539   0.614  0.00  0.00    -0.179 N 
ATOM     10  C   UNL     1       2.601   6.478   1.412  0.00  0.00    +0.278 A 
ATOM     11  O   UNL     1       2.624   7.644   1.057  0.00  0.00    -0.265 OA
ATOM     12  C   UNL     1       0.392   4.066  -2.308  0.00  0.00    +0.068 C 
ATOM     13  C   UNL     1       3.673   4.418   4.392  0.00  0.00    +0.064 C 
ENDROOT
BRANCH   6  14
ATOM     14  C   UNL     1       1.175   2.049   0.002  0.00  0.00    +0.025 A 
ATOM     15  C   UNL     1      -0.017   1.376   0.010  0.00  0.00    +0.016 A 
ATOM     16  C   UNL     1       0.002  -0.004   0.002  0.00  0.00    +0.008 A 
ATOM     17  C   UNL     1       1.195  -0.648  -0.013  0.00  0.00    +0.046 A 
ATOM     18  S   UNL     1       2.354   0.709  -0.017  0.00  0.00    -0.096 S 
ENDBRANCH   6  14
BRANCH   1  19
ATOM     19  C   UNL     1       3.736   7.158   3.565  0.00  0.00    +0.042 C 
BRANCH  19  21
ATOM     20  C   UNL     1       5.812   8.448   4.084  0.00  0.00    +0.004 C 
ATOM     21  C   UNL     1       5.197   7.386   3.171  0.00  0.00    +0.001 C 
ENDBRANCH  19  21
ENDBRANCH   1  19
TORSDOF 3
