REMARK  Name = ZINC42175684
REMARK  6 active torsions:
REMARK  status: ('A' for Active; 'I' for Inactive)
REMARK    1  A    between atoms: C_1  and  C_2
REMARK    2  A    between atoms: C_2  and  C_20
REMARK    3  A    between atoms: N_5  and  C_9
REMARK    4  A    between atoms: C_9  and  C_10
REMARK    5  A    between atoms: N_12  and  C_13
REMARK    6  A    between atoms: C_13  and  C_18
REMARK                            x       y       z     vdW  Elec       q    Type
REMARK                         _______ _______ _______ _____ _____    ______ ____
ROOT
ATOM      1  C   UNL     1      -0.023   1.523  -0.086  0.00  0.00    +0.047 C 
ATOM      2  C   UNL     1       0.002  -0.004   0.002  0.00  0.00    +0.140 C 
ATOM      3  C   UNL     1       0.741  -0.594  -1.183  0.00  0.00    +0.251 C 
ATOM      4  O   UNL     1       0.447  -0.491  -2.354  0.00  0.00    -0.272 OA
ATOM      5  N   UNL     1       1.793  -1.256  -0.662  0.00  0.00    -0.215 N 
ATOM      6  C   UNL     1       1.822  -1.168   0.672  0.00  0.00    +0.310 C 
ATOM      7  O   UNL     1       2.676  -1.684   1.366  0.00  0.00    -0.252 OA
ATOM      8  N   UNL     1       0.798  -0.444   1.161  0.00  0.00    -0.281 N 
ATOM      9  H   UNL     1       0.620  -0.249   2.094  0.00  0.00    +0.152 HD
ENDROOT
BRANCH   2  10
ATOM     10  C   UNL     1      -1.399  -0.552   0.083  0.00  0.00    +0.055 A 
ATOM     11  C   UNL     1      -1.678  -1.816  -0.408  0.00  0.00    +0.132 A 
ATOM     12  C   UNL     1      -2.966  -2.318  -0.333  0.00  0.00    +0.039 A 
ATOM     13  C   UNL     1      -3.973  -1.559   0.232  0.00  0.00    +0.006 A 
ATOM     14  C   UNL     1      -3.696  -0.297   0.723  0.00  0.00    +0.039 A 
ATOM     15  C   UNL     1      -2.407   0.205   0.654  0.00  0.00    +0.132 A 
ATOM     16  F   UNL     1      -2.135   1.436   1.139  0.00  0.00    -0.205 F 
ATOM     17  F   UNL     1      -0.695  -2.558  -0.961  0.00  0.00    -0.205 F 
ENDBRANCH   2  10
BRANCH   5  18
ATOM     18  C   UNL     1       2.784  -1.984  -1.460  0.00  0.00    +0.213 C 
BRANCH  18  19
ATOM     19  C   UNL     1       3.912  -1.056  -1.829  0.00  0.00    +0.232 C 
ATOM     20  O   UNL     1       3.891   0.100  -1.462  0.00  0.00    -0.274 OA
ATOM     21  N   UNL     1       4.944  -1.510  -2.567  0.00  0.00    -0.296 N 
ATOM     22  H   UNL     1       4.961  -2.434  -2.861  0.00  0.00    +0.150 HD
BRANCH  21  23
ATOM     23  C   UNL     1       6.041  -0.607  -2.926  0.00  0.00    +0.121 C 
ATOM     24  C   UNL     1       5.512   0.542  -3.809  0.00  0.00    +0.041 C 
ATOM     25  C   UNL     1       6.650   0.791  -4.830  0.00  0.00    +0.003 C 
ATOM     26  C   UNL     1       7.161  -0.640  -5.128  0.00  0.00    +0.003 C 
ATOM     27  C   UNL     1       7.089  -1.359  -3.764  0.00  0.00    +0.041 C 
BRANCH  23  28
ATOM     28  C   UNL     1       6.665  -0.063  -1.709  0.00  0.00    +0.088 C 
ATOM     29  N   UNL     1       7.146   0.357  -0.769  0.00  0.00    -0.194 NA
ENDBRANCH  23  28
ENDBRANCH  21  23
ENDBRANCH  18  19
ENDBRANCH   5  18
TORSDOF 5
