REMARK  Name = ZINC40376635
REMARK  6 active torsions:
REMARK  status: ('A' for Active; 'I' for Inactive)
REMARK    1  A    between atoms: C_1  and  C_2
REMARK    2  A    between atoms: C_2  and  C_4
REMARK    3  A    between atoms: C_2  and  N_8
REMARK    4  A    between atoms: N_5  and  O_6
REMARK    5  A    between atoms: N_8  and  S_9
REMARK    6  A    between atoms: S_9  and  C_12
REMARK                            x       y       z     vdW  Elec       q    Type
REMARK                         _______ _______ _______ _____ _____    ______ ____
ROOT
ATOM      1  S   UNL     1      -2.092  -0.923   1.446  0.00  0.00    +0.062 S 
ATOM      2  O   UNL     1      -3.411  -1.347   1.131  0.00  0.00    -0.153 OA
ATOM      3  O   UNL     1      -1.170  -1.752   2.140  0.00  0.00    -0.153 OA
ENDROOT
BRANCH   1   4
ATOM      4  C   UNL     1      -2.251   0.555   2.392  0.00  0.00    +0.142 A 
ATOM      5  C   UNL     1      -1.234   0.944   3.245  0.00  0.00    +0.070 A 
ATOM      6  C   UNL     1      -1.358   2.104   3.987  0.00  0.00    +0.037 A 
ATOM      7  C   UNL     1      -2.501   2.876   3.877  0.00  0.00    +0.021 A 
ATOM      8  C   UNL     1      -3.518   2.488   3.025  0.00  0.00    +0.037 A 
ATOM      9  C   UNL     1      -3.392   1.330   2.278  0.00  0.00    +0.070 A 
ATOM     10 CL   UNL     1      -4.666   0.847   1.203  0.00  0.00    -0.081 Cl
ATOM     11 BR   UNL     1      -2.671   4.462   4.893  0.00  0.00    -0.050 Br
ATOM     12 CL   UNL     1       0.200  -0.026   3.383  0.00  0.00    -0.081 Cl
ENDBRANCH   1   4
BRANCH   1  13
ATOM     13  N   UNL     1      -1.372  -0.511   0.012  0.00  0.00    -0.180 NA
ATOM     14  H   UNL     1      -1.861  -0.606  -0.820  0.00  0.00    +0.149 HD
BRANCH  13  16
ATOM     15  C   UNL     1      -0.019   1.526   0.010  0.00  0.00    +0.034 C 
ATOM     16  C   UNL     1       0.002  -0.004   0.002  0.00  0.00    +0.140 C 
BRANCH  16  17
ATOM     17  C   UNL     1       0.707  -0.490  -1.238  0.00  0.00    +0.150 C 
ATOM     18  N   UNL     1       1.995  -0.596  -1.249  0.00  0.00    -0.075 NA
ATOM     19  N   UNL     1      -0.021  -0.821  -2.359  0.00  0.00    -0.343 N 
ATOM     20  H   UNL     1      -0.987  -0.742  -2.351  0.00  0.00    +0.144 HD
ATOM     21  H   UNL     1       0.434  -1.134  -3.157  0.00  0.00    +0.144 HD
BRANCH  18  22
ATOM     22  O   UNL     1       2.658  -1.053  -2.414  0.00  0.00    -0.408 OA
ATOM     23  H   UNL     1       3.620  -1.099  -2.327  0.00  0.00    +0.328 HD
ENDBRANCH  18  22
ENDBRANCH  16  17
ENDBRANCH  13  16
ENDBRANCH   1  13
TORSDOF 5
