REMARK  Name = ZINC40951120
REMARK  10 active torsions:
REMARK  status: ('A' for Active; 'I' for Inactive)
REMARK    1  A    between atoms: C_1  and  C_2
REMARK    2  A    between atoms: N_5  and  C_25
REMARK    3  A    between atoms: N_8  and  S_9
REMARK    4  A    between atoms: S_9  and  C_12
REMARK    5  A    between atoms: C_15  and  C_18
REMARK    6  A    between atoms: C_18  and  C_19
REMARK    7  A    between atoms: C_18  and  C_20
REMARK    8  A    between atoms: C_18  and  O_24
REMARK    9  A    between atoms: C_25  and  C_26
REMARK   10  A    between atoms: C_26  and  C_31
REMARK                            x       y       z     vdW  Elec       q    Type
REMARK                         _______ _______ _______ _____ _____    ______ ____
ROOT
ATOM      1  C   UNL     1       0.215   0.448  -1.384  0.00  0.00    +0.024 C 
ATOM      2  C   UNL     1       0.345  -0.914  -0.700  0.00  0.00    +0.060 C 
ATOM      3  C   UNL     1      -1.049  -1.478  -0.407  0.00  0.00    -0.058 C 
ATOM      4  N   UNL     1      -0.921  -2.718   0.370  0.00  0.00    +0.382 N 
ATOM      5  C   UNL     1      -0.328  -2.427   1.681  0.00  0.00    -0.061 C 
ATOM      6  C   UNL     1       1.101  -1.910   1.492  0.00  0.00    +0.091 C 
ATOM      7  N   UNL     1       1.068  -0.762   0.572  0.00  0.00    -0.177 NA
ATOM      8  H   UNL     1      -0.330  -3.366  -0.129  0.00  0.00    -0.082 HD
ENDROOT
BRANCH   7   9
ATOM      9  S   UNL     1       1.817   0.663   0.960  0.00  0.00    +0.061 S 
ATOM     10  O   UNL     1       1.024   1.703   0.404  0.00  0.00    -0.153 OA
ATOM     11  O   UNL     1       2.124   0.597   2.346  0.00  0.00    -0.153 OA
BRANCH   9  12
ATOM     12  C   UNL     1       3.357   0.692   0.104  0.00  0.00    +0.106 A 
ATOM     13  C   UNL     1       4.453   0.035   0.631  0.00  0.00    +0.029 A 
ATOM     14  C   UNL     1       5.661   0.057  -0.040  0.00  0.00    +0.008 A 
ATOM     15  C   UNL     1       5.774   0.737  -1.239  0.00  0.00    -0.008 A 
ATOM     16  C   UNL     1       4.677   1.393  -1.766  0.00  0.00    +0.008 A 
ATOM     17  C   UNL     1       3.468   1.367  -1.097  0.00  0.00    +0.029 A 
BRANCH  15  18
ATOM     18  C   UNL     1       7.091   0.762  -1.970  0.00  0.00    +0.183 C 
ATOM     19  C   UNL     1       6.837   0.870  -3.475  0.00  0.00    +0.056 C 
BRANCH  18  20
ATOM     20  C   UNL     1       7.910   1.968  -1.504  0.00  0.00    +0.422 C 
ATOM     21  F   UNL     1       8.142   1.869  -0.128  0.00  0.00    -0.167 F 
ATOM     22  F   UNL     1       9.133   1.991  -2.183  0.00  0.00    -0.167 F 
ATOM     23  F   UNL     1       7.203   3.144  -1.775  0.00  0.00    -0.167 F 
ENDBRANCH  18  20
BRANCH  18  24
ATOM     24  O   UNL     1       7.812  -0.440  -1.694  0.00  0.00    -0.376 OA
ATOM     25  H   UNL     1       8.009  -0.574  -0.756  0.00  0.00    +0.211 HD
ENDBRANCH  18  24
ENDBRANCH  15  18
ENDBRANCH   9  12
ENDBRANCH   7   9
BRANCH   4  26
ATOM     26  C   UNL     1      -2.249  -3.316   0.556  0.00  0.00    -0.067 C 
BRANCH  26  27
ATOM     27  C   UNL     1      -2.096  -4.744   1.084  0.00  0.00    -0.019 C 
ATOM     28  C   UNL     1      -0.978  -5.475   0.313  0.00  0.00    +0.010 C 
ATOM     29  C   UNL     1       0.276  -5.300   1.206  0.00  0.00    +0.001 C 
ATOM     30  C   UNL     1      -0.302  -5.433   2.636  0.00  0.00    +0.001 C 
ATOM     31  C   UNL     1      -1.667  -4.717   2.561  0.00  0.00    +0.010 C 
BRANCH  27  32
ATOM     32  C   UNL     1      -3.397  -5.490   0.938  0.00  0.00    -0.040 A 
ATOM     33  C   UNL     1      -4.497  -4.891   0.343  0.00  0.00    +0.024 A 
ATOM     34  C   UNL     1      -5.674  -5.606   0.227  0.00  0.00    +0.111 A 
ATOM     35  N   UNL     1      -5.758  -6.843   0.674  0.00  0.00    -0.263 NA
ATOM     36  C   UNL     1      -4.733  -7.446   1.245  0.00  0.00    +0.111 A 
ATOM     37  C   UNL     1      -3.522  -6.795   1.391  0.00  0.00    +0.024 A 
ENDBRANCH  27  32
ENDBRANCH  26  27
ENDBRANCH   4  26
TORSDOF 8
