REMARK  Name = ZINC06194617
REMARK  11 active torsions:
REMARK  status: ('A' for Active; 'I' for Inactive)
REMARK    1  A    between atoms: C_1  and  C_2
REMARK    2  A    between atoms: C_2  and  O_3
REMARK    3  A    between atoms: O_3  and  C_4
REMARK    4  A    between atoms: C_4  and  C_6
REMARK    5  A    between atoms: C_11  and  C_13
REMARK    6  A    between atoms: C_11  and  C_27
REMARK    7  A    between atoms: C_11  and  N_69
REMARK    8  A    between atoms: C_17  and  C_26
REMARK    9  A    between atoms: C_18  and  C_25
REMARK   10  A    between atoms: N_31  and  C_32
REMARK   11  A    between atoms: C_32  and  C_33
REMARK                            x       y       z     vdW  Elec       q    Type
REMARK                         _______ _______ _______ _____ _____    ______ ____
ROOT
ATOM      1  C   UNL     1       1.783  -1.450  -1.740  0.00  0.00    +0.039 C 
ENDROOT
BRANCH   1   2
ATOM      2  C   UNL     1       2.714  -2.595  -1.432  0.00  0.00    +0.011 A 
ATOM      3  C   UNL     1       4.053  -2.433  -1.576  0.00  0.00    +0.017 A 
ATOM      4  C   UNL     1       4.930  -3.565  -1.269  0.00  0.00    -0.001 A 
ATOM      5  C   UNL     1       6.319  -3.459  -1.397  0.00  0.00    +0.013 A 
ATOM      6  C   UNL     1       7.110  -4.533  -1.104  0.00  0.00    -0.047 A 
ATOM      7  C   UNL     1       6.548  -5.729  -0.678  0.00  0.00    -0.046 A 
ATOM      8  C   UNL     1       5.182  -5.856  -0.544  0.00  0.00    +0.030 A 
ATOM      9  C   UNL     1       4.356  -4.776  -0.838  0.00  0.00    +0.049 A 
ATOM     10  N   UNL     1       2.987  -4.874  -0.712  0.00  0.00    -0.322 N 
ATOM     11  H   UNL     1       2.581  -5.737  -0.409  0.00  0.00    +0.169 HD
ATOM     12  C   UNL     1       2.190  -3.828  -0.991  0.00  0.00    +0.251 A 
ATOM     13  O   UNL     1       0.984  -3.950  -0.864  0.00  0.00    -0.268 OA
ATOM     14  C   UNL     1       7.440  -6.901  -0.360  0.00  0.00    +0.044 C 
ATOM     15  C   UNL     1       8.606  -4.419  -1.243  0.00  0.00    +0.044 C 
ENDBRANCH   1   2
BRANCH   1  21
ATOM     16  C   UNL     1      -0.410  -1.732  -5.399  0.00  0.00    +0.094 C 
ATOM     17  C   UNL     1      -1.120  -1.254  -4.129  0.00  0.00    -0.004 C 
ATOM     18  C   UNL     1      -0.079  -0.758  -3.124  0.00  0.00    -0.077 C 
ATOM     19  C   UNL     1       1.581  -2.291  -4.001  0.00  0.00    -0.077 C 
ATOM     20  C   UNL     1       0.589  -2.832  -5.032  0.00  0.00    -0.004 C 
ATOM     21  N   UNL     1       0.838  -1.871  -2.794  0.00  0.00    +0.389 N 
ATOM     22  H   UNL     1       0.286  -2.666  -2.450  0.00  0.00    -0.080 HD
BRANCH  16  23
ATOM     23  C   UNL     1      -1.426  -2.276  -6.370  0.00  0.00    +0.310 C 
ATOM     24  O   UNL     1      -2.599  -2.281  -6.078  0.00  0.00    -0.251 OA
BRANCH  23  25
ATOM     25  O   UNL     1      -1.029  -2.753  -7.560  0.00  0.00    -0.465 OA
BRANCH  25  27
ATOM     26  C   UNL     1      -1.422  -3.759  -9.743  0.00  0.00    +0.048 C 
ATOM     27  C   UNL     1      -2.062  -3.261  -8.445  0.00  0.00    +0.229 C 
ENDBRANCH  25  27
ENDBRANCH  23  25
ENDBRANCH  16  23
ENDBRANCH   1  21
BRANCH   1  28
ATOM     28  C   UNL     1       2.585  -0.257  -2.192  0.00  0.00    +0.143 A 
ATOM     29  N   UNL     1       3.157  -0.097  -3.361  0.00  0.00    -0.115 NA
ATOM     30  N   UNL     1       3.750   1.047  -3.360  0.00  0.00    -0.023 NA
ATOM     31  N   UNL     1       3.568   1.622  -2.222  0.00  0.00    -0.044 NA
ATOM     32  N   UNL     1       2.851   0.851  -1.476  0.00  0.00    -0.226 N 
BRANCH  32  33
ATOM     33  C   UNL     1       2.415   1.127  -0.105  0.00  0.00    +0.182 C 
BRANCH  33  34
ATOM     34  C   UNL     1       1.085   1.834  -0.135  0.00  0.00    -0.026 A 
ATOM     35  C   UNL     1      -0.088   1.103  -0.115  0.00  0.00    +0.005 A 
ATOM     36  C   UNL     1      -1.308   1.752  -0.147  0.00  0.00    +0.000 A 
ATOM     37  C   UNL     1      -1.356   3.132  -0.189  0.00  0.00    +0.000 A 
ATOM     38  C   UNL     1      -0.183   3.864  -0.208  0.00  0.00    +0.000 A 
ATOM     39  C   UNL     1       1.037   3.215  -0.181  0.00  0.00    +0.005 A 
ENDBRANCH  33  34
ENDBRANCH  32  33
ENDBRANCH   1  28
TORSDOF 8
