REMARK  Name = ZINC35640901
REMARK  11 active torsions:
REMARK  status: ('A' for Active; 'I' for Inactive)
REMARK    1  A    between atoms: C_1  and  C_2
REMARK    2  A    between atoms: C_2  and  O_3
REMARK    3  A    between atoms: O_3  and  C_4
REMARK    4  A    between atoms: C_4  and  C_6
REMARK    5  A    between atoms: C_7  and  C_24
REMARK    6  A    between atoms: N_8  and  C_21
REMARK    7  A    between atoms: C_12  and  C_14
REMARK    8  A    between atoms: C_21  and  C_22
REMARK    9  A    between atoms: C_24  and  N_25
REMARK   10  A    between atoms: N_28  and  C_31
REMARK   11  A    between atoms: C_31  and  C_32
REMARK                            x       y       z     vdW  Elec       q    Type
REMARK                         _______ _______ _______ _____ _____    ______ ____
ROOT
ATOM      1  C   UNL     1       1.598  -2.369   2.355  0.00  0.00    +0.080 C 
ATOM      2  C   UNL     1       1.513  -3.685   2.645  0.00  0.00    +0.041 C 
ATOM      3  N   UNL     1       2.036  -4.186   3.802  0.00  0.00    -0.254 N 
ATOM      4  C   UNL     1       2.659  -3.438   4.722  0.00  0.00    +0.307 C 
ATOM      5  O   UNL     1       3.092  -3.975   5.722  0.00  0.00    -0.252 OA
ATOM      6  N   UNL     1       2.821  -2.108   4.574  0.00  0.00    -0.288 N 
ATOM      7  C   UNL     1       2.297  -1.470   3.354  0.00  0.00    +0.144 C 
ATOM      8  H   UNL     1       3.275  -1.585   5.253  0.00  0.00    +0.151 HD
ENDROOT
BRANCH   7   9
ATOM      9  C   UNL     1       1.324  -0.400   3.777  0.00  0.00    -0.021 A 
ATOM     10  C   UNL     1       0.362  -0.678   4.731  0.00  0.00    +0.006 A 
ATOM     11  C   UNL     1      -0.530   0.303   5.120  0.00  0.00    +0.002 A 
ATOM     12  C   UNL     1      -0.463   1.563   4.555  0.00  0.00    +0.020 A 
ATOM     13  C   UNL     1       0.498   1.841   3.600  0.00  0.00    +0.041 A 
ATOM     14  C   UNL     1       1.396   0.861   3.216  0.00  0.00    +0.025 A 
ATOM     15 CL   UNL     1       0.583   3.423   2.890  0.00  0.00    -0.084 Cl
ENDBRANCH   7   9
BRANCH   1  16
ATOM     16  C   UNL     1       1.057  -1.847   1.156  0.00  0.00    +0.339 C 
ATOM     17  O   UNL     1       1.789  -1.592   0.219  0.00  0.00    -0.245 OA
BRANCH  16  18
ATOM     18  O   UNL     1      -0.272  -1.634   1.052  0.00  0.00    -0.462 OA
BRANCH  18  20
ATOM     19  C   UNL     1      -2.267  -0.933  -0.117  0.00  0.00    +0.048 C 
ATOM     20  C   UNL     1      -0.749  -1.106  -0.187  0.00  0.00    +0.229 C 
ENDBRANCH  18  20
ENDBRANCH  16  18
ENDBRANCH   1  16
BRANCH   3  21
ATOM     21  C   UNL     1       1.909  -5.624   4.052  0.00  0.00    +0.141 C 
BRANCH  21  22
ATOM     22  C   UNL     1       3.104  -6.342   3.481  0.00  0.00    -0.015 C 
ATOM     23  C   UNL     1       3.828  -7.120   4.246  0.00  0.00    +0.005 C 
ENDBRANCH  21  22
ENDBRANCH   3  21
BRANCH   2  24
ATOM     24  C   UNL     1       0.830  -4.615   1.676  0.00  0.00    +0.136 C 
BRANCH  24  25
ATOM     25  N   UNL     1       1.820  -5.534   1.099  0.00  0.00    -0.300 NA
ATOM     26  C   UNL     1       2.785  -4.810   0.260  0.00  0.00    +0.066 C 
ATOM     27  C   UNL     1       3.832  -5.792  -0.272  0.00  0.00    -0.063 C 
ATOM     28  N   UNL     1       3.166  -6.841  -1.055  0.00  0.00    +0.384 N 
ATOM     29  C   UNL     1       2.223  -7.571  -0.198  0.00  0.00    -0.063 C 
ATOM     30  C   UNL     1       1.163  -6.604   0.335  0.00  0.00    +0.066 C 
ATOM     31  H   UNL     1       2.664  -6.420  -1.823  0.00  0.00    -0.081 HD
BRANCH  28  32
ATOM     32  C   UNL     1       4.172  -7.773  -1.581  0.00  0.00    -0.043 C 
BRANCH  32  33
ATOM     33  C   UNL     1       3.504  -8.777  -2.484  0.00  0.00    -0.064 A 
ATOM     34  C   UNL     1       3.012  -9.959  -1.960  0.00  0.00    +0.002 A 
ATOM     35  C   UNL     1       2.399 -10.880  -2.789  0.00  0.00    +0.000 A 
ATOM     36  C   UNL     1       2.277 -10.619  -4.141  0.00  0.00    +0.000 A 
ATOM     37  C   UNL     1       2.768  -9.438  -4.665  0.00  0.00    +0.000 A 
ATOM     38  C   UNL     1       3.378  -8.515  -3.836  0.00  0.00    +0.002 A 
ENDBRANCH  32  33
ENDBRANCH  28  32
ENDBRANCH  24  25
ENDBRANCH   2  24
TORSDOF 10
