REMARK  Name = ZINC00861432
REMARK  9 active torsions:
REMARK  status: ('A' for Active; 'I' for Inactive)
REMARK    1  A    between atoms: C_1  and  C_2
REMARK    2  A    between atoms: C_3  and  C_24
REMARK    3  A    between atoms: C_4  and  C_14
REMARK    4  A    between atoms: C_16  and  O_22
REMARK    5  A    between atoms: C_17  and  O_21
REMARK    6  A    between atoms: O_22  and  C_23
REMARK    7  A    between atoms: C_24  and  O_26
REMARK    8  A    between atoms: O_26  and  C_27
REMARK    9  A    between atoms: C_27  and  C_28
REMARK                            x       y       z     vdW  Elec       q    Type
REMARK                         _______ _______ _______ _____ _____    ______ ____
ROOT
ATOM      1  C   UNL     1      -2.576   5.298  -4.450  0.00  0.00    +0.061 C 
ATOM      2  C   UNL     1      -2.161   6.113  -3.252  0.00  0.00    +0.016 C 
ATOM      3  C   UNL     1      -1.639   5.500  -2.176  0.00  0.00    +0.065 C 
ATOM      4  C   UNL     1      -1.212   6.279  -0.967  0.00  0.00    +0.092 C 
ATOM      5  C   UNL     1      -1.816   7.659  -0.969  0.00  0.00    +0.024 C 
ATOM      6  C   UNL     1      -2.333   8.185  -2.099  0.00  0.00    +0.015 C 
ATOM      7  N   UNL     1      -2.316   7.471  -3.268  0.00  0.00    -0.321 N 
ATOM      8  C   UNL     1      -2.944   9.564  -2.107  0.00  0.00    +0.051 C 
ATOM      9  C   UNL     1      -2.248  10.440  -1.062  0.00  0.00    +0.014 C 
ATOM     10  C   UNL     1      -2.396   9.772   0.309  0.00  0.00    +0.080 C 
ATOM     11  C   UNL     1      -1.827   8.380   0.238  0.00  0.00    +0.162 C 
ATOM     12  O   UNL     1      -1.369   7.872   1.242  0.00  0.00    -0.292 OA
ATOM     13  H   UNL     1      -2.429   8.001  -4.225  0.00  0.00    +0.152 HD
ENDROOT
BRANCH   4  14
ATOM     14  C   UNL     1       0.290   6.402  -0.963  0.00  0.00    -0.030 A 
ATOM     15  C   UNL     1       1.021   5.889   0.093  0.00  0.00    +0.054 A 
ATOM     16  C   UNL     1       2.402   6.001   0.099  0.00  0.00    +0.163 A 
ATOM     17  C   UNL     1       3.051   6.630  -0.959  0.00  0.00    +0.177 A 
ATOM     18  C   UNL     1       2.312   7.143  -2.015  0.00  0.00    +0.086 A 
ATOM     19  C   UNL     1       0.934   7.022  -2.017  0.00  0.00    +0.028 A 
ATOM     20 CL   UNL     1       3.117   7.928  -3.337  0.00  0.00    -0.080 Cl
BRANCH  17  21
ATOM     21  O   UNL     1       4.407   6.743  -0.958  0.00  0.00    -0.502 OA
ATOM     22  H   UNL     1       4.918   7.241  -1.795  0.00  0.00    +0.292 HD
ENDBRANCH  17  21
BRANCH  16  23
ATOM     23  O   UNL     1       3.122   5.497   1.137  0.00  0.00    -0.491 OA
ATOM     24  C   UNL     1       2.390   4.865   2.188  0.00  0.00    +0.277 C 
ENDBRANCH  16  23
ENDBRANCH   4  14
BRANCH   3  25
ATOM     25  C   UNL     1      -1.496   4.093  -2.180  0.00  0.00    +0.338 C 
ATOM     26  O   UNL     1      -1.938   3.439  -3.107  0.00  0.00    -0.245 OA
BRANCH  25  27
ATOM     27  O   UNL     1      -0.868   3.475  -1.158  0.00  0.00    -0.459 OA
BRANCH  27  28
ATOM     28  C   UNL     1      -0.759   2.052  -1.228  0.00  0.00    +0.264 C 
BRANCH  28  29
ATOM     29  C   UNL     1      -0.023   1.535   0.010  0.00  0.00    +0.156 C 
ATOM     30  C   UNL     1      -0.010  -0.006   0.006  0.00  0.00    +0.037 C 
ATOM     31  C   UNL     1       1.494  -0.373   0.029  0.00  0.00    +0.031 C 
ATOM     32  C   UNL     1       2.136   0.925   0.582  0.00  0.00    +0.160 C 
ATOM     33  O   UNL     1       1.345   1.974  -0.016  0.00  0.00    -0.373 OA
ENDBRANCH  28  29
ENDBRANCH  27  28
ENDBRANCH  25  27
ENDBRANCH   3  25
TORSDOF 7
