REMARK  Name = ZINC16682540
REMARK  10 active torsions:
REMARK  status: ('A' for Active; 'I' for Inactive)
REMARK    1  A    between atoms: C_1  and  C_2
REMARK    2  A    between atoms: C_2  and  O_3
REMARK    3  A    between atoms: O_3  and  C_4
REMARK    4  A    between atoms: C_4  and  C_6
REMARK    5  A    between atoms: C_7  and  C_25
REMARK    6  A    between atoms: C_9  and  N_24
REMARK    7  A    between atoms: C_10  and  C_22
REMARK    8  A    between atoms: C_11  and  C_13
REMARK    9  A    between atoms: C_25  and  S_26
REMARK   10  A    between atoms: S_26  and  C_27
REMARK                            x       y       z     vdW  Elec       q    Type
REMARK                         _______ _______ _______ _____ _____    ______ ____
ROOT
ATOM      1  C   UNL     1       1.347   1.988  -0.152  0.00  0.00    +0.088 C 
ATOM      2  C   UNL     1       2.158   1.526   0.808  0.00  0.00    +0.128 C 
ATOM      3  O   UNL     1       2.030   0.294   1.323  0.00  0.00    -0.444 OA
ATOM      4  C   UNL     1       1.342  -0.638   0.639  0.00  0.00    +0.198 C 
ATOM      5  C   UNL     1       0.470  -0.305  -0.342  0.00  0.00    +0.098 C 
ATOM      6  C   UNL     1       0.238   1.136  -0.709  0.00  0.00    +0.105 C 
ENDROOT
BRANCH   6   7
ATOM      7  C   UNL     1      -1.080   1.593  -0.138  0.00  0.00    -0.031 A 
ATOM      8  C   UNL     1      -1.291   1.551   1.228  0.00  0.00    +0.008 A 
ATOM      9  C   UNL     1      -2.496   1.974   1.757  0.00  0.00    +0.050 A 
ATOM     10  C   UNL     1      -3.500   2.431   0.918  0.00  0.00    +0.166 A 
ATOM     11  C   UNL     1      -3.288   2.468  -0.458  0.00  0.00    +0.167 A 
ATOM     12  C   UNL     1      -2.076   2.048  -0.981  0.00  0.00    +0.054 A 
ATOM     13  O   UNL     1      -4.415   2.951  -1.059  0.00  0.00    -0.453 OA
ATOM     14  C   UNL     1      -5.460   2.825  -0.076  0.00  0.00    +0.466 C 
ATOM     15  O   UNL     1      -4.758   2.891   1.179  0.00  0.00    -0.453 OA
ENDBRANCH   6   7
BRANCH   4  16
ATOM     16  N   UNL     1       1.529  -1.963   0.945  0.00  0.00    -0.328 N 
ATOM     17  H   UNL     1       1.039  -2.646   0.461  0.00  0.00    +0.145 HD
ATOM     18  H   UNL     1       2.150  -2.216   1.646  0.00  0.00    +0.145 HD
ENDBRANCH   4  16
BRANCH   1  19
ATOM     19  C   UNL     1       1.535   3.300  -0.652  0.00  0.00    +0.339 C 
ATOM     20  O   UNL     1       2.659   3.746  -0.780  0.00  0.00    -0.245 OA
BRANCH  19  21
ATOM     21  O   UNL     1       0.468   4.054  -0.985  0.00  0.00    -0.462 OA
BRANCH  21  23
ATOM     22  C   UNL     1      -0.591   6.066  -1.804  0.00  0.00    +0.048 C 
ATOM     23  C   UNL     1       0.732   5.368  -1.482  0.00  0.00    +0.229 C 
ENDBRANCH  21  23
ENDBRANCH  19  21
ENDBRANCH   1  19
BRANCH   5  24
ATOM     24  C   UNL     1      -0.240  -1.335  -1.038  0.00  0.00    +0.101 C 
ATOM     25  N   UNL     1      -0.804  -2.153  -1.590  0.00  0.00    -0.191 NA
ENDBRANCH   5  24
BRANCH   2  26
ATOM     26  C   UNL     1       3.253   2.421   1.328  0.00  0.00    +0.150 C 
BRANCH  26  27
ATOM     27  S   UNL     1       4.839   1.906   0.623  0.00  0.00    -0.098 S 
BRANCH  27  28
ATOM     28  C   UNL     1       5.907   3.087   1.378  0.00  0.00    +0.098 A 
ATOM     29  C   UNL     1       7.281   3.044   1.099  0.00  0.00    +0.035 A 
ATOM     30  C   UNL     1       8.118   3.954   1.671  0.00  0.00    +0.012 A 
ATOM     31  C   UNL     1       7.565   4.914   2.545  0.00  0.00    +0.000 A 
ATOM     32  C   UNL     1       8.371   5.876   3.172  0.00  0.00    +0.010 A 
ATOM     33  C   UNL     1       7.803   6.787   4.011  0.00  0.00    +0.001 A 
ATOM     34  C   UNL     1       6.432   6.777   4.254  0.00  0.00    +0.002 A 
ATOM     35  C   UNL     1       5.621   5.857   3.662  0.00  0.00    +0.028 A 
ATOM     36  C   UNL     1       6.171   4.901   2.791  0.00  0.00    +0.072 A 
ATOM     37  N   UNL     1       5.397   3.986   2.196  0.00  0.00    -0.240 NA
ENDBRANCH  27  28
ENDBRANCH  26  27
ENDBRANCH   2  26
TORSDOF 9
