REMARK  Name = ZINC09712661
REMARK  6 active torsions:
REMARK  status: ('A' for Active; 'I' for Inactive)
REMARK    1  A    between atoms: C_1  and  C_2
REMARK    2  A    between atoms: C_2  and  C_4
REMARK    3  A    between atoms: C_9  and  N_10
REMARK    4  A    between atoms: C_11  and  C_13
REMARK    5  A    between atoms: C_13  and  N_50
REMARK    6  A    between atoms: C_21  and  C_23
REMARK                            x       y       z     vdW  Elec       q    Type
REMARK                         _______ _______ _______ _____ _____    ______ ____
ROOT
ATOM      1  N   UNL     1       3.486  -1.744  -4.451  0.00  0.00    -0.286 N 
ATOM      2  C   UNL     1       3.535  -2.076  -3.146  0.00  0.00    +0.201 C 
ATOM      3  O   UNL     1       4.580  -2.443  -2.652  0.00  0.00    -0.278 OA
ATOM      4  H   UNL     1       2.636  -1.528  -4.865  0.00  0.00    +0.155 HD
ENDROOT
BRANCH   1  10
ATOM      5  C   UNL     1       4.604  -1.888  -6.599  0.00  0.00    +0.042 A 
ATOM      6  C   UNL     1       5.788  -1.851  -7.349  0.00  0.00    +0.062 A 
ATOM      7  C   UNL     1       6.995  -1.641  -6.719  0.00  0.00    +0.167 A 
ATOM      8  C   UNL     1       7.044  -1.464  -5.333  0.00  0.00    +0.168 A 
ATOM      9  C   UNL     1       5.877  -1.494  -4.585  0.00  0.00    +0.073 A 
ATOM     10  C   UNL     1       4.657  -1.709  -5.205  0.00  0.00    +0.048 A 
ATOM     11  O   UNL     1       8.343  -1.276  -4.965  0.00  0.00    -0.453 OA
ATOM     12  C   UNL     1       9.131  -1.747  -6.073  0.00  0.00    +0.466 C 
ATOM     13  O   UNL     1       8.268  -1.563  -7.211  0.00  0.00    -0.453 OA
BRANCH   5  15
ATOM     14  C   UNL     1       3.276  -2.413  -8.740  0.00  0.00    +0.091 C 
ATOM     15  C   UNL     1       3.318  -2.111  -7.264  0.00  0.00    +0.162 C 
ATOM     16  O   UNL     1       2.287  -2.053  -6.627  0.00  0.00    -0.292 OA
ENDBRANCH   5  15
ENDBRANCH   1  10
BRANCH   2  17
ATOM     17  C   UNL     1       2.290  -1.992  -2.300  0.00  0.00    +0.020 C 
BRANCH  17  26
ATOM     18  C   UNL     1       2.999  -3.819  -0.877  0.00  0.00    -0.072 C 
ATOM     19  C   UNL     1       3.700  -4.093   0.465  0.00  0.00    +0.024 C 
ATOM     20  C   UNL     1       2.870  -3.479   1.545  0.00  0.00    -0.010 A 
ATOM     21  C   UNL     1       1.857  -2.582   1.383  0.00  0.00    -0.046 A 
ATOM     22  C   UNL     1       1.220  -2.147   2.542  0.00  0.00    +0.010 A 
ATOM     23  C   UNL     1       1.617  -2.615   3.749  0.00  0.00    +0.045 A 
ATOM     24  S   UNL     1       2.945  -3.722   3.297  0.00  0.00    -0.101 S 
ATOM     25  C   UNL     1       1.484  -2.113  -0.020  0.00  0.00    +0.002 C 
ATOM     26  N   UNL     1       2.632  -2.383  -0.918  0.00  0.00    +0.393 N 
ATOM     27  H   UNL     1       3.436  -1.827  -0.604  0.00  0.00    -0.080 HD
BRANCH  25  28
ATOM     28  C   UNL     1       1.220  -0.629  -0.004  0.00  0.00    -0.019 A 
ATOM     29  C   UNL     1       0.034   0.026   0.016  0.00  0.00    +0.010 A 
ATOM     30  C   UNL     1       0.033   1.408   0.028  0.00  0.00    +0.008 A 
ATOM     31  C   UNL     1       1.217   2.067   0.019  0.00  0.00    +0.045 A 
ATOM     32  S   UNL     1       2.389   0.720  -0.006  0.00  0.00    -0.103 S 
ENDBRANCH  25  28
ENDBRANCH  17  26
ENDBRANCH   2  17
TORSDOF 5
