REMARK  Name = ZINC23229268
REMARK  5 active torsions:
REMARK  status: ('A' for Active; 'I' for Inactive)
REMARK    1  A    between atoms: C_4  and  N_25
REMARK    2  A    between atoms: C_5  and  C_7
REMARK    3  A    between atoms: N_9  and  C_10
REMARK    4  A    between atoms: N_9  and  C_20
REMARK    5  A    between atoms: C_10  and  C_11
REMARK                            x       y       z     vdW  Elec       q    Type
REMARK                         _______ _______ _______ _____ _____    ______ ____
ROOT
ATOM      1  C   UNL     1       1.177   3.593   0.024  0.00  0.00    +0.249 C 
ATOM      2  O   UNL     1       1.166   2.378   0.061  0.00  0.00    -0.270 OA
ATOM      3  N   UNL     1       0.016   4.276  -0.016  0.00  0.00    -0.290 N 
ENDROOT
BRANCH   1   8
ATOM      4  C   UNL     1       3.999   5.834   1.081  0.00  0.00    +0.001 A 
ATOM      5  C   UNL     1       4.873   5.686   0.019  0.00  0.00    +0.002 A 
ATOM      6  C   UNL     1       4.549   4.859  -1.041  0.00  0.00    +0.033 A 
ATOM      7  C   UNL     1       3.350   4.175  -1.046  0.00  0.00    +0.138 A 
ATOM      8  C   UNL     1       2.463   4.321   0.022  0.00  0.00    +0.067 A 
ATOM      9  C   UNL     1       2.797   5.157   1.089  0.00  0.00    +0.015 A 
BRANCH   7  10
ATOM     10  N   UNL     1       3.005   3.290  -2.180  0.00  0.00    +0.057 N 
ATOM     11  O   UNL     1       3.738   3.231  -3.152  0.00  0.00    -0.126 OA
ATOM     12  O   UNL     1       1.989   2.620  -2.143  0.00  0.00    -0.126 OA
ENDBRANCH   7  10
ENDBRANCH   1   8
BRANCH   3  13
ATOM     13  C   UNL     1      -1.258   3.564   0.116  0.00  0.00    +0.077 C 
ATOM     14  C   UNL     1      -1.245   2.690   1.386  0.00  0.00    +0.022 C 
ATOM     15  C   UNL     1      -2.017   1.411   0.975  0.00  0.00    +0.002 C 
ATOM     16  C   UNL     1      -1.553   1.186  -0.485  0.00  0.00    +0.002 C 
ATOM     17  C   UNL     1      -1.453   2.608  -1.074  0.00  0.00    +0.022 C 
ENDBRANCH   3  13
BRANCH   3  18
ATOM     18  C   UNL     1       0.027   5.731  -0.192  0.00  0.00    +0.143 C 
BRANCH  18  19
ATOM     19  C   UNL     1      -0.020   6.060  -1.662  0.00  0.00    -0.026 A 
ATOM     20  C   UNL     1      -1.239   6.225  -2.293  0.00  0.00    +0.009 A 
ATOM     21  C   UNL     1      -1.288   6.526  -3.641  0.00  0.00    +0.050 A 
ATOM     22  C   UNL     1      -0.113   6.663  -4.364  0.00  0.00    +0.166 A 
ATOM     23  C   UNL     1       1.115   6.497  -3.728  0.00  0.00    +0.167 A 
ATOM     24  C   UNL     1       1.156   6.201  -2.375  0.00  0.00    +0.054 A 
ATOM     25  O   UNL     1       2.109   6.682  -4.644  0.00  0.00    -0.453 OA
ATOM     26  C   UNL     1       1.490   7.364  -5.751  0.00  0.00    +0.466 C 
ATOM     27  O   UNL     1       0.112   6.952  -5.678  0.00  0.00    -0.453 OA
ENDBRANCH  18  19
ENDBRANCH   3  18
TORSDOF 5
