REMARK  Name = ZINC35857663
REMARK  12 active torsions:
REMARK  status: ('A' for Active; 'I' for Inactive)
REMARK    1  A    between atoms: C_1  and  C_2
REMARK    2  A    between atoms: C_2  and  C_4
REMARK    3  A    between atoms: C_2  and  O_14
REMARK    4  A    between atoms: N_6  and  C_7
REMARK    5  A    between atoms: C_7  and  C_8
REMARK    6  A    between atoms: C_8  and  N_9
REMARK    7  A    between atoms: O_14  and  C_15
REMARK    8  A    between atoms: C_21  and  C_32
REMARK    9  A    between atoms: C_26  and  C_28
REMARK   10  A    between atoms: C_28  and  C_29
REMARK   11  A    between atoms: C_29  and  C_30
REMARK   12  A    between atoms: C_29  and  C_31
REMARK                            x       y       z     vdW  Elec       q    Type
REMARK                         _______ _______ _______ _____ _____    ______ ____
ROOT
ATOM      1  C   UNL     1      -0.985  -1.420  -2.248  0.00  0.00    +0.122 A 
ATOM      2  C   UNL     1      -2.347  -1.309  -2.490  0.00  0.00    +0.046 A 
ATOM      3  C   UNL     1      -2.833  -1.496  -3.765  0.00  0.00    +0.007 A 
ATOM      4  C   UNL     1      -1.972  -1.794  -4.816  0.00  0.00    -0.040 A 
ATOM      5  C   UNL     1      -0.620  -1.896  -4.579  0.00  0.00    -0.016 A 
ATOM      6  C   UNL     1      -0.126  -1.709  -3.296  0.00  0.00    +0.051 A 
ATOM      7  C   UNL     1       0.372  -2.187  -5.677  0.00  0.00    +0.137 C 
ATOM      8  N   UNL     1      -0.341  -2.606  -6.888  0.00  0.00    -0.290 N 
ATOM      9  C   UNL     1      -1.531  -1.829  -7.275  0.00  0.00    +0.113 C 
ATOM     10  C   UNL     1      -2.580  -2.001  -6.178  0.00  0.00    +0.054 C 
ATOM     11  C   UNL     1       0.076  -3.659  -7.619  0.00  0.00    +0.217 C 
ATOM     12  O   UNL     1       1.101  -4.236  -7.321  0.00  0.00    -0.276 OA
ENDROOT
BRANCH   7  13
ATOM     13  C   UNL     1       1.299  -3.290  -5.236  0.00  0.00    -0.022 A 
ATOM     14  C   UNL     1       0.816  -4.575  -5.075  0.00  0.00    +0.008 A 
ATOM     15  C   UNL     1       1.666  -5.588  -4.671  0.00  0.00    +0.038 A 
ATOM     16  C   UNL     1       3.001  -5.315  -4.427  0.00  0.00    +0.123 A 
ATOM     17  C   UNL     1       3.484  -4.027  -4.588  0.00  0.00    +0.038 A 
ATOM     18  C   UNL     1       2.634  -3.017  -4.997  0.00  0.00    +0.008 A 
ATOM     19  F   UNL     1       3.832  -6.303  -4.031  0.00  0.00    -0.205 F 
ENDBRANCH   7  13
BRANCH   1  20
ATOM     20  O   UNL     1      -0.496  -1.242  -0.993  0.00  0.00    -0.480 OA
BRANCH  20  22
ATOM     21  C   UNL     1      -1.860   0.406   0.131  0.00  0.00    +0.062 C 
ATOM     22  C   UNL     1      -1.450  -1.066   0.056  0.00  0.00    +0.255 C 
BRANCH  22  23
ATOM     23  C   UNL     1      -0.838  -1.485   1.367  0.00  0.00    +0.253 C 
ATOM     24  O   UNL     1       0.330  -1.808   1.416  0.00  0.00    -0.272 OA
ATOM     25  N   UNL     1      -1.589  -1.501   2.487  0.00  0.00    -0.314 N 
ATOM     26  H   UNL     1      -2.523  -1.243   2.448  0.00  0.00    +0.149 HD
BRANCH  25  27
ATOM     27  C   UNL     1      -0.994  -1.909   3.762  0.00  0.00    +0.086 C 
BRANCH  27  28
ATOM     28  C   UNL     1      -2.053  -1.839   4.864  0.00  0.00    -0.060 C 
BRANCH  28  29
ATOM     29  N   UNL     1      -1.456  -2.247   6.143  0.00  0.00    +0.381 N 
ATOM     30  C   UNL     1      -0.471  -1.232   6.596  0.00  0.00    -0.079 C 
ATOM     31  C   UNL     1      -0.376  -1.487   8.121  0.00  0.00    -0.020 C 
ATOM     32  C   UNL     1      -1.832  -1.835   8.506  0.00  0.00    -0.020 C 
ATOM     33  C   UNL     1      -2.494  -2.301   7.196  0.00  0.00    -0.079 C 
ATOM     34  H   UNL     1      -1.010  -3.147   6.048  0.00  0.00    -0.082 HD
ENDBRANCH  28  29
ENDBRANCH  27  28
ENDBRANCH  25  27
ENDBRANCH  22  23
ENDBRANCH  20  22
ENDBRANCH   1  20
BRANCH  11  35
ATOM     35  C   UNL     1      -0.731  -4.120  -8.806  0.00  0.00    +0.099 C 
BRANCH  35  36
ATOM     36  C   UNL     1      -0.042  -5.322  -9.454  0.00  0.00    -0.008 C 
ATOM     37  C   UNL     1      -0.922  -5.867 -10.581  0.00  0.00    +0.008 C 
ATOM     38  C   UNL     1       1.309  -4.889 -10.027  0.00  0.00    +0.008 C 
ENDBRANCH  35  36
ENDBRANCH  11  35
TORSDOF 9
