REMARK  Name = ZINC39631301
REMARK  11 active torsions:
REMARK  status: ('A' for Active; 'I' for Inactive)
REMARK    1  A    between atoms: C_1  and  C_2
REMARK    2  A    between atoms: C_2  and  C_4
REMARK    3  A    between atoms: C_2  and  N_11
REMARK    4  A    between atoms: C_4  and  C_5
REMARK    5  A    between atoms: C_5  and  C_6
REMARK    6  A    between atoms: C_6  and  C_7
REMARK    7  A    between atoms: C_7  and  C_8
REMARK    8  A    between atoms: C_7  and  C_9
REMARK    9  A    between atoms: C_7  and  O_10
REMARK   10  A    between atoms: C_12  and  C_14
REMARK   11  A    between atoms: C_25  and  C_27
REMARK                            x       y       z     vdW  Elec       q    Type
REMARK                         _______ _______ _______ _____ _____    ______ ____
ROOT
ATOM      1  C   UNL     1       0.670  -0.769  -3.523  0.00  0.00    +0.100 C 
ATOM      2  C   UNL     1       1.725   0.203  -4.097  0.00  0.00    +0.121 C 
ATOM      3  N   UNL     1       1.649   0.015  -5.565  0.00  0.00    -0.296 N 
ATOM      4  C   UNL     1       0.200  -0.138  -5.842  0.00  0.00    +0.115 C 
ATOM      5  C   UNL     1      -0.330  -0.989  -4.671  0.00  0.00    -0.004 C 
ATOM      6  C   UNL     1      -1.720  -0.513  -4.260  0.00  0.00    -0.010 C 
ATOM      7  C   UNL     1      -2.708  -0.796  -5.395  0.00  0.00    -0.082 C 
ATOM      8  N   UNL     1      -2.726  -2.236  -5.683  0.00  0.00    +0.379 N 
ATOM      9  C   UNL     1      -1.409  -2.667  -6.167  0.00  0.00    -0.082 C 
ATOM     10  C   UNL     1      -0.366  -2.463  -5.064  0.00  0.00    -0.010 C 
ATOM     11  C   UNL     1       2.666  -0.012  -6.449  0.00  0.00    +0.247 C 
ATOM     12  O   UNL     1       2.434  -0.087  -7.640  0.00  0.00    -0.270 OA
ATOM     13  H   UNL     1      -2.956  -2.743  -4.841  0.00  0.00    -0.086 HD
ATOM     14  H   UNL     1      -3.422  -2.428  -6.388  0.00  0.00    -0.086 HD
ENDROOT
BRANCH  11  15
ATOM     15  C   UNL     1       4.062   0.050  -5.970  0.00  0.00    +0.045 A 
ATOM     16  C   UNL     1       4.447   1.034  -5.053  0.00  0.00    +0.014 A 
ATOM     17  C   UNL     1       5.749   1.094  -4.604  0.00  0.00    +0.001 A 
ATOM     18  C   UNL     1       6.690   0.181  -5.055  0.00  0.00    +0.012 A 
ATOM     19  C   UNL     1       6.328  -0.804  -5.966  0.00  0.00    +0.031 A 
ATOM     20  C   UNL     1       5.004  -0.880  -6.428  0.00  0.00    +0.006 A 
ATOM     21  C   UNL     1       4.895  -2.017  -7.376  0.00  0.00    -0.006 A 
ATOM     22  C   UNL     1       3.824  -2.515  -8.106  0.00  0.00    +0.009 A 
ATOM     23  C   UNL     1       4.000  -3.613  -8.934  0.00  0.00    +0.001 A 
ATOM     24  C   UNL     1       5.237  -4.218  -9.040  0.00  0.00    +0.001 A 
ATOM     25  C   UNL     1       6.316  -3.733  -8.318  0.00  0.00    +0.012 A 
ATOM     26  C   UNL     1       6.153  -2.634  -7.485  0.00  0.00    +0.030 A 
ATOM     27  C   UNL     1       7.098  -1.893  -6.615  0.00  0.00    +0.194 C 
ATOM     28  O   UNL     1       8.275  -2.139  -6.453  0.00  0.00    -0.287 OA
ENDBRANCH  11  15
BRANCH   1  30
ATOM     29  N   UNL     1      -0.602  -0.938  -1.408  0.00  0.00    -0.312 N 
ATOM     30  C   UNL     1      -0.022  -0.151  -2.336  0.00  0.00    +0.218 C 
ATOM     31  O   UNL     1      -0.058   1.056  -2.216  0.00  0.00    -0.275 OA
ATOM     32  H   UNL     1      -0.573  -1.903  -1.505  0.00  0.00    +0.149 HD
BRANCH  29  34
ATOM     33  C   UNL     1      -0.247  -0.050   0.843  0.00  0.00    +0.028 C 
ATOM     34  C   UNL     1      -1.274  -0.337  -0.254  0.00  0.00    +0.070 C 
BRANCH  34  35
ATOM     35  C   UNL     1      -2.334  -1.304   0.279  0.00  0.00    +0.022 C 
BRANCH  35  36
ATOM     36  C   UNL     1      -3.427  -1.493  -0.774  0.00  0.00    +0.005 C 
BRANCH  36  37
ATOM     37  C   UNL     1      -4.487  -2.460  -0.240  0.00  0.00    +0.034 C 
BRANCH  37  38
ATOM     38  C   UNL     1      -5.580  -2.649  -1.293  0.00  0.00    +0.061 C 
ATOM     39  C   UNL     1      -4.965  -3.222  -2.571  0.00  0.00    +0.041 C 
ATOM     40  C   UNL     1      -6.640  -3.616  -0.760  0.00  0.00    +0.041 C 
BRANCH  38  41
ATOM     41  O   UNL     1      -6.188  -1.389  -1.581  0.00  0.00    -0.389 OA
ATOM     42  H   UNL     1      -6.600  -0.966  -0.815  0.00  0.00    +0.210 HD
ENDBRANCH  38  41
ENDBRANCH  37  38
ENDBRANCH  36  37
ENDBRANCH  35  36
ENDBRANCH  34  35
ENDBRANCH  29  34
ENDBRANCH   1  30
TORSDOF 8
