REMARK  Name = ZINC09560319
REMARK  6 active torsions:
REMARK  status: ('A' for Active; 'I' for Inactive)
REMARK    1  A    between atoms: C_1  and  C_2
REMARK    2  A    between atoms: C_2  and  C_4
REMARK    3  A    between atoms: C_2  and  N_63
REMARK    4  A    between atoms: C_18  and  O_21
REMARK    5  A    between atoms: C_24  and  C_27
REMARK    6  A    between atoms: C_27  and  C_28
REMARK                            x       y       z     vdW  Elec       q    Type
REMARK                         _______ _______ _______ _____ _____    ______ ____
ROOT
ATOM      1  C   UNL     1       0.061  -2.665  -0.035  0.00  0.00    +0.206 C 
ATOM      2  O   UNL     1      -0.048  -3.692  -0.671  0.00  0.00    -0.277 OA
ATOM      3  N   UNL     1       1.248  -2.028   0.018  0.00  0.00    -0.267 N 
ATOM      4  C   UNL     1       1.324  -0.626   0.453  0.00  0.00    +0.114 C 
ATOM      5  C   UNL     1       2.266   0.110  -0.509  0.00  0.00    +0.024 C 
ATOM      6  C   UNL     1       3.659  -0.514  -0.407  0.00  0.00    +0.039 C 
ATOM      7  C   UNL     1       3.580  -2.008  -0.552  0.00  0.00    -0.008 A 
ATOM      8  C   UNL     1       2.428  -2.692  -0.339  0.00  0.00    +0.125 A 
ATOM      9  C   UNL     1       2.422  -4.148  -0.490  0.00  0.00    +0.359 A 
ATOM     10  O   UNL     1       1.392  -4.768  -0.297  0.00  0.00    -0.243 OA
ATOM     11  O   UNL     1       3.537  -4.808  -0.839  0.00  0.00    -0.421 OA
ATOM     12  C   UNL     1       4.702  -4.162  -1.064  0.00  0.00    +0.140 A 
ATOM     13  C   UNL     1       4.777  -2.765  -0.935  0.00  0.00    +0.026 A 
ATOM     14  C   UNL     1       5.988  -2.105  -1.171  0.00  0.00    +0.057 A 
ATOM     15  C   UNL     1       7.105  -2.835  -1.529  0.00  0.00    +0.118 A 
ATOM     16  C   UNL     1       7.026  -4.218  -1.655  0.00  0.00    +0.049 A 
ATOM     17  C   UNL     1       5.837  -4.877  -1.425  0.00  0.00    +0.050 A 
ENDROOT
BRANCH   1  19
ATOM     18  C   UNL     1      -1.914  -1.180  -0.244  0.00  0.00    -0.004 C 
ATOM     19  C   UNL     1      -1.131  -2.100   0.694  0.00  0.00    +0.017 C 
BRANCH  19  25
ATOM     20  C   UNL     1      -1.254  -4.155   1.969  0.00  0.00    -0.078 C 
ATOM     21  C   UNL     1      -2.146  -5.356   2.292  0.00  0.00    -0.015 C 
ATOM     22  C   UNL     1      -3.396  -4.872   3.032  0.00  0.00    -0.010 C 
ATOM     23  C   UNL     1      -4.127  -3.843   2.166  0.00  0.00    -0.015 C 
ATOM     24  C   UNL     1      -3.177  -2.686   1.847  0.00  0.00    -0.078 C 
ATOM     25  N   UNL     1      -2.007  -3.213   1.113  0.00  0.00    +0.387 N 
ATOM     26  H   UNL     1      -2.335  -3.712   0.278  0.00  0.00    -0.081 HD
BRANCH  22  27
ATOM     27  C   UNL     1      -4.321  -6.060   3.304  0.00  0.00    +0.038 C 
BRANCH  27  28
ATOM     28  C   UNL     1      -3.647  -7.014   4.256  0.00  0.00    -0.047 A 
ATOM     29  C   UNL     1      -2.862  -8.041   3.765  0.00  0.00    +0.003 A 
ATOM     30  C   UNL     1      -2.240  -8.914   4.638  0.00  0.00    +0.000 A 
ATOM     31  C   UNL     1      -2.410  -8.765   6.002  0.00  0.00    +0.000 A 
ATOM     32  C   UNL     1      -3.199  -7.741   6.493  0.00  0.00    +0.000 A 
ATOM     33  C   UNL     1      -3.817  -6.866   5.620  0.00  0.00    +0.003 A 
ENDBRANCH  27  28
ENDBRANCH  22  27
ENDBRANCH  19  25
ENDBRANCH   1  19
BRANCH  15  34
ATOM     34  O   UNL     1       8.285  -2.199  -1.759  0.00  0.00    -0.507 OA
ATOM     35  H   UNL     1       8.411  -1.925  -2.678  0.00  0.00    +0.292 HD
ENDBRANCH  15  34
TORSDOF 5
