REMARK  Name = ZINC59863108
REMARK  6 active torsions:
REMARK  status: ('A' for Active; 'I' for Inactive)
REMARK    1  A    between atoms: C_4  and  C_7
REMARK    2  A    between atoms: C_7  and  C_8
REMARK    3  A    between atoms: C_8  and  N_9
REMARK    4  A    between atoms: C_20  and  N_30
REMARK    5  A    between atoms: C_21  and  N_22
REMARK    6  A    between atoms: N_22  and  C_23
REMARK                            x       y       z     vdW  Elec       q    Type
REMARK                         _______ _______ _______ _____ _____    ______ ____
ROOT
ATOM      1  N   UNL     1       5.725  -1.176   2.356  0.00  0.00    -0.234 N 
ATOM      2  C   UNL     1       6.022  -1.956   3.413  0.00  0.00    +0.254 C 
ATOM      3  O   UNL     1       5.225  -2.068   4.325  0.00  0.00    -0.270 OA
ATOM      4  C   UNL     1       7.304  -2.672   3.470  0.00  0.00    +0.046 A 
ATOM      5  C   UNL     1       7.649  -3.485   4.541  0.00  0.00    +0.014 A 
ATOM      6  C   UNL     1       8.871  -4.142   4.553  0.00  0.00    +0.001 A 
ATOM      7  C   UNL     1       9.767  -4.009   3.515  0.00  0.00    +0.010 A 
ATOM      8  C   UNL     1       9.451  -3.196   2.417  0.00  0.00    +0.007 A 
ATOM      9  C   UNL     1       8.212  -2.525   2.397  0.00  0.00    +0.008 A 
ATOM     10  C   UNL     1       7.866  -1.697   1.302  0.00  0.00    +0.048 A 
ATOM     11  C   UNL     1       8.760  -1.554   0.246  0.00  0.00    +0.048 A 
ATOM     12  C   UNL     1       9.976  -2.214   0.264  0.00  0.00    +0.149 A 
ATOM     13  C   UNL     1      10.338  -3.028   1.328  0.00  0.00    +0.070 A 
ATOM     14  C   UNL     1       6.565  -1.019   1.316  0.00  0.00    +0.254 C 
ATOM     15  O   UNL     1       6.246  -0.307   0.383  0.00  0.00    -0.270 OA
ENDROOT
BRANCH  12  16
ATOM     16  N   UNL     1      10.909  -2.046  -0.872  0.00  0.00    +0.058 N 
ATOM     17  O   UNL     1      10.567  -1.419  -1.848  0.00  0.00    -0.126 OA
ATOM     18  O   UNL     1      12.014  -2.535  -0.824  0.00  0.00    -0.126 OA
ENDBRANCH  12  16
BRANCH  13  19
ATOM     19  N   UNL     1      11.560  -3.674   1.322  0.00  0.00    -0.311 N 
ATOM     20  H   UNL     1      12.355  -3.212   1.631  0.00  0.00    +0.152 HD
BRANCH  19  21
ATOM     21  C   UNL     1      11.651  -4.993   0.870  0.00  0.00    +0.046 A 
ATOM     22  C   UNL     1      10.538  -5.620   0.324  0.00  0.00    +0.024 A 
ATOM     23  C   UNL     1      10.631  -6.924  -0.122  0.00  0.00    +0.002 A 
ATOM     24  C   UNL     1      11.830  -7.606  -0.025  0.00  0.00    +0.001 A 
ATOM     25  C   UNL     1      12.940  -6.986   0.518  0.00  0.00    +0.017 A 
ATOM     26  C   UNL     1      12.856  -5.680   0.961  0.00  0.00    +0.039 A 
ATOM     27 BR   UNL     1      14.377  -4.830   1.696  0.00  0.00    -0.048 Br
ENDBRANCH  19  21
ENDBRANCH  13  19
BRANCH   1  28
ATOM     28  C   UNL     1       4.438  -0.477   2.334  0.00  0.00    +0.121 C 
BRANCH  28  29
ATOM     29  C   UNL     1       3.386  -1.367   1.668  0.00  0.00    +0.054 C 
BRANCH  29  33
ATOM     30  C   UNL     1      -0.369   0.668   1.604  0.00  0.00    +0.000 A 
ATOM     31  C   UNL     1       0.513   0.813   0.550  0.00  0.00    +0.000 A 
ATOM     32  C   UNL     1       1.728   0.154   0.571  0.00  0.00    +0.004 A 
ATOM     33  C   UNL     1       2.061  -0.648   1.646  0.00  0.00    -0.046 A 
ATOM     34  C   UNL     1       1.179  -0.792   2.700  0.00  0.00    +0.004 A 
ATOM     35  C   UNL     1      -0.037  -0.135   2.679  0.00  0.00    +0.000 A 
ENDBRANCH  29  33
ENDBRANCH  28  29
ENDBRANCH   1  28
TORSDOF 6
