REMARK  Name = ZINC22506294
REMARK  9 active torsions:
REMARK  status: ('A' for Active; 'I' for Inactive)
REMARK    1  A    between atoms: C_1  and  C_2
REMARK    2  A    between atoms: C_4  and  C_30
REMARK    3  A    between atoms: C_6  and  C_26
REMARK    4  A    between atoms: C_10  and  C_11
REMARK    5  A    between atoms: N_13  and  N_14
REMARK    6  A    between atoms: C_15  and  C_17
REMARK    7  A    between atoms: C_26  and  C_27
REMARK    8  A    between atoms: C_26  and  C_28
REMARK    9  A    between atoms: C_26  and  C_29
REMARK                            x       y       z     vdW  Elec       q    Type
REMARK                         _______ _______ _______ _____ _____    ______ ____
ROOT
ATOM      1  C   UNL     1       6.828  -2.776   4.889  0.00  0.00    +0.267 C 
ATOM      2  O   UNL     1       6.059  -3.715   4.966  0.00  0.00    -0.268 OA
ATOM      3  N   UNL     1       6.370  -1.556   4.543  0.00  0.00    -0.230 N 
ATOM      4  H   UNL     1       7.066  -0.707   4.473  0.00  0.00    +0.173 HD
ENDROOT
BRANCH   1  14
ATOM      5  C   UNL     1       8.126  -5.396   5.698  0.00  0.00    +0.046 C 
ATOM      6  C   UNL     1       8.899  -4.112   5.539  0.00  0.00    -0.020 A 
ATOM      7  C   UNL     1      10.285  -4.092   5.765  0.00  0.00    +0.032 A 
ATOM      8  C   UNL     1      11.148  -5.150   6.145  0.00  0.00    +0.050 A 
ATOM      9  N   UNL     1      12.430  -4.908   6.309  0.00  0.00    -0.236 NA
ATOM     10  C   UNL     1      12.953  -3.707   6.133  0.00  0.00    +0.136 A 
ATOM     11  N   UNL     1      12.207  -2.678   5.780  0.00  0.00    -0.224 NA
ATOM     12  C   UNL     1      10.914  -2.831   5.594  0.00  0.00    +0.113 A 
ATOM     13  S   UNL     1       9.573  -1.766   5.131  0.00  0.00    -0.064 S 
ATOM     14  C   UNL     1       8.257  -2.971   5.174  0.00  0.00    +0.081 A 
ATOM     15  C   UNL     1      10.602  -6.538   6.359  0.00  0.00    +0.066 C 
BRANCH  10  16
ATOM     16  C   UNL     1      14.432  -3.509   6.342  0.00  0.00    +0.022 C 
ATOM     17  C   UNL     1      14.792  -2.045   6.081  0.00  0.00    +0.019 C 
ATOM     18  C   UNL     1      14.798  -3.875   7.782  0.00  0.00    +0.019 C 
ATOM     19  C   UNL     1      15.208  -4.405   5.375  0.00  0.00    +0.019 C 
ENDBRANCH  10  16
ENDBRANCH   1  14
BRANCH   3  20
ATOM     20  N   UNL     1       5.008  -1.371   4.272  0.00  0.00    -0.230 N 
ATOM     21  C   UNL     1       4.550  -0.151   3.925  0.00  0.00    +0.260 C 
ATOM     22  O   UNL     1       5.319   0.788   3.849  0.00  0.00    -0.269 OA
ATOM     23  H   UNL     1       4.313  -2.220   4.341  0.00  0.00    +0.173 HD
BRANCH  21  24
ATOM     24  C   UNL     1       3.115   0.045   3.640  0.00  0.00    +0.042 A 
ATOM     25  C   UNL     1       2.231  -1.033   3.727  0.00  0.00    +0.017 A 
ATOM     26  C   UNL     1       0.892  -0.848   3.460  0.00  0.00    +0.050 A 
ATOM     27  C   UNL     1       0.417   0.407   3.104  0.00  0.00    +0.166 A 
ATOM     28  C   UNL     1       1.296   1.488   3.015  0.00  0.00    +0.167 A 
ATOM     29  C   UNL     1       2.639   1.308   3.281  0.00  0.00    +0.062 A 
ATOM     30  O   UNL     1       0.587   2.596   2.651  0.00  0.00    -0.453 OA
ATOM     31  C   UNL     1      -0.791   2.275   2.917  0.00  0.00    +0.466 C 
ATOM     32  O   UNL     1      -0.839   0.841   2.796  0.00  0.00    -0.453 OA
ENDBRANCH  21  24
ENDBRANCH   3  20
TORSDOF 4
