REMARK  Name = ZINC13030509
REMARK  6 active torsions:
REMARK  status: ('A' for Active; 'I' for Inactive)
REMARK    1  A    between atoms: C_1  and  O_2
REMARK    2  A    between atoms: O_2  and  C_3
REMARK    3  A    between atoms: C_6  and  C_28
REMARK    4  A    between atoms: C_8  and  S_9
REMARK    5  A    between atoms: S_9  and  N_12
REMARK    6  A    between atoms: C_15  and  C_18
REMARK                            x       y       z     vdW  Elec       q    Type
REMARK                         _______ _______ _______ _____ _____    ______ ____
ROOT
ATOM      1  N   UNL     1       0.999  -2.647  -1.456  0.00  0.00    -0.103 NA
ATOM      2  C   UNL     1       2.144  -3.220  -1.734  0.00  0.00    +0.192 A 
ATOM      3  N   UNL     1       2.934  -3.095  -2.856  0.00  0.00    -0.336 N 
ATOM      4  C   UNL     1       4.099  -3.803  -2.914  0.00  0.00    +0.031 A 
ATOM      5  C   UNL     1       4.453  -4.595  -1.902  0.00  0.00    +0.070 A 
ATOM      6  S   UNL     1       3.103  -4.366  -0.756  0.00  0.00    -0.057 S 
ATOM      7  H   UNL     1       2.668  -2.517  -3.588  0.00  0.00    +0.168 HD
ENDROOT
BRANCH   4   8
ATOM      8  C   UNL     1       4.987  -3.690  -4.127  0.00  0.00    +0.012 C 
ATOM      9  C   UNL     1       5.428  -2.236  -4.302  0.00  0.00    +0.016 C 
ATOM     10  C   UNL     1       6.330  -2.121  -5.533  0.00  0.00    -0.010 C 
ATOM     11  C   UNL     1       7.562  -3.008  -5.347  0.00  0.00    +0.007 C 
ATOM     12  C   UNL     1       7.121  -4.463  -5.171  0.00  0.00    -0.010 C 
ATOM     13  C   UNL     1       6.219  -4.577  -3.940  0.00  0.00    +0.016 C 
ATOM     14  C   UNL     1       6.349  -4.915  -6.412  0.00  0.00    +0.007 C 
ATOM     15  C   UNL     1       5.117  -4.028  -6.599  0.00  0.00    -0.010 C 
ATOM     16  C   UNL     1       5.558  -2.573  -6.774  0.00  0.00    +0.007 C 
ATOM     17  C   UNL     1       4.215  -4.142  -5.368  0.00  0.00    +0.016 C 
ENDBRANCH   4   8
BRANCH   1  18
ATOM     18  S   UNL     1       0.243  -2.961  -0.017  0.00  0.00    +0.105 S 
ATOM     19  O   UNL     1       1.073  -2.423   1.004  0.00  0.00    -0.146 OA
ATOM     20  O   UNL     1      -0.136  -4.330  -0.047  0.00  0.00    -0.146 OA
BRANCH  18  26
ATOM     21  C   UNL     1      -1.198  -0.636   0.010  0.00  0.00    +0.147 A 
ATOM     22  C   UNL     1      -2.373   0.107   0.020  0.00  0.00    +0.048 A 
ATOM     23  C   UNL     1      -3.593  -0.530   0.028  0.00  0.00    +0.019 A 
ATOM     24  C   UNL     1      -3.650  -1.928   0.027  0.00  0.00    +0.065 A 
ATOM     25  C   UNL     1      -2.465  -2.672   0.017  0.00  0.00    +0.048 A 
ATOM     26  C   UNL     1      -1.250  -2.026   0.003  0.00  0.00    +0.155 A 
BRANCH  24  27
ATOM     27  C   UNL     1      -4.952  -2.614   0.037  0.00  0.00    +0.387 C 
ATOM     28  O   UNL     1      -5.987  -1.962   0.046  0.00  0.00    -0.241 OA
ATOM     29  O   UNL     1      -5.000  -3.837   0.036  0.00  0.00    -0.241 OA
ENDBRANCH  24  27
BRANCH  21  31
ATOM     30  C   UNL     1      -0.017   1.425   0.010  0.00  0.00    +0.277 C 
ATOM     31  O   UNL     1       0.002  -0.004   0.002  0.00  0.00    -0.493 OA
ENDBRANCH  21  31
ENDBRANCH  18  26
ENDBRANCH   1  18
TORSDOF 5
