REMARK  Name = ZINC35852024
REMARK  3 active torsions:
REMARK  status: ('A' for Active; 'I' for Inactive)
REMARK    1  A    between atoms: C_1  and  C_2
REMARK    2  A    between atoms: C_2  and  C_3
REMARK    3  A    between atoms: N_22  and  C_25
REMARK                            x       y       z     vdW  Elec       q    Type
REMARK                         _______ _______ _______ _____ _____    ______ ____
ROOT
ATOM      1  C   UNL     1      -1.369  -0.614   0.029  0.00  0.00    -0.047 A 
ATOM      2  C   UNL     1      -1.968  -0.927   1.236  0.00  0.00    +0.005 A 
ATOM      3  C   UNL     1      -3.244  -1.449   1.265  0.00  0.00    +0.024 A 
ATOM      4  C   UNL     1      -3.940  -1.665   0.078  0.00  0.00    +0.036 A 
ATOM      5  C   UNL     1      -3.328  -1.347  -1.130  0.00  0.00    -0.027 A 
ATOM      6  C   UNL     1      -2.055  -0.820  -1.154  0.00  0.00    +0.008 A 
ATOM      7  C   UNL     1      -4.324  -1.694  -2.201  0.00  0.00    +0.053 C 
ATOM      8  C   UNL     1      -3.764  -2.740  -3.171  0.00  0.00    +0.089 C 
ATOM      9  C   UNL     1      -3.293  -1.923  -4.404  0.00  0.00    +0.074 C 
ATOM     10  C   UNL     1      -3.598  -0.454  -4.057  0.00  0.00    -0.054 C 
ATOM     11  N   UNL     1      -4.675  -0.518  -3.015  0.00  0.00    +0.395 N 
ATOM     12  C   UNL     1      -5.924  -0.799  -3.762  0.00  0.00    -0.076 C 
ATOM     13  C   UNL     1      -5.800   0.005  -5.072  0.00  0.00    -0.020 C 
ATOM     14  C   UNL     1      -4.250   0.231  -5.272  0.00  0.00    -0.016 C 
ATOM     15  C   UNL     1      -4.214  -2.394  -5.507  0.00  0.00    +0.228 C 
ATOM     16  O   UNL     1      -4.192  -2.002  -6.654  0.00  0.00    -0.275 OA
ATOM     17  N   UNL     1      -5.058  -3.311  -5.020  0.00  0.00    -0.209 N 
ATOM     18  C   UNL     1      -4.892  -3.593  -3.708  0.00  0.00    +0.229 C 
ATOM     19  O   UNL     1      -5.535  -4.391  -3.061  0.00  0.00    -0.275 OA
ATOM     20  C   UNL     1      -5.522  -2.224  -1.460  0.00  0.00    +0.212 C 
ATOM     21  O   UNL     1      -6.559  -2.618  -1.950  0.00  0.00    -0.277 OA
ATOM     22  N   UNL     1      -5.220  -2.175  -0.149  0.00  0.00    -0.286 N 
ATOM     23  H   UNL     1      -5.822  -2.460   0.557  0.00  0.00    +0.155 HD
ATOM     24  H   UNL     1      -4.728   0.328  -2.467  0.00  0.00    -0.079 HD
ENDROOT
BRANCH  17  25
ATOM     25  C   UNL     1      -6.037  -3.936  -5.807  0.00  0.00    +0.062 A 
ATOM     26  C   UNL     1      -7.312  -3.395  -5.891  0.00  0.00    +0.027 A 
ATOM     27  C   UNL     1      -8.273  -4.012  -6.667  0.00  0.00    +0.022 A 
ATOM     28  C   UNL     1      -7.966  -5.169  -7.362  0.00  0.00    +0.042 A 
ATOM     29  C   UNL     1      -6.696  -5.711  -7.280  0.00  0.00    +0.042 A 
ATOM     30  C   UNL     1      -5.729  -5.095  -6.509  0.00  0.00    +0.064 A 
ATOM     31 CL   UNL     1      -4.133  -5.771  -6.413  0.00  0.00    -0.082 Cl
ATOM     32 CL   UNL     1      -9.178  -5.942  -8.336  0.00  0.00    -0.083 Cl
ENDBRANCH  17  25
BRANCH   1  34
ATOM     33  C   UNL     1      -0.046   1.483   0.078  0.00  0.00    +0.009 C 
ATOM     34  C   UNL     1       0.026  -0.044   0.004  0.00  0.00    +0.032 C 
ENDBRANCH   1  34
TORSDOF 2
