REMARK  Name = ZINC17987580
REMARK  4 active torsions:
REMARK  status: ('A' for Active; 'I' for Inactive)
REMARK    1  A    between atoms: C_3  and  N_17
REMARK    2  A    between atoms: C_5  and  O_7
REMARK    3  A    between atoms: O_7  and  C_8
REMARK    4  A    between atoms: C_8  and  C_10
REMARK                            x       y       z     vdW  Elec       q    Type
REMARK                         _______ _______ _______ _____ _____    ______ ____
ROOT
ATOM      1  C   UNL     1      -0.042   1.054  -0.102  0.00  0.00    +0.005 A 
ATOM      2  C   UNL     1       1.153   1.743  -0.021  0.00  0.00    +0.024 A 
ATOM      3  C   UNL     1       1.151   3.127   0.083  0.00  0.00    +0.047 A 
ATOM      4  C   UNL     1      -0.052   3.818   0.105  0.00  0.00    +0.070 A 
ATOM      5  C   UNL     1      -1.248   3.124   0.024  0.00  0.00    +0.134 A 
ATOM      6  C   UNL     1      -1.241   1.740  -0.085  0.00  0.00    +0.046 A 
ENDROOT
BRANCH   3   7
ATOM      7  N   UNL     1       2.364   3.827   0.164  0.00  0.00    -0.210 N 
ATOM      8  C   UNL     1       2.439   5.179   0.262  0.00  0.00    +0.230 C 
ATOM      9  O   UNL     1       1.528   5.943   0.501  0.00  0.00    -0.274 OA
ATOM     10  C   UNL     1       3.871   5.540   0.018  0.00  0.00    +0.092 C 
ATOM     11  C   UNL     1       4.464   6.699   0.792  0.00  0.00    +0.040 C 
ATOM     12  C   UNL     1       5.967   6.619   0.621  0.00  0.00    -0.030 C 
ATOM     13  C   UNL     1       6.605   5.557   0.233  0.00  0.00    -0.030 C 
ATOM     14  C   UNL     1       5.946   4.231  -0.083  0.00  0.00    +0.040 C 
ATOM     15  C   UNL     1       4.575   4.257   0.560  0.00  0.00    +0.092 C 
ATOM     16  C   UNL     1       3.578   3.217   0.148  0.00  0.00    +0.230 C 
ATOM     17  O   UNL     1       3.808   2.063  -0.142  0.00  0.00    -0.274 OA
ENDBRANCH   3   7
BRANCH   5  18
ATOM     18  O   UNL     1      -2.429   3.798   0.046  0.00  0.00    -0.422 OA
BRANCH  18  19
ATOM     19  C   UNL     1      -3.199   3.646   1.141  0.00  0.00    +0.344 C 
ATOM     20  O   UNL     1      -2.784   3.017   2.093  0.00  0.00    -0.245 OA
BRANCH  19  21
ATOM     21  C   UNL     1      -4.549   4.243   1.182  0.00  0.00    +0.059 A 
ATOM     22  C   UNL     1      -5.027   4.971   0.090  0.00  0.00    +0.016 A 
ATOM     23  C   UNL     1      -6.291   5.522   0.133  0.00  0.00    +0.016 A 
ATOM     24  C   UNL     1      -7.080   5.364   1.260  0.00  0.00    +0.018 A 
ATOM     25  C   UNL     1      -6.610   4.647   2.348  0.00  0.00    +0.016 A 
ATOM     26  C   UNL     1      -5.351   4.087   2.315  0.00  0.00    +0.016 A 
ATOM     27 BR   UNL     1      -8.809   6.130   1.313  0.00  0.00    -0.050 Br
ENDBRANCH  19  21
ENDBRANCH  18  19
ENDBRANCH   5  18
TORSDOF 4
