REMARK  Name = ZINC56884163
REMARK  4 active torsions:
REMARK  status: ('A' for Active; 'I' for Inactive)
REMARK    1  A    between atoms: C_3  and  N_8
REMARK    2  A    between atoms: C_9  and  C_11
REMARK    3  A    between atoms: N_20  and  C_21
REMARK    4  A    between atoms: C_21  and  C_22
REMARK                            x       y       z     vdW  Elec       q    Type
REMARK                         _______ _______ _______ _____ _____    ______ ____
ROOT
ATOM      1  C   UNL     1       4.948   4.058  -0.235  0.00  0.00    +0.093 C 
ATOM      2  C   UNL     1       4.705   5.566  -0.331  0.00  0.00    +0.016 C 
ATOM      3  C   UNL     1       6.043   6.290  -0.493  0.00  0.00    +0.020 C 
ATOM      4  C   UNL     1       6.919   6.018   0.734  0.00  0.00    +0.109 C 
ATOM      5  N   UNL     1       7.038   4.565   0.917  0.00  0.00    -0.285 N 
ATOM      6  C   UNL     1       5.811   3.760   0.995  0.00  0.00    +0.122 C 
ATOM      7  C   UNL     1       8.249   3.982   1.012  0.00  0.00    +0.302 C 
ATOM      8  O   UNL     1       8.338   2.771   1.068  0.00  0.00    -0.253 OA
ATOM      9  N   UNL     1       9.362   4.741   1.046  0.00  0.00    -0.295 N 
ATOM     10  H   UNL     1       9.297   5.702   0.928  0.00  0.00    +0.151 HD
ENDROOT
BRANCH   1  12
ATOM     11  N   UNL     1       3.595   2.000  -0.007  0.00  0.00    -0.270 N 
ATOM     12  C   UNL     1       3.627   3.343  -0.107  0.00  0.00    +0.223 C 
ATOM     13  O   UNL     1       2.593   3.977  -0.095  0.00  0.00    -0.275 OA
ATOM     14  H   UNL     1       4.423   1.498   0.057  0.00  0.00    +0.156 HD
BRANCH  11  17
ATOM     15  C   UNL     1       1.127  -0.712   0.016  0.00  0.00    +0.025 A 
ATOM     16  C   UNL     1       2.347  -0.059   0.004  0.00  0.00    +0.045 A 
ATOM     17  C   UNL     1       2.372   1.330   0.006  0.00  0.00    +0.125 A 
ATOM     18  N   UNL     1       1.245   2.024   0.020  0.00  0.00    -0.239 NA
ATOM     19  C   UNL     1       0.067   1.431   0.032  0.00  0.00    +0.132 A 
ATOM     20  C   UNL     1      -0.033   0.053   0.031  0.00  0.00    +0.059 A 
ATOM     21 CL   UNL     1      -1.590  -0.715   0.047  0.00  0.00    -0.082 Cl
ENDBRANCH  11  17
ENDBRANCH   1  12
BRANCH   9  22
ATOM     22  C   UNL     1      10.669   4.115   1.259  0.00  0.00    +0.144 C 
BRANCH  22  23
ATOM     23  C   UNL     1      11.741   5.176   1.253  0.00  0.00    +0.007 A 
ATOM     24  C   UNL     1      12.457   5.644   0.127  0.00  0.00    +0.046 A 
ATOM     25  C   UNL     1      13.309   6.585   0.572  0.00  0.00    +0.195 A 
ATOM     26  O   UNL     1      13.148   6.711   1.899  0.00  0.00    -0.471 OA
ATOM     27  C   UNL     1      12.195   5.862   2.317  0.00  0.00    +0.200 A 
ENDBRANCH  22  23
ENDBRANCH   9  22
TORSDOF 4
