REMARK  Name = ZINC08231772
REMARK  4 active torsions:
REMARK  status: ('A' for Active; 'I' for Inactive)
REMARK    1  A    between atoms: C_4  and  O_7
REMARK    2  A    between atoms: O_7  and  C_8
REMARK    3  A    between atoms: C_12  and  C_14
REMARK    4  A    between atoms: C_25  and  C_27
REMARK                            x       y       z     vdW  Elec       q    Type
REMARK                         _______ _______ _______ _____ _____    ______ ____
ROOT
ATOM      1  C   UNL     1       7.465  -7.766   1.996  0.00  0.00    +0.248 C 
ATOM      2  O   UNL     1       8.528  -7.230   1.752  0.00  0.00    -0.270 OA
ATOM      3  N   UNL     1       6.537  -7.893   1.027  0.00  0.00    -0.281 N 
ATOM      4  C   UNL     1       5.314  -8.675   1.240  0.00  0.00    +0.144 C 
ATOM      5  C   UNL     1       5.048  -9.541   0.035  0.00  0.00    -0.027 A 
ATOM      6  C   UNL     1       4.077 -10.527   0.147  0.00  0.00    +0.005 A 
ATOM      7  C   UNL     1       3.782 -11.345  -0.924  0.00  0.00    +0.000 A 
ATOM      8  C   UNL     1       4.459 -11.180  -2.119  0.00  0.00    +0.000 A 
ATOM      9  C   UNL     1       5.427 -10.204  -2.230  0.00  0.00    +0.004 A 
ATOM     10  C   UNL     1       5.730  -9.383  -1.151  0.00  0.00    -0.040 A 
ATOM     11  C   UNL     1       6.817  -8.358  -1.337  0.00  0.00    +0.067 C 
ATOM     12  C   UNL     1       6.706  -7.248  -0.285  0.00  0.00    +0.167 C 
ENDROOT
BRANCH   1  17
ATOM     13  C   UNL     1       7.581  -9.893   5.094  0.00  0.00    +0.129 A 
ATOM     14  C   UNL     1       6.667  -9.233   5.906  0.00  0.00    +0.046 A 
ATOM     15  C   UNL     1       6.018  -8.102   5.447  0.00  0.00    +0.004 A 
ATOM     16  C   UNL     1       6.273  -7.621   4.179  0.00  0.00    +0.013 A 
ATOM     17  C   UNL     1       7.189  -8.278   3.355  0.00  0.00    +0.040 A 
ATOM     18  C   UNL     1       7.848  -9.416   3.821  0.00  0.00    +0.059 A 
BRANCH  13  19
ATOM     19  O   UNL     1       8.216 -11.004   5.550  0.00  0.00    -0.456 OA
BRANCH  19  23
ATOM     20  C   UNL     1      12.320 -10.861   5.951  0.00  0.00    +0.000 A 
ATOM     21  C   UNL     1      11.632 -12.009   6.298  0.00  0.00    +0.004 A 
ATOM     22  C   UNL     1      10.258 -12.060   6.165  0.00  0.00    +0.046 A 
ATOM     23  C   UNL     1       9.568 -10.957   5.682  0.00  0.00    +0.128 A 
ATOM     24  C   UNL     1      10.261  -9.806   5.334  0.00  0.00    +0.046 A 
ATOM     25  C   UNL     1      11.634  -9.761   5.469  0.00  0.00    +0.004 A 
ENDBRANCH  19  23
ENDBRANCH  13  19
ENDBRANCH   1  17
BRANCH  12  26
ATOM     26  C   UNL     1       7.961  -6.414  -0.285  0.00  0.00    +0.231 C 
ATOM     27  O   UNL     1       7.891  -5.213  -0.130  0.00  0.00    -0.274 OA
ATOM     28  N   UNL     1       9.162  -7.002  -0.457  0.00  0.00    -0.328 N 
ATOM     29  H   UNL     1       9.218  -7.962  -0.582  0.00  0.00    +0.145 HD
ATOM     30  H   UNL     1       9.970  -6.465  -0.457  0.00  0.00    +0.145 HD
ENDBRANCH  12  26
TORSDOF 4
