REMARK  Name = ZINC56366429
REMARK  9 active torsions:
REMARK  status: ('A' for Active; 'I' for Inactive)
REMARK    1  A    between atoms: C_1  and  C_2
REMARK    2  A    between atoms: C_2  and  O_3
REMARK    3  A    between atoms: O_3  and  C_4
REMARK    4  A    between atoms: C_7  and  C_10
REMARK    5  A    between atoms: C_10  and  C_16
REMARK    6  A    between atoms: C_16  and  N_17
REMARK    7  A    between atoms: C_18  and  C_20
REMARK    8  A    between atoms: C_20  and  C_27
REMARK    9  A    between atoms: C_21  and  C_22
REMARK                            x       y       z     vdW  Elec       q    Type
REMARK                         _______ _______ _______ _____ _____    ______ ____
ROOT
ATOM      1  C   UNL     1      -1.989  -6.162   0.022  0.00  0.00    +0.015 C 
ATOM      2  C   UNL     1      -1.361  -6.973   1.160  0.00  0.00    +0.041 C 
ATOM      3  C   UNL     1      -1.788  -8.438   1.028  0.00  0.00    +0.160 C 
ATOM      4  O   UNL     1      -3.214  -8.521   1.047  0.00  0.00    -0.380 OA
ATOM      5  C   UNL     1      -3.854  -7.820  -0.022  0.00  0.00    +0.160 C 
ATOM      6  C   UNL     1      -3.510  -6.331   0.068  0.00  0.00    +0.041 C 
ENDROOT
BRANCH   1  10
ATOM      7  C   UNL     1      -0.994  -2.033   0.494  0.00  0.00    +0.121 A 
ATOM      8  C   UNL     1      -1.869  -2.427  -0.509  0.00  0.00    +0.046 A 
ATOM      9  C   UNL     1      -2.188  -3.762  -0.659  0.00  0.00    +0.008 A 
ATOM     10  C   UNL     1      -1.638  -4.706   0.188  0.00  0.00    -0.039 A 
ATOM     11  C   UNL     1      -0.766  -4.316   1.188  0.00  0.00    +0.008 A 
ATOM     12  C   UNL     1      -0.439  -2.982   1.339  0.00  0.00    +0.046 A 
BRANCH   7  13
ATOM     13  O   UNL     1      -0.678  -0.719   0.643  0.00  0.00    -0.492 OA
BRANCH  13  15
ATOM     14  C   UNL     1      -0.815   1.621   0.058  0.00  0.00    +0.048 C 
ATOM     15  C   UNL     1      -1.288   0.202  -0.263  0.00  0.00    +0.225 C 
ENDBRANCH  13  15
ENDBRANCH   7  13
ENDBRANCH   1  10
BRANCH   1  16
ATOM     16  C   UNL     1      -1.458  -6.666  -1.321  0.00  0.00    +0.116 C 
BRANCH  16  17
ATOM     17  N   UNL     1      -0.011  -6.448  -1.388  0.00  0.00    -0.310 N 
ATOM     18  C   UNL     1       0.671  -6.782  -2.502  0.00  0.00    +0.255 C 
ATOM     19  O   UNL     1       0.084  -7.265  -3.452  0.00  0.00    -0.269 OA
ATOM     20  H   UNL     1       0.457  -6.063  -0.630  0.00  0.00    +0.149 HD
BRANCH  18  21
ATOM     21  C   UNL     1       2.121  -6.563  -2.568  0.00  0.00    +0.117 C 
ATOM     22  C   UNL     1       2.822  -6.906  -3.713  0.00  0.00    +0.070 C 
BRANCH  22  23
ATOM     23  C   UNL     1       4.212  -6.697  -3.777  0.00  0.00    +0.129 A 
ATOM     24  C   UNL     1       5.033  -6.986  -4.854  0.00  0.00    +0.049 A 
ATOM     25  C   UNL     1       6.329  -6.616  -4.476  0.00  0.00    +0.042 A 
ATOM     26  C   UNL     1       6.256  -6.127  -3.216  0.00  0.00    +0.195 A 
ATOM     27  O   UNL     1       4.984  -6.171  -2.802  0.00  0.00    -0.463 OA
ENDBRANCH  22  23
BRANCH  21  28
ATOM     28  C   UNL     1       2.812  -5.994  -1.450  0.00  0.00    +0.104 C 
ATOM     29  N   UNL     1       3.359  -5.543  -0.563  0.00  0.00    -0.191 NA
ENDBRANCH  21  28
ENDBRANCH  18  21
ENDBRANCH  16  17
ENDBRANCH   1  16
TORSDOF 8
