REMARK  Name = ZINC22804183
REMARK  12 active torsions:
REMARK  status: ('A' for Active; 'I' for Inactive)
REMARK    1  A    between atoms: C_1  and  C_2
REMARK    2  A    between atoms: C_2  and  N_3
REMARK    3  A    between atoms: N_6  and  C_9
REMARK    4  A    between atoms: C_9  and  C_10
REMARK    5  A    between atoms: C_10  and  C_11
REMARK    6  A    between atoms: N_13  and  C_14
REMARK    7  A    between atoms: C_15  and  C_31
REMARK    8  A    between atoms: C_16  and  C_19
REMARK    9  A    between atoms: C_22  and  C_25
REMARK   10  A    between atoms: C_31  and  O_33
REMARK   11  A    between atoms: O_33  and  C_34
REMARK   12  A    between atoms: C_34  and  C_35
REMARK                            x       y       z     vdW  Elec       q    Type
REMARK                         _______ _______ _______ _____ _____    ______ ____
ROOT
ATOM      1  C   UNL     1      -2.381   1.157   0.020  0.00  0.00    +0.086 A 
ATOM      2  C   UNL     1      -3.678   1.654   0.029  0.00  0.00    +0.095 A 
ATOM      3  C   UNL     1      -4.751   0.678   0.028  0.00  0.00    +0.005 A 
ATOM      4  C   UNL     1      -4.386  -0.630   0.018  0.00  0.00    +0.056 A 
ATOM      5  S   UNL     1      -2.606  -0.559   0.004  0.00  0.00    -0.080 S 
ENDROOT
BRANCH   3   6
ATOM      6  C   UNL     1      -6.174   1.087   0.037  0.00  0.00    -0.016 A 
ATOM      7  C   UNL     1      -6.627   2.017   0.974  0.00  0.00    +0.009 A 
ATOM      8  C   UNL     1      -7.949   2.401   0.980  0.00  0.00    +0.009 A 
ATOM      9  C   UNL     1      -8.839   1.853   0.055  0.00  0.00    -0.018 A 
ATOM     10  C   UNL     1      -8.388   0.920  -0.878  0.00  0.00    +0.009 A 
ATOM     11  C   UNL     1      -7.064   0.539  -0.887  0.00  0.00    +0.009 A 
BRANCH   9  12
ATOM     12  C   UNL     1     -10.264   2.263   0.065  0.00  0.00    -0.018 A 
ATOM     13  C   UNL     1     -11.154   1.721  -0.861  0.00  0.00    +0.008 A 
ATOM     14  C   UNL     1     -12.480   2.102  -0.845  0.00  0.00    +0.001 A 
ATOM     15  C   UNL     1     -12.925   3.028   0.082  0.00  0.00    +0.000 A 
ATOM     16  C   UNL     1     -12.045   3.573   1.000  0.00  0.00    +0.001 A 
ATOM     17  C   UNL     1     -10.717   3.195   0.996  0.00  0.00    +0.008 A 
ENDBRANCH   9  12
ENDBRANCH   3   6
BRANCH   1  20
ATOM     18  C   UNL     1      -0.014   1.209   0.009  0.00  0.00    +0.219 C 
ATOM     19  O   UNL     1       0.002  -0.004   0.002  0.00  0.00    -0.275 OA
ATOM     20  N   UNL     1      -1.191   1.867   0.018  0.00  0.00    -0.279 N 
ATOM     21  H   UNL     1      -1.206   2.966   0.024  0.00  0.00    +0.155 HD
BRANCH  18  22
ATOM     22  C   UNL     1       1.280   1.980   0.001  0.00  0.00    +0.111 C 
BRANCH  22  23
ATOM     23  C   UNL     1       2.457   1.002  -0.016  0.00  0.00    +0.093 C 
BRANCH  23  27
ATOM     24  N   UNL     1       6.306   2.442  -0.991  0.00  0.00    +0.381 N 
ATOM     25  C   UNL     1       6.149   1.690   0.262  0.00  0.00    -0.063 C 
ATOM     26  C   UNL     1       4.865   0.861   0.199  0.00  0.00    +0.066 C 
ATOM     27  N   UNL     1       3.719   1.753  -0.024  0.00  0.00    -0.305 NA
ATOM     28  C   UNL     1       3.876   2.505  -1.277  0.00  0.00    +0.066 C 
ATOM     29  C   UNL     1       5.160   3.335  -1.213  0.00  0.00    -0.063 C 
ATOM     30  H   UNL     1       6.340   1.719  -1.819  0.00  0.00    -0.082 HD
BRANCH  24  32
ATOM     31  C   UNL     1       7.817   3.758  -2.399  0.00  0.00    -0.017 C 
ATOM     32  C   UNL     1       7.568   3.194  -0.999  0.00  0.00    -0.082 C 
ENDBRANCH  24  32
ENDBRANCH  23  27
ENDBRANCH  22  23
ENDBRANCH  18  22
ENDBRANCH   1  20
BRANCH   2  33
ATOM     33  C   UNL     1      -3.948   3.092   0.038  0.00  0.00    +0.342 C 
ATOM     34  O   UNL     1      -4.066   3.696  -1.011  0.00  0.00    -0.245 OA
BRANCH  33  35
ATOM     35  O   UNL     1      -4.067   3.748   1.211  0.00  0.00    -0.461 OA
BRANCH  35  36
ATOM     36  C   UNL     1      -4.336   5.173   1.145  0.00  0.00    +0.229 C 
ATOM     37  C   UNL     1      -4.438   5.739   2.563  0.00  0.00    +0.048 C 
ENDBRANCH  35  36
ENDBRANCH  33  35
ENDBRANCH   2  33
TORSDOF 10
