REMARK  Name = ZINC16580395
REMARK  8 active torsions:
REMARK  status: ('A' for Active; 'I' for Inactive)
REMARK    1  A    between atoms: C_1  and  C_2
REMARK    2  A    between atoms: C_2  and  C_4
REMARK    3  A    between atoms: C_2  and  N_22
REMARK    4  A    between atoms: C_7  and  C_10
REMARK    5  A    between atoms: C_10  and  C_12
REMARK    6  A    between atoms: C_12  and  O_13
REMARK    7  A    between atoms: O_13  and  C_14
REMARK    8  A    between atoms: C_23  and  C_25
REMARK                            x       y       z     vdW  Elec       q    Type
REMARK                         _______ _______ _______ _____ _____    ______ ____
ROOT
ATOM      1  C   UNL     1      -3.716   3.279   0.038  0.00  0.00    -0.027 A 
ATOM      2  C   UNL     1      -3.702   1.895   0.030  0.00  0.00    +0.006 A 
ATOM      3  C   UNL     1      -2.502   1.215   0.021  0.00  0.00    +0.012 A 
ATOM      4  C   UNL     1      -1.299   1.927   0.019  0.00  0.00    +0.021 A 
ATOM      5  C   UNL     1      -1.322   3.325   0.032  0.00  0.00    +0.012 A 
ATOM      6  C   UNL     1      -2.529   3.991   0.036  0.00  0.00    +0.006 A 
ENDROOT
BRANCH   1   8
ATOM      7  C   UNL     1      -5.348   4.474   1.473  0.00  0.00    +0.033 C 
ATOM      8  C   UNL     1      -5.031   4.015   0.048  0.00  0.00    +0.100 C 
BRANCH   8   9
ATOM      9  N   UNL     1      -4.945   5.182  -0.834  0.00  0.00    -0.309 N 
ATOM     10  C   UNL     1      -6.063   5.694  -1.385  0.00  0.00    +0.210 C 
ATOM     11  O   UNL     1      -7.141   5.188  -1.152  0.00  0.00    -0.276 OA
ATOM     12  C   UNL     1      -5.974   6.894  -2.292  0.00  0.00    +0.109 C 
ATOM     13  H   UNL     1      -4.083   5.586  -1.020  0.00  0.00    +0.149 HD
ENDBRANCH   8   9
ENDBRANCH   1   8
BRANCH   4  14
ATOM     14  C   UNL     1      -0.014   1.208   0.009  0.00  0.00    +0.200 C 
ATOM     15  O   UNL     1       0.002  -0.004   0.002  0.00  0.00    -0.288 OA
BRANCH  14  16
ATOM     16  C   UNL     1       1.280   1.980   0.001  0.00  0.00    +0.308 C 
BRANCH  16  17
ATOM     17  O   UNL     1       2.379   1.066  -0.015  0.00  0.00    -0.483 OA
BRANCH  17  18
ATOM     18  C   UNL     1       3.628   1.602  -0.024  0.00  0.00    +0.135 A 
ATOM     19  C   UNL     1       3.792   2.980  -0.018  0.00  0.00    +0.048 A 
ATOM     20  C   UNL     1       5.062   3.523  -0.027  0.00  0.00    +0.019 A 
ATOM     21  C   UNL     1       6.170   2.695  -0.042  0.00  0.00    +0.019 A 
ATOM     22  C   UNL     1       6.010   1.321  -0.048  0.00  0.00    +0.034 A 
ATOM     23  C   UNL     1       4.740   0.773  -0.033  0.00  0.00    +0.061 A 
ATOM     24 BR   UNL     1       4.521  -1.105  -0.033  0.00  0.00    -0.046 Br
ATOM     25 BR   UNL     1       7.907   3.442  -0.054  0.00  0.00    -0.050 Br
ENDBRANCH  17  18
ENDBRANCH  16  17
ENDBRANCH  14  16
ENDBRANCH   4  14
TORSDOF 6
