REMARK  Name = ZINC08988371
REMARK  7 active torsions:
REMARK  status: ('A' for Active; 'I' for Inactive)
REMARK    1  A    between atoms: C_1  and  C_2
REMARK    2  A    between atoms: C_4  and  C_25
REMARK    3  A    between atoms: C_5  and  N_9
REMARK    4  A    between atoms: C_6  and  C_8
REMARK    5  A    between atoms: C_10  and  C_12
REMARK    6  A    between atoms: C_12  and  N_13
REMARK    7  A    between atoms: C_14  and  C_16
REMARK                            x       y       z     vdW  Elec       q    Type
REMARK                         _______ _______ _______ _____ _____    ______ ____
ROOT
ATOM      1  N   UNL     1       1.572   1.493   1.554  0.00  0.00    -0.306 N 
ATOM      2  C   UNL     1       0.429   0.793   1.700  0.00  0.00    +0.217 C 
ATOM      3  O   UNL     1       0.249  -0.215   1.051  0.00  0.00    -0.276 OA
ATOM      4  H   UNL     1       1.716   2.300   2.073  0.00  0.00    +0.149 HD
ENDROOT
BRANCH   2   5
ATOM      5  C   UNL     1      -0.627   1.268   2.664  0.00  0.00    +0.078 C 
ATOM      6  C   UNL     1      -0.043   1.314   4.078  0.00  0.00    +0.032 C 
ATOM      7  C   UNL     1      -1.108   1.829   5.051  0.00  0.00    +0.110 C 
ATOM      8  N   UNL     1      -2.310   0.994   4.921  0.00  0.00    -0.286 N 
ATOM      9  C   UNL     1      -2.902   0.809   3.589  0.00  0.00    +0.110 C 
ATOM     10  C   UNL     1      -1.816   0.305   2.633  0.00  0.00    +0.032 C 
ATOM     11  C   UNL     1      -2.859   0.409   6.004  0.00  0.00    +0.300 C 
ATOM     12  O   UNL     1      -3.903  -0.206   5.899  0.00  0.00    -0.253 OA
ATOM     13  N   UNL     1      -2.252   0.505   7.203  0.00  0.00    -0.313 N 
ATOM     14  H   UNL     1      -1.457   1.052   7.301  0.00  0.00    +0.146 HD
ATOM     15  H   UNL     1      -2.609   0.027   7.968  0.00  0.00    +0.146 HD
ENDBRANCH   2   5
BRANCH   1  16
ATOM     16  C   UNL     1       2.596   1.035   0.612  0.00  0.00    +0.200 C 
BRANCH  16  18
ATOM     17  N   UNL     1       4.832   1.764  -0.153  0.00  0.00    -0.284 N 
ATOM     18  C   UNL     1       3.764   1.986   0.638  0.00  0.00    +0.234 C 
ATOM     19  O   UNL     1       3.744   2.952   1.372  0.00  0.00    -0.274 OA
ATOM     20  H   UNL     1       4.880   0.956  -0.688  0.00  0.00    +0.155 HD
BRANCH  17  25
ATOM     21  C   UNL     1       9.050   5.553  -0.356  0.00  0.00    +0.044 C 
ATOM     22  C   UNL     1       7.929   4.547  -0.302  0.00  0.00    -0.050 A 
ATOM     23  C   UNL     1       8.210   3.214  -0.063  0.00  0.00    +0.008 A 
ATOM     24  C   UNL     1       7.186   2.289  -0.013  0.00  0.00    -0.029 A 
ATOM     25  C   UNL     1       5.873   2.699  -0.203  0.00  0.00    +0.039 A 
ATOM     26  C   UNL     1       5.595   4.037  -0.449  0.00  0.00    -0.029 A 
ATOM     27  C   UNL     1       6.623   4.958  -0.492  0.00  0.00    +0.008 A 
ATOM     28  C   UNL     1       4.171   4.485  -0.662  0.00  0.00    +0.045 C 
ATOM     29  C   UNL     1       7.493   0.837   0.247  0.00  0.00    +0.045 C 
ENDBRANCH  17  25
ENDBRANCH  16  18
ENDBRANCH   1  16
TORSDOF 4
