REMARK  Name = ZINC38775896
REMARK  7 active torsions:
REMARK  status: ('A' for Active; 'I' for Inactive)
REMARK    1  A    between atoms: C_1  and  C_2
REMARK    2  A    between atoms: C_3  and  C_24
REMARK    3  A    between atoms: C_4  and  C_8
REMARK    4  A    between atoms: C_11  and  O_15
REMARK    5  A    between atoms: C_13  and  O_14
REMARK    6  A    between atoms: O_15  and  C_16
REMARK    7  A    between atoms: C_16  and  C_17
REMARK                            x       y       z     vdW  Elec       q    Type
REMARK                         _______ _______ _______ _____ _____    ______ ____
ROOT
ATOM      1  C   UNL     1      -0.018   1.503   0.010  0.00  0.00    +0.068 C 
ATOM      2  C   UNL     1       0.002  -0.004   0.002  0.00  0.00    +0.064 C 
ATOM      3  C   UNL     1      -1.101  -0.791   0.003  0.00  0.00    +0.011 C 
ATOM      4  C   UNL     1      -0.535  -2.200  -0.007  0.00  0.00    +0.164 C 
ATOM      5  N   UNL     1       0.920  -1.969  -0.013  0.00  0.00    -0.297 N 
ATOM      6  N   UNL     1       1.112  -0.751  -0.013  0.00  0.00    -0.182 NA
ATOM      7  H   UNL     1       1.606  -2.654  -0.020  0.00  0.00    +0.183 HD
ENDROOT
BRANCH   3   8
ATOM      8  C   UNL     1      -2.512  -0.378   0.012  0.00  0.00    -0.014 A 
ATOM      9  C   UNL     1      -3.323  -0.672   1.114  0.00  0.00    +0.012 A 
ATOM     10  C   UNL     1      -4.644  -0.284   1.119  0.00  0.00    +0.050 A 
ATOM     11  C   UNL     1      -5.178   0.399   0.032  0.00  0.00    +0.162 A 
ATOM     12  C   UNL     1      -4.377   0.698  -1.067  0.00  0.00    +0.163 A 
ATOM     13  C   UNL     1      -3.048   0.316  -1.078  0.00  0.00    +0.057 A 
ATOM     14  O   UNL     1      -4.883   1.374  -2.135  0.00  0.00    -0.485 OA
ATOM     15  C   UNL     1      -6.310   1.420  -2.249  0.00  0.00    +0.270 C 
ATOM     16  C   UNL     1      -6.891   1.776  -0.875  0.00  0.00    +0.270 C 
ATOM     17  O   UNL     1      -6.487   0.768   0.058  0.00  0.00    -0.485 OA
ENDBRANCH   3   8
BRANCH   4  18
ATOM     18  C   UNL     1      -0.954  -2.953   1.229  0.00  0.00    +0.022 A 
ATOM     19  C   UNL     1      -0.121  -2.989   2.331  0.00  0.00    +0.013 A 
ATOM     20  C   UNL     1      -0.503  -3.679   3.466  0.00  0.00    +0.046 A 
ATOM     21  C   UNL     1      -1.725  -4.336   3.502  0.00  0.00    +0.124 A 
ATOM     22  C   UNL     1      -2.562  -4.301   2.397  0.00  0.00    +0.091 A 
ATOM     23  C   UNL     1      -2.179  -3.604   1.262  0.00  0.00    +0.126 A 
BRANCH  23  24
ATOM     24  O   UNL     1      -3.000  -3.563   0.180  0.00  0.00    -0.506 OA
ATOM     25  H   UNL     1      -2.857  -4.283  -0.450  0.00  0.00    +0.292 HD
ENDBRANCH  23  24
BRANCH  21  26
ATOM     26  O   UNL     1      -2.100  -5.014   4.618  0.00  0.00    -0.487 OA
BRANCH  26  27
ATOM     27  C   UNL     1      -1.187  -5.008   5.718  0.00  0.00    +0.264 C 
BRANCH  27  28
ATOM     28  C   UNL     1      -1.768  -5.805   6.857  0.00  0.00    -0.010 A 
ATOM     29  C   UNL     1      -2.561  -5.181   7.803  0.00  0.00    +0.008 A 
ATOM     30  C   UNL     1      -3.094  -5.912   8.848  0.00  0.00    +0.015 A 
ATOM     31  C   UNL     1      -2.836  -7.267   8.947  0.00  0.00    +0.018 A 
ATOM     32  C   UNL     1      -2.043  -7.891   8.001  0.00  0.00    +0.015 A 
ATOM     33  C   UNL     1      -1.514  -7.161   6.953  0.00  0.00    +0.008 A 
ATOM     34 BR   UNL     1      -3.565  -8.267  10.377  0.00  0.00    -0.050 Br
ENDBRANCH  27  28
ENDBRANCH  26  27
ENDBRANCH  21  26
ENDBRANCH   4  18
TORSDOF 6
