REMARK  Name = ZINC04908148
REMARK  5 active torsions:
REMARK  status: ('A' for Active; 'I' for Inactive)
REMARK    1  A    between atoms: C_1  and  C_2
REMARK    2  A    between atoms: C_2  and  O_3
REMARK    3  A    between atoms: O_3  and  C_4
REMARK    4  A    between atoms: C_7  and  N_10
REMARK    5  A    between atoms: C_17  and  C_26
REMARK                            x       y       z     vdW  Elec       q    Type
REMARK                         _______ _______ _______ _____ _____    ______ ____
ROOT
ATOM      1  N   UNL     1       0.945   1.804  -0.116  0.00  0.00    -0.216 N 
ATOM      2  C   UNL     1      -0.245   1.416   0.369  0.00  0.00    +0.310 C 
ATOM      3  O   UNL     1      -0.376   0.269   0.749  0.00  0.00    -0.252 OA
ATOM      4  N   UNL     1      -1.298   2.247   0.444  0.00  0.00    -0.292 N 
ATOM      5  C   UNL     1      -1.144   3.657   0.054  0.00  0.00    +0.114 C 
ATOM      6  C   UNL     1      -0.187   3.713  -1.140  0.00  0.00    +0.096 C 
ATOM      7  C   UNL     1       1.157   3.138  -0.671  0.00  0.00    +0.185 C 
ATOM      8  O   UNL     1       1.704   4.015   0.310  0.00  0.00    -0.468 OA
ATOM      9  C   UNL     1       0.889   4.498   1.282  0.00  0.00    +0.128 A 
ATOM     10  C   UNL     1      -0.487   4.370   1.215  0.00  0.00    +0.016 A 
ATOM     11  C   UNL     1      -1.284   4.887   2.220  0.00  0.00    +0.029 A 
ATOM     12  C   UNL     1      -0.708   5.529   3.301  0.00  0.00    +0.042 A 
ATOM     13  C   UNL     1       0.668   5.655   3.377  0.00  0.00    +0.023 A 
ATOM     14  C   UNL     1       1.464   5.143   2.373  0.00  0.00    +0.047 A 
ATOM     15 CL   UNL     1      -1.710   6.176   4.562  0.00  0.00    -0.084 Cl
ATOM     16  C   UNL     1       2.114   3.047  -1.861  0.00  0.00    +0.079 C 
ATOM     17  H   UNL     1      -2.157   1.918   0.750  0.00  0.00    +0.151 HD
ENDROOT
BRANCH   1  21
ATOM     18  C   UNL     1       4.134  -0.881  -0.036  0.00  0.00    +0.121 A 
ATOM     19  C   UNL     1       3.216  -0.926  -1.075  0.00  0.00    +0.047 A 
ATOM     20  C   UNL     1       2.159  -0.037  -1.102  0.00  0.00    +0.027 A 
ATOM     21  C   UNL     1       2.016   0.901  -0.089  0.00  0.00    +0.042 A 
ATOM     22  C   UNL     1       2.938   0.949   0.948  0.00  0.00    +0.027 A 
ATOM     23  C   UNL     1       3.991   0.056   0.976  0.00  0.00    +0.047 A 
BRANCH  18  24
ATOM     24  O   UNL     1       5.175  -1.756  -0.011  0.00  0.00    -0.492 OA
BRANCH  24  26
ATOM     25  C   UNL     1       7.178  -2.712   0.946  0.00  0.00    +0.048 C 
ATOM     26  C   UNL     1       6.082  -1.653   1.089  0.00  0.00    +0.225 C 
ENDBRANCH  24  26
ENDBRANCH  18  24
ENDBRANCH   1  21
TORSDOF 3
