REMARK  Name = ZINC18172683
REMARK  5 active torsions:
REMARK  status: ('A' for Active; 'I' for Inactive)
REMARK    1  A    between atoms: C_1  and  C_2
REMARK    2  A    between atoms: C_4  and  C_29
REMARK    3  A    between atoms: C_6  and  N_8
REMARK    4  A    between atoms: C_9  and  C_11
REMARK    5  A    between atoms: C_20  and  N_23
REMARK                            x       y       z     vdW  Elec       q    Type
REMARK                         _______ _______ _______ _____ _____    ______ ____
ROOT
ATOM      1  C   UNL     1      -2.569   4.140   0.252  0.00  0.00    +0.050 C 
ATOM      2  C   UNL     1      -3.427   3.858  -0.983  0.00  0.00    +0.020 C 
ATOM      3  C   UNL     1      -4.761   4.597  -0.858  0.00  0.00    -0.007 C 
ATOM      4  C   UNL     1      -5.495   4.115   0.395  0.00  0.00    +0.007 C 
ATOM      5  C   UNL     1      -4.637   4.397   1.630  0.00  0.00    -0.007 C 
ATOM      6  C   UNL     1      -3.304   3.658   1.504  0.00  0.00    +0.020 C 
ATOM      7  C   UNL     1      -4.379   5.901   1.738  0.00  0.00    +0.034 C 
ATOM      8  C   UNL     1      -3.644   6.384   0.486  0.00  0.00    +0.067 C 
ATOM      9  C   UNL     1      -4.502   6.101  -0.749  0.00  0.00    +0.034 C 
ATOM     10  C   UNL     1      -2.310   5.644   0.360  0.00  0.00    +0.046 C 
ENDROOT
BRANCH   8  11
ATOM     11  N   UNL     1      -3.396   7.824   0.590  0.00  0.00    -0.245 N 
ATOM     12  C   UNL     1      -2.548   8.551  -0.158  0.00  0.00    +0.220 A 
ATOM     13  N   UNL     1      -2.617   9.795   0.243  0.00  0.00    -0.209 NA
ATOM     14  C   UNL     1      -3.494   9.900   1.242  0.00  0.00    +0.217 A 
ATOM     15  N   UNL     1      -4.002   8.720   1.486  0.00  0.00    -0.142 NA
ATOM     16 BR   UNL     1      -3.938  11.497   2.151  0.00  0.00    -0.005 Br
ENDBRANCH   8  11
BRANCH   1  18
ATOM     17  N   UNL     1      -1.237   2.069   0.019  0.00  0.00    -0.285 N 
ATOM     18  C   UNL     1      -1.255   3.412   0.128  0.00  0.00    +0.223 C 
ATOM     19  O   UNL     1      -0.215   4.035   0.127  0.00  0.00    -0.275 OA
ATOM     20  H   UNL     1      -2.181   1.511  -0.067  0.00  0.00    +0.155 HD
BRANCH  17  26
ATOM     21  C   UNL     1       1.486  -1.716  -1.538  0.00  0.00    +0.044 C 
ATOM     22  C   UNL     1       1.330  -0.455  -0.728  0.00  0.00    -0.048 A 
ATOM     23  C   UNL     1       2.392   0.023   0.018  0.00  0.00    +0.006 A 
ATOM     24  C   UNL     1       2.252   1.180   0.762  0.00  0.00    -0.048 A 
ATOM     25  C   UNL     1       1.051   1.861   0.764  0.00  0.00    +0.026 A 
ATOM     26  C   UNL     1      -0.017   1.384   0.015  0.00  0.00    +0.034 A 
ATOM     27  C   UNL     1       0.127   0.222  -0.732  0.00  0.00    +0.026 A 
ATOM     28  C   UNL     1       3.412   1.697   1.574  0.00  0.00    +0.044 C 
ENDBRANCH  17  26
ENDBRANCH   1  18
TORSDOF 3
