REMARK  Name = ZINC09187386
REMARK  5 active torsions:
REMARK  status: ('A' for Active; 'I' for Inactive)
REMARK    1  A    between atoms: C_1  and  C_2
REMARK    2  A    between atoms: C_2  and  O_3
REMARK    3  A    between atoms: O_3  and  C_4
REMARK    4  A    between atoms: C_14  and  C_29
REMARK    5  A    between atoms: C_33  and  O_35
REMARK                            x       y       z     vdW  Elec       q    Type
REMARK                         _______ _______ _______ _____ _____    ______ ____
ROOT
ATOM      1  C   UNL     1       6.673  12.613  -0.002  0.00  0.00    +0.122 A 
ATOM      2  C   UNL     1       5.351  13.049   0.012  0.00  0.00    +0.048 A 
ATOM      3  C   UNL     1       4.311  12.172   0.018  0.00  0.00    +0.032 A 
ATOM      4  C   UNL     1       4.538  10.776   0.011  0.00  0.00    +0.081 A 
ATOM      5  C   UNL     1       5.890  10.362  -0.003  0.00  0.00    +0.044 A 
ATOM      6  C   UNL     1       6.936  11.251  -0.010  0.00  0.00    +0.063 A 
ATOM      7  S   UNL     1       5.744   8.592  -0.009  0.00  0.00    -0.052 S 
ATOM      8  C   UNL     1       3.959   8.514   0.008  0.00  0.00    +0.169 A 
ATOM      9  N   UNL     1       3.623   9.782   0.011  0.00  0.00    -0.224 NA
ATOM     10  N   UNL     1       3.139   7.398   0.010  0.00  0.00    -0.232 N 
ATOM     11  C   UNL     1       1.671   7.406   0.024  0.00  0.00    +0.152 C 
ATOM     12  C   UNL     1       1.248   5.960   0.021  0.00  0.00    +0.072 A 
ATOM     13  C   UNL     1      -0.065   5.309   0.030  0.00  0.00    +0.199 A 
ATOM     14  O   UNL     1      -1.098   5.954   0.042  0.00  0.00    -0.287 OA
ATOM     15  C   UNL     1      -0.072   3.833   0.022  0.00  0.00    +0.064 A 
ATOM     16  C   UNL     1      -1.265   3.112   0.029  0.00  0.00    +0.015 A 
ATOM     17  C   UNL     1      -1.229   1.745   0.017  0.00  0.00    +0.001 A 
ATOM     18  C   UNL     1      -0.013   1.076   0.008  0.00  0.00    +0.004 A 
ATOM     19  C   UNL     1       1.176   1.772   0.000  0.00  0.00    +0.047 A 
ATOM     20  C   UNL     1       1.164   3.165   0.007  0.00  0.00    +0.139 A 
ATOM     21  O   UNL     1       2.316   3.860  -0.000  0.00  0.00    -0.450 OA
ATOM     22  C   UNL     1       2.376   5.206   0.006  0.00  0.00    +0.199 A 
ATOM     23  C   UNL     1       3.546   6.117  -0.000  0.00  0.00    +0.289 C 
ATOM     24  O   UNL     1       4.707   5.758  -0.013  0.00  0.00    -0.266 OA
ENDROOT
BRANCH  11  25
ATOM     25  C   UNL     1       1.167   8.091   1.268  0.00  0.00    -0.019 A 
ATOM     26  C   UNL     1       1.840   7.931   2.466  0.00  0.00    +0.006 A 
ATOM     27  C   UNL     1       1.383   8.563   3.607  0.00  0.00    +0.004 A 
ATOM     28  C   UNL     1       0.247   9.347   3.557  0.00  0.00    +0.045 A 
ATOM     29  C   UNL     1      -0.433   9.505   2.358  0.00  0.00    +0.117 A 
ATOM     30  C   UNL     1       0.030   8.874   1.212  0.00  0.00    +0.051 A 
BRANCH  29  31
ATOM     31  O   UNL     1      -1.551  10.275   2.306  0.00  0.00    -0.507 OA
ATOM     32  H   UNL     1      -2.371   9.792   2.479  0.00  0.00    +0.292 HD
ENDBRANCH  29  31
ENDBRANCH  11  25
BRANCH   1  33
ATOM     33  O   UNL     1       7.693  13.512  -0.009  0.00  0.00    -0.492 OA
BRANCH  33  35
ATOM     34  C   UNL     1       8.610  15.748  -0.010  0.00  0.00    +0.048 C 
ATOM     35  C   UNL     1       7.339  14.896  -0.001  0.00  0.00    +0.225 C 
ENDBRANCH  33  35
ENDBRANCH   1  33
TORSDOF 4
