REMARK  Name = ZINC30825839
REMARK  12 active torsions:
REMARK  status: ('A' for Active; 'I' for Inactive)
REMARK    1  A    between atoms: C_1  and  C_2
REMARK    2  A    between atoms: C_2  and  N_3
REMARK    3  A    between atoms: N_6  and  C_9
REMARK    4  A    between atoms: C_12  and  C_34
REMARK    5  A    between atoms: C_14  and  N_15
REMARK    6  A    between atoms: C_16  and  C_18
REMARK    7  A    between atoms: C_19  and  C_20
REMARK    8  A    between atoms: C_23  and  C_25
REMARK    9  A    between atoms: C_30  and  N_31
REMARK   10  A    between atoms: C_34  and  O_36
REMARK   11  A    between atoms: O_36  and  C_37
REMARK   12  A    between atoms: C_37  and  C_38
REMARK                            x       y       z     vdW  Elec       q    Type
REMARK                         _______ _______ _______ _____ _____    ______ ____
ROOT
ATOM      1  C   UNL     1      -0.388   1.806  -0.488  0.00  0.00    +0.051 A 
ATOM      2  C   UNL     1      -0.470   0.436  -0.711  0.00  0.00    +0.026 A 
ATOM      3  C   UNL     1       0.670  -0.337  -0.696  0.00  0.00    +0.017 A 
ATOM      4  C   UNL     1       1.914   0.255  -0.457  0.00  0.00    +0.061 A 
ATOM      5  C   UNL     1       1.999   1.632  -0.232  0.00  0.00    +0.040 A 
ATOM      6  C   UNL     1       0.853   2.404  -0.248  0.00  0.00    +0.056 A 
ENDROOT
BRANCH   1  10
ATOM      7  N   UNL     1      -4.342   3.042  -0.745  0.00  0.00    +0.382 N 
ATOM      8  C   UNL     1      -3.425   3.428  -1.827  0.00  0.00    -0.060 C 
ATOM      9  C   UNL     1      -2.209   2.500  -1.817  0.00  0.00    +0.086 C 
ATOM     10  N   UNL     1      -1.542   2.584  -0.510  0.00  0.00    -0.332 N 
ATOM     11  C   UNL     1      -2.458   2.197   0.571  0.00  0.00    +0.086 C 
ATOM     12  C   UNL     1      -3.675   3.125   0.562  0.00  0.00    -0.060 C 
ATOM     13  H   UNL     1      -4.638   1.995  -0.909  0.00  0.00    -0.082 HD
BRANCH   7  15
ATOM     14  C   UNL     1      -6.370   3.609   0.505  0.00  0.00    -0.017 C 
ATOM     15  C   UNL     1      -5.560   3.862  -0.768  0.00  0.00    -0.082 C 
ENDBRANCH   7  15
ENDBRANCH   1  10
BRANCH   6  16
ATOM     16  N   UNL     1       0.934   3.784  -0.024  0.00  0.00    -0.280 N 
ATOM     17  C   UNL     1       1.859   4.276   0.824  0.00  0.00    +0.241 C 
ATOM     18  O   UNL     1       2.688   3.533   1.319  0.00  0.00    -0.270 OA
ATOM     19  H   UNL     1       0.242   4.467  -0.539  0.00  0.00    +0.155 HD
BRANCH  17  20
ATOM     20  C   UNL     1       1.867   5.654   1.140  0.00  0.00    +0.071 C 
ATOM     21  C   UNL     1       3.045   6.295   1.353  0.00  0.00    +0.051 C 
BRANCH  21  22
ATOM     22  C   UNL     1       4.125   5.609   1.954  0.00  0.00    +0.129 A 
ATOM     23  C   UNL     1       5.162   6.188   2.660  0.00  0.00    +0.050 A 
ATOM     24  C   UNL     1       5.998   5.147   3.073  0.00  0.00    +0.050 A 
ATOM     25  C   UNL     1       5.451   3.983   2.611  0.00  0.00    +0.138 A 
ATOM     26  O   UNL     1       4.320   4.274   1.943  0.00  0.00    -0.455 OA
BRANCH  25  27
ATOM     27  C   UNL     1       6.005   2.631   2.815  0.00  0.00    +0.047 A 
ATOM     28  C   UNL     1       7.349   2.373   2.531  0.00  0.00    +0.014 A 
ATOM     29  C   UNL     1       7.860   1.107   2.724  0.00  0.00    +0.001 A 
ATOM     30  C   UNL     1       7.046   0.093   3.199  0.00  0.00    +0.002 A 
ATOM     31  C   UNL     1       5.715   0.342   3.483  0.00  0.00    +0.033 A 
ATOM     32  C   UNL     1       5.191   1.605   3.300  0.00  0.00    +0.137 A 
BRANCH  32  33
ATOM     33  N   UNL     1       3.768   1.870   3.610  0.00  0.00    +0.057 N 
ATOM     34  O   UNL     1       3.060   0.974   4.033  0.00  0.00    -0.126 OA
ATOM     35  O   UNL     1       3.306   2.985   3.443  0.00  0.00    -0.126 OA
ENDBRANCH  32  33
ENDBRANCH  25  27
ENDBRANCH  21  22
ENDBRANCH  17  20
ENDBRANCH   6  16
BRANCH   4  36
ATOM     36  C   UNL     1       3.134  -0.573  -0.440  0.00  0.00    +0.339 C 
ATOM     37  O   UNL     1       4.215  -0.058  -0.232  0.00  0.00    -0.245 OA
BRANCH  36  38
ATOM     38  O   UNL     1       3.051  -1.900  -0.656  0.00  0.00    -0.461 OA
BRANCH  38  39
ATOM     39  C   UNL     1       4.292  -2.652  -0.625  0.00  0.00    +0.229 C 
ATOM     40  C   UNL     1       4.000  -4.131  -0.889  0.00  0.00    +0.048 C 
ENDBRANCH  38  39
ENDBRANCH  36  38
ENDBRANCH   4  36
TORSDOF 10
