REMARK  Name = ZINC04848769
REMARK  6 active torsions:
REMARK  status: ('A' for Active; 'I' for Inactive)
REMARK    1  A    between atoms: C_1  and  C_2
REMARK    2  A    between atoms: C_4  and  C_30
REMARK    3  A    between atoms: C_8  and  N_29
REMARK    4  A    between atoms: C_9  and  C_15
REMARK    5  A    between atoms: N_17  and  C_18
REMARK    6  A    between atoms: C_19  and  C_28
REMARK                            x       y       z     vdW  Elec       q    Type
REMARK                         _______ _______ _______ _____ _____    ______ ____
ROOT
ATOM      1  C   UNL     1       0.141   1.459  -0.088  0.00  0.00    +0.044 C 
ATOM      2  C   UNL     1       0.231  -0.045  -0.076  0.00  0.00    -0.048 A 
ATOM      3  C   UNL     1       0.434  -0.731  -1.273  0.00  0.00    +0.007 A 
ATOM      4  C   UNL     1       0.520  -2.087  -1.296  0.00  0.00    -0.041 A 
ATOM      5  C   UNL     1       0.404  -2.815  -0.096  0.00  0.00    +0.002 A 
ATOM      6  C   UNL     1       0.490  -4.212  -0.090  0.00  0.00    +0.022 A 
ATOM      7  C   UNL     1       0.369  -4.896   1.132  0.00  0.00    +0.028 A 
ATOM      8  C   UNL     1       0.427  -6.332   1.371  0.00  0.00    +0.053 A 
ATOM      9  C   UNL     1       0.283  -6.787   2.660  0.00  0.00    +0.097 A 
ATOM     10  S   UNL     1       0.063  -5.295   3.609  0.00  0.00    -0.064 S 
ATOM     11  C   UNL     1       0.165  -4.103   2.295  0.00  0.00    +0.088 A 
ATOM     12  N   UNL     1       0.087  -2.796   2.267  0.00  0.00    -0.349 N 
ATOM     13  C   UNL     1       0.198  -2.116   1.122  0.00  0.00    +0.048 A 
ATOM     14  C   UNL     1       0.120  -0.713   1.104  0.00  0.00    +0.029 A 
ATOM     15  C   UNL     1       0.739  -2.810  -2.601  0.00  0.00    +0.044 C 
ATOM     16  H   UNL     1      -0.054  -2.312   3.095  0.00  0.00    +0.166 HD
ENDROOT
BRANCH   9  17
ATOM     17  C   UNL     1       0.303  -8.126   3.125  0.00  0.00    +0.257 C 
ATOM     18  O   UNL     1       0.465  -9.041   2.338  0.00  0.00    -0.269 OA
ATOM     19  N   UNL     1       0.144  -8.386   4.438  0.00  0.00    -0.275 N 
ATOM     20  H   UNL     1       0.089  -7.656   5.074  0.00  0.00    +0.155 HD
BRANCH  19  21
ATOM     21  C   UNL     1       0.059  -9.716   4.886  0.00  0.00    +0.118 A 
ATOM     22  C   UNL     1       0.942 -10.193   5.795  0.00  0.00    +0.044 A 
ATOM     23  N   UNL     1       0.842 -11.494   6.219  0.00  0.00    -0.310 N 
ATOM     24  H   UNL     1       1.474 -11.837   6.871  0.00  0.00    +0.170 HD
ATOM     25  C   UNL     1      -0.125 -12.298   5.741  0.00  0.00    +0.327 A 
ATOM     26  O   UNL     1      -0.194 -13.447   6.132  0.00  0.00    -0.247 OA
ATOM     27  N   UNL     1      -1.016 -11.851   4.837  0.00  0.00    -0.274 N 
ATOM     28  H   UNL     1      -1.705 -12.446   4.505  0.00  0.00    +0.173 HD
ATOM     29  C   UNL     1      -0.958 -10.578   4.395  0.00  0.00    +0.276 A 
ATOM     30  O   UNL     1      -1.767 -10.173   3.581  0.00  0.00    -0.266 OA
ATOM     31  C   UNL     1       2.029  -9.300   6.337  0.00  0.00    +0.065 C 
ENDBRANCH  19  21
ENDBRANCH   9  17
BRANCH   8  32
ATOM     32  N   UNL     1       0.622  -7.220   0.322  0.00  0.00    -0.356 N 
ATOM     33  H   UNL     1       0.722  -6.886  -0.583  0.00  0.00    +0.142 HD
ATOM     34  H   UNL     1       0.658  -8.174   0.494  0.00  0.00    +0.142 HD
ENDBRANCH   8  32
TORSDOF 3
