REMARK  Name = ZINC08860907
REMARK  3 active torsions:
REMARK  status: ('A' for Active; 'I' for Inactive)
REMARK    1  A    between atoms: C_4  and  C_7
REMARK    2  A    between atoms: C_13  and  C_15
REMARK    3  A    between atoms: N_17  and  N_18
REMARK                            x       y       z     vdW  Elec       q    Type
REMARK                         _______ _______ _______ _____ _____    ______ ____
ROOT
ATOM      1  C   UNL     1       5.221  -1.778  -1.731  0.00  0.00    +0.245 C 
ATOM      2  O   UNL     1       6.103  -1.167  -1.166  0.00  0.00    -0.273 OA
ATOM      3  N   UNL     1       5.514  -2.564  -2.785  0.00  0.00    -0.206 N 
ATOM      4  H   UNL     1       4.809  -3.053  -3.237  0.00  0.00    +0.177 HD
ENDROOT
BRANCH   3   5
ATOM      5  N   UNL     1       6.839  -2.675  -3.229  0.00  0.00    -0.175 NA
ATOM      6  C   UNL     1       7.124  -3.439  -4.255  0.00  0.00    +0.153 C 
ATOM      7  C   UNL     1       8.456  -3.682  -4.857  0.00  0.00    +0.030 A 
ATOM      8  C   UNL     1       9.733  -3.219  -4.559  0.00  0.00    +0.027 A 
ATOM      9  C   UNL     1      10.808  -3.635  -5.321  0.00  0.00    +0.020 A 
ATOM     10  C   UNL     1      10.612  -4.509  -6.378  0.00  0.00    +0.032 A 
ATOM     11  C   UNL     1       9.347  -4.973  -6.681  0.00  0.00    +0.041 A 
ATOM     12  C   UNL     1       8.254  -4.566  -5.923  0.00  0.00    +0.057 A 
ATOM     13  N   UNL     1       6.901  -4.877  -6.013  0.00  0.00    -0.279 N 
ATOM     14  C   UNL     1       6.189  -4.252  -5.059  0.00  0.00    +0.269 C 
ATOM     15  O   UNL     1       4.987  -4.338  -4.891  0.00  0.00    -0.268 OA
ATOM     16 BR   UNL     1       9.101  -6.165  -8.128  0.00  0.00    -0.048 Br
ATOM     17 BR   UNL     1      12.547  -3.009  -4.922  0.00  0.00    -0.050 Br
ATOM     18  H   UNL     1       6.519  -5.472  -6.677  0.00  0.00    +0.155 HD
ENDBRANCH   3   5
BRANCH   1  24
ATOM     19  C   UNL     1       3.711  -0.707  -0.038  0.00  0.00    +0.057 C 
ATOM     20  C   UNL     1       3.807  -1.696   1.145  0.00  0.00    +0.113 C 
ATOM     21  N   UNL     1       3.316  -2.977   0.626  0.00  0.00    -0.314 N 
ATOM     22  C   UNL     1       3.304  -2.987  -0.718  0.00  0.00    +0.226 C 
ATOM     23  O   UNL     1       2.950  -3.923  -1.403  0.00  0.00    -0.275 OA
ATOM     24  C   UNL     1       3.797  -1.659  -1.253  0.00  0.00    +0.171 C 
ATOM     25  H   UNL     1       3.035  -3.722   1.181  0.00  0.00    +0.149 HD
BRANCH  19  29
ATOM     26  C   UNL     1      -0.017   1.378   0.010  0.00  0.00    +0.000 A 
ATOM     27  C   UNL     1       1.171   2.086   0.002  0.00  0.00    +0.000 A 
ATOM     28  C   UNL     1       2.377   1.411  -0.013  0.00  0.00    +0.004 A 
ATOM     29  C   UNL     1       2.396   0.029  -0.020  0.00  0.00    -0.042 A 
ATOM     30  C   UNL     1       1.208  -0.679  -0.012  0.00  0.00    +0.004 A 
ATOM     31  C   UNL     1       0.002  -0.004   0.002  0.00  0.00    +0.000 A 
ENDBRANCH  19  29
ENDBRANCH   1  24
TORSDOF 3
