REMARK  Name = ZINC64423224
REMARK  8 active torsions:
REMARK  status: ('A' for Active; 'I' for Inactive)
REMARK    1  A    between atoms: C_6  and  C_10
REMARK    2  A    between atoms: C_10  and  C_11
REMARK    3  A    between atoms: C_11  and  C_12
REMARK    4  A    between atoms: C_15  and  S_17
REMARK    5  A    between atoms: S_17  and  C_18
REMARK    6  A    between atoms: C_18  and  C_19
REMARK    7  A    between atoms: N_21  and  C_22
REMARK    8  A    between atoms: C_25  and  N_28
REMARK                            x       y       z     vdW  Elec       q    Type
REMARK                         _______ _______ _______ _____ _____    ______ ____
ROOT
ATOM      1  C   UNL     1       3.491  -4.919  -2.540  0.00  0.00    +0.218 A 
ATOM      2  N   UNL     1       4.593  -5.596  -2.672  0.00  0.00    -0.112 NA
ATOM      3  N   UNL     1       4.666  -6.074  -3.865  0.00  0.00    -0.101 NA
ATOM      4  C   UNL     1       3.601  -5.714  -4.541  0.00  0.00    +0.278 A 
ATOM      5  O   UNL     1       2.833  -4.980  -3.715  0.00  0.00    -0.416 OA
ENDROOT
BRANCH   1   6
ATOM      6  C   UNL     1       3.030  -4.202  -1.298  0.00  0.00    +0.101 C 
BRANCH   6   7
ATOM      7  C   UNL     1       3.549  -2.762  -1.318  0.00  0.00    +0.056 C 
BRANCH   7  13
ATOM      8  C   UNL     1      -0.022   1.358  -0.009  0.00  0.00    +0.002 A 
ATOM      9  C   UNL     1       1.148   2.137  -0.025  0.00  0.00    +0.002 A 
ATOM     10  C   UNL     1       2.382   1.595  -0.043  0.00  0.00    +0.027 A 
ATOM     11  C   UNL     1       2.532   0.133  -0.046  0.00  0.00    +0.060 A 
ATOM     12  N   UNL     1       3.572  -0.650  -0.062  0.00  0.00    -0.363 N 
ATOM     13  C   UNL     1       3.081  -2.034  -0.056  0.00  0.00    +0.174 C 
ATOM     14  N   UNL     1       1.615  -1.953  -0.035  0.00  0.00    -0.363 N 
ATOM     15  C   UNL     1       1.293  -0.692  -0.030  0.00  0.00    +0.060 A 
ATOM     16  C   UNL     1       0.002   0.010  -0.011  0.00  0.00    +0.027 A 
ATOM     17  H   UNL     1       4.500  -0.371  -0.075  0.00  0.00    +0.162 HD
ATOM     18  H   UNL     1       0.999  -2.703  -0.028  0.00  0.00    +0.162 HD
ENDBRANCH   7  13
ENDBRANCH   6   7
ENDBRANCH   1   6
BRANCH   4  19
ATOM     19  S   UNL     1       3.241  -6.122  -6.217  0.00  0.00    -0.056 S 
BRANCH  19  20
ATOM     20  C   UNL     1       4.660  -7.123  -6.740  0.00  0.00    +0.175 C 
BRANCH  20  21
ATOM     21  C   UNL     1       4.476  -7.544  -8.175  0.00  0.00    +0.228 C 
ATOM     22  O   UNL     1       3.486  -7.201  -8.786  0.00  0.00    -0.275 OA
ATOM     23  N   UNL     1       5.413  -8.300  -8.781  0.00  0.00    -0.285 N 
ATOM     24  H   UNL     1       6.236  -8.518  -8.316  0.00  0.00    +0.155 HD
BRANCH  23  25
ATOM     25  C   UNL     1       5.198  -8.772 -10.083  0.00  0.00    +0.034 A 
ATOM     26  C   UNL     1       5.668 -10.025 -10.453  0.00  0.00    +0.025 A 
ATOM     27  C   UNL     1       5.457 -10.490 -11.736  0.00  0.00    +0.027 A 
ATOM     28  C   UNL     1       4.774  -9.704 -12.656  0.00  0.00    +0.055 A 
ATOM     29  C   UNL     1       4.303  -8.451 -12.285  0.00  0.00    +0.027 A 
ATOM     30  C   UNL     1       4.510  -7.989 -11.001  0.00  0.00    +0.025 A 
BRANCH  28  31
ATOM     31  N   UNL     1       4.560 -10.175 -13.954  0.00  0.00    -0.186 N 
ATOM     32  C   UNL     1       3.859  -9.477 -15.049  0.00  0.00    +0.257 C 
ATOM     33  N   UNL     1       3.944 -10.441 -16.162  0.00  0.00    -0.230 N 
ATOM     34  N   UNL     1       4.639 -11.547 -15.658  0.00  0.00    -0.064 NA
ATOM     35  N   UNL     1       4.971 -11.403 -14.485  0.00  0.00    -0.057 NA
ATOM     36  H   UNL     1       3.590 -10.332 -17.058  0.00  0.00    +0.172 HD
ENDBRANCH  28  31
ENDBRANCH  23  25
ENDBRANCH  20  21
ENDBRANCH  19  20
ENDBRANCH   4  19
TORSDOF 8
