REMARK  Name = ZINC63730163
REMARK  12 active torsions:
REMARK  status: ('A' for Active; 'I' for Inactive)
REMARK    1  A    between atoms: C_1  and  C_2
REMARK    2  A    between atoms: C_2  and  O_3
REMARK    3  A    between atoms: O_3  and  C_4
REMARK    4  A    between atoms: C_7  and  N_10
REMARK    5  A    between atoms: C_11  and  C_13
REMARK    6  A    between atoms: C_13  and  S_14
REMARK    7  A    between atoms: S_14  and  C_15
REMARK    8  A    between atoms: C_18  and  C_28
REMARK    9  A    between atoms: N_20  and  C_21
REMARK   10  A    between atoms: C_21  and  C_22
REMARK   11  A    between atoms: C_31  and  C_39
REMARK   12  A    between atoms: C_32  and  C_38
REMARK                            x       y       z     vdW  Elec       q    Type
REMARK                         _______ _______ _______ _____ _____    ______ ____
ROOT
ATOM      1  C   UNL     1      -5.185 -10.176   0.443  0.00  0.00    +0.176 C 
ATOM      2  N   UNL     1      -4.130 -10.919   0.436  0.00  0.00    -0.162 NA
ATOM      3  N   UNL     1      -4.457 -12.276   0.542  0.00  0.00    -0.242 N 
ATOM      4  C   UNL     1      -5.927 -12.338   0.623  0.00  0.00    +0.208 C 
ATOM      5  N   UNL     1      -6.345 -10.928   0.558  0.00  0.00    -0.281 N 
ATOM      6  H   UNL     1      -3.841 -13.025   0.559  0.00  0.00    +0.170 HD
ENDROOT
BRANCH   4   7
ATOM      7  C   UNL     1      -6.359 -12.957   1.927  0.00  0.00    -0.008 C 
ATOM      8  C   UNL     1      -7.127 -14.088   1.926  0.00  0.00    +0.013 C 
ATOM      9  C   UNL     1      -7.521 -14.545   3.196  0.00  0.00    -0.014 C 
ATOM     10  C   UNL     1      -7.778 -15.767   3.691  0.00  0.00    -0.024 C 
ATOM     11  C   UNL     1      -7.845 -15.697   5.100  0.00  0.00    +0.037 C 
ATOM     12  N   UNL     1      -7.766 -14.471   5.535  0.00  0.00    -0.276 NA
ATOM     13  C   UNL     1      -7.697 -13.597   4.372  0.00  0.00    +0.159 C 
ATOM     14  C   UNL     1      -6.543 -12.641   4.359  0.00  0.00    +0.004 C 
ATOM     15  C   UNL     1      -5.952 -12.351   3.192  0.00  0.00    +0.005 C 
ATOM     16  C   UNL     1      -7.989 -16.899   5.997  0.00  0.00    +0.065 C 
ATOM     17  C   UNL     1      -7.967 -17.017   2.870  0.00  0.00    +0.046 C 
ENDBRANCH   4   7
BRANCH   1  18
ATOM     18  S   UNL     1      -5.155  -8.418   0.327  0.00  0.00    -0.080 S 
BRANCH  18  19
ATOM     19  C   UNL     1      -3.391  -8.017   0.200  0.00  0.00    +0.173 C 
BRANCH  19  21
ATOM     20  N   UNL     1      -1.989  -5.990  -0.012  0.00  0.00    -0.285 N 
ATOM     21  C   UNL     1      -3.222  -6.523   0.093  0.00  0.00    +0.227 C 
ATOM     22  O   UNL     1      -4.196  -5.800   0.102  0.00  0.00    -0.275 OA
ATOM     23  H   UNL     1      -1.215  -6.569  -0.096  0.00  0.00    +0.155 HD
BRANCH  20  27
ATOM     24  C   UNL     1      -1.496  -1.849   0.025  0.00  0.00    +0.121 A 
ATOM     25  C   UNL     1      -2.510  -2.434   0.771  0.00  0.00    +0.047 A 
ATOM     26  C   UNL     1      -2.673  -3.805   0.759  0.00  0.00    +0.027 A 
ATOM     27  C   UNL     1      -1.823  -4.598   0.001  0.00  0.00    +0.034 A 
ATOM     28  C   UNL     1      -0.809  -4.013  -0.746  0.00  0.00    +0.027 A 
ATOM     29  C   UNL     1      -0.650  -2.641  -0.737  0.00  0.00    +0.047 A 
BRANCH  24  30
ATOM     30  O   UNL     1      -1.336  -0.499   0.037  0.00  0.00    -0.492 OA
BRANCH  30  32
ATOM     31  C   UNL     1      -1.908   1.744   0.732  0.00  0.00    +0.048 C 
ATOM     32  C   UNL     1      -2.242   0.255   0.845  0.00  0.00    +0.225 C 
ENDBRANCH  30  32
ENDBRANCH  24  30
ENDBRANCH  20  27
ENDBRANCH  19  21
ENDBRANCH  18  19
ENDBRANCH   1  18
BRANCH   5  33
ATOM     33  C   UNL     1      -7.718 -10.418   0.603  0.00  0.00    +0.144 C 
BRANCH  33  34
ATOM     34  C   UNL     1      -8.269 -10.336  -0.796  0.00  0.00    -0.030 A 
ATOM     35  C   UNL     1      -8.105  -9.181  -1.538  0.00  0.00    +0.005 A 
ATOM     36  C   UNL     1      -8.611  -9.105  -2.822  0.00  0.00    +0.000 A 
ATOM     37  C   UNL     1      -9.281 -10.185  -3.365  0.00  0.00    +0.000 A 
ATOM     38  C   UNL     1      -9.445 -11.341  -2.624  0.00  0.00    +0.000 A 
ATOM     39  C   UNL     1      -8.935 -11.418  -1.342  0.00  0.00    +0.005 A 
ENDBRANCH  33  34
ENDBRANCH   5  33
TORSDOF 9
