REMARK  Name = ZINC05231356
REMARK  9 active torsions:
REMARK  status: ('A' for Active; 'I' for Inactive)
REMARK    1  A    between atoms: C_1  and  C_2
REMARK    2  A    between atoms: C_2  and  C_24
REMARK    3  A    between atoms: C_4  and  N_10
REMARK    4  A    between atoms: C_6  and  C_8
REMARK    5  A    between atoms: C_6  and  C_9
REMARK    6  A    between atoms: N_10  and  C_11
REMARK    7  A    between atoms: C_14  and  S_20
REMARK    8  A    between atoms: C_16  and  N_17
REMARK    9  A    between atoms: S_20  and  N_23
REMARK                            x       y       z     vdW  Elec       q    Type
REMARK                         _______ _______ _______ _____ _____    ______ ____
ROOT
ATOM      1  C   UNL     1       3.700  -0.150  -3.307  0.00  0.00    +0.058 A 
ATOM      2  C   UNL     1       4.341   0.906  -2.672  0.00  0.00    +0.027 A 
ATOM      3  C   UNL     1       5.637   1.234  -3.019  0.00  0.00    +0.030 A 
ATOM      4  C   UNL     1       6.296   0.513  -3.998  0.00  0.00    +0.107 A 
ATOM      5  C   UNL     1       5.660  -0.539  -4.633  0.00  0.00    +0.063 A 
ATOM      6  C   UNL     1       4.366  -0.876  -4.286  0.00  0.00    +0.149 A 
ENDROOT
BRANCH   6   7
ATOM      7  N   UNL     1       3.689  -2.005  -4.961  0.00  0.00    +0.058 N 
ATOM      8  O   UNL     1       2.955  -2.733  -4.333  0.00  0.00    -0.126 OA
ATOM      9  O   UNL     1       3.869  -2.201  -6.140  0.00  0.00    -0.126 OA
ENDBRANCH   6   7
BRANCH   4  10
ATOM     10  S   UNL     1       7.949   0.935  -4.439  0.00  0.00    +0.056 S 
ATOM     11  O   UNL     1       8.151   0.457  -5.762  0.00  0.00    -0.153 OA
ATOM     12  O   UNL     1       8.127   2.300  -4.086  0.00  0.00    -0.153 OA
BRANCH  10  13
ATOM     13  N   UNL     1       8.956   0.057  -3.460  0.00  0.00    -0.204 NA
ATOM     14  H   UNL     1       8.584  -0.548  -2.799  0.00  0.00    +0.144 HD
ATOM     15  H   UNL     1       9.918   0.149  -3.546  0.00  0.00    +0.144 HD
ENDBRANCH  10  13
ENDBRANCH   4  10
BRANCH   1  16
ATOM     16  N   UNL     1       2.390  -0.485  -2.957  0.00  0.00    -0.339 N 
ATOM     17  H   UNL     1       1.914  -1.168  -3.456  0.00  0.00    +0.146 HD
BRANCH  16  21
ATOM     18  C   UNL     1      -0.347   2.338  -0.973  0.00  0.00    -0.010 C 
ATOM     19  C   UNL     1      -0.494   0.817  -0.862  0.00  0.00    -0.072 C 
ATOM     20  C   UNL     1       0.217   0.143  -2.031  0.00  0.00    +0.009 C 
ATOM     21  C   UNL     1       1.732   0.196  -1.835  0.00  0.00    +0.068 C 
ATOM     22  C   UNL     1       2.070  -0.534  -0.535  0.00  0.00    +0.009 C 
ATOM     23  C   UNL     1       1.373   0.134   0.646  0.00  0.00    -0.072 C 
ATOM     24  N   UNL     1      -0.049   0.337   0.434  0.00  0.00    +0.386 N 
ATOM     25  C   UNL     1       2.079   1.450   0.987  0.00  0.00    -0.010 C 
ATOM     26  C   UNL     1       1.538  -0.799   1.868  0.00  0.00    -0.010 C 
ATOM     27  C   UNL     1      -2.001   0.496  -0.991  0.00  0.00    -0.010 C 
ATOM     28  H   UNL     1      -0.391   0.985   1.151  0.00  0.00    -0.084 HD
ATOM     29  H   UNL     1      -0.531  -0.546   0.631  0.00  0.00    -0.084 HD
ENDBRANCH  16  21
ENDBRANCH   1  16
TORSDOF 5
