REMARK  Name = ZINC41094062
REMARK  7 active torsions:
REMARK  status: ('A' for Active; 'I' for Inactive)
REMARK    1  A    between atoms: C_3  and  C_19
REMARK    2  A    between atoms: C_6  and  C_7
REMARK    3  A    between atoms: C_7  and  O_8
REMARK    4  A    between atoms: O_8  and  C_9
REMARK    5  A    between atoms: C_9  and  C_11
REMARK    6  A    between atoms: C_14  and  N_18
REMARK    7  A    between atoms: C_16  and  N_17
REMARK                            x       y       z     vdW  Elec       q    Type
REMARK                         _______ _______ _______ _____ _____    ______ ____
ROOT
ATOM      1  C   UNL     1      -2.857  -1.705  -1.504  0.00  0.00    +0.341 C 
ATOM      2  O   UNL     1      -3.493  -2.073  -0.534  0.00  0.00    -0.245 OA
ENDROOT
BRANCH   1   3
ATOM      3  C   UNL     1      -3.361  -1.975  -2.858  0.00  0.00    +0.080 A 
ATOM      4  C   UNL     1      -2.698  -1.447  -3.972  0.00  0.00    +0.018 A 
ATOM      5  C   UNL     1      -3.165  -1.698  -5.229  0.00  0.00    +0.023 A 
ATOM      6  C   UNL     1      -4.305  -2.479  -5.415  0.00  0.00    +0.026 A 
ATOM      7  C   UNL     1      -4.976  -3.011  -4.322  0.00  0.00    +0.046 A 
ATOM      8  C   UNL     1      -4.507  -2.769  -3.040  0.00  0.00    +0.040 A 
BRANCH   8   9
ATOM      9  N   UNL     1      -5.169  -3.303  -1.942  0.00  0.00    -0.357 N 
ATOM     10  H   UNL     1      -4.889  -3.064  -1.044  0.00  0.00    +0.142 HD
ATOM     11  H   UNL     1      -5.910  -3.914  -2.072  0.00  0.00    +0.142 HD
ENDBRANCH   8   9
BRANCH   6  12
ATOM     12  N   UNL     1      -4.772  -2.727  -6.701  0.00  0.00    -0.358 N 
ATOM     13  H   UNL     1      -4.305  -2.357  -7.466  0.00  0.00    +0.142 HD
ATOM     14  H   UNL     1      -5.564  -3.271  -6.833  0.00  0.00    +0.142 HD
ENDBRANCH   6  12
ENDBRANCH   1   3
BRANCH   1  15
ATOM     15  O   UNL     1      -1.691  -1.049  -1.336  0.00  0.00    -0.456 OA
BRANCH  15  16
ATOM     16  C   UNL     1      -1.262  -0.822   0.008  0.00  0.00    +0.268 C 
BRANCH  16  22
ATOM     17  C   UNL     1       0.061   1.302   0.004  0.00  0.00    +0.008 A 
ATOM     18  C   UNL     1       1.259   1.986  -0.005  0.00  0.00    +0.019 A 
ATOM     19  C   UNL     1       2.463   1.278  -0.020  0.00  0.00    +0.052 A 
ATOM     20  C   UNL     1       2.445  -0.118  -0.026  0.00  0.00    +0.019 A 
ATOM     21  C   UNL     1       1.240  -0.789  -0.017  0.00  0.00    +0.008 A 
ATOM     22  C   UNL     1       0.051  -0.082  -0.002  0.00  0.00    -0.010 A 
BRANCH  19  23
ATOM     23  C   UNL     1       3.711   1.981  -0.030  0.00  0.00    +0.099 C 
ATOM     24  N   UNL     1       4.700   2.539  -0.037  0.00  0.00    -0.191 NA
ENDBRANCH  19  23
ENDBRANCH  16  22
ENDBRANCH  15  16
ENDBRANCH   1  15
TORSDOF 7
