REMARK  Name = ZINC62494383
REMARK  3 active torsions:
REMARK  status: ('A' for Active; 'I' for Inactive)
REMARK    1  A    between atoms: C_10  and  N_11
REMARK    2  A    between atoms: C_12  and  C_16
REMARK    3  A    between atoms: C_19  and  N_22
REMARK                            x       y       z     vdW  Elec       q    Type
REMARK                         _______ _______ _______ _____ _____    ______ ____
ROOT
ATOM      1  N   UNL     1       4.894   0.091  -0.224  0.00  0.00    -0.192 N 
ATOM      2  C   UNL     1       6.140  -0.403   0.031  0.00  0.00    +0.187 A 
ATOM      3  N   UNL     1       6.942   0.634   0.165  0.00  0.00    -0.108 NA
ATOM      4  N   UNL     1       6.291   1.730   0.013  0.00  0.00    -0.022 NA
ATOM      5  N   UNL     1       5.048   1.489  -0.231  0.00  0.00    -0.039 NA
ENDROOT
BRANCH   1  15
ATOM      6  C   UNL     1       0.342  -0.028   1.958  0.00  0.00    +0.001 A 
ATOM      7  C   UNL     1       1.503   0.707   2.188  0.00  0.00    +0.001 A 
ATOM      8  C   UNL     1       2.612   0.524   1.419  0.00  0.00    +0.010 A 
ATOM      9  C   UNL     1       2.588  -0.418   0.379  0.00  0.00    +0.008 A 
ATOM     10  C   UNL     1       1.408  -1.166   0.144  0.00  0.00    -0.016 A 
ATOM     11  C   UNL     1       0.283  -0.950   0.958  0.00  0.00    +0.008 A 
ATOM     12  C   UNL     1       1.383  -2.110  -0.897  0.00  0.00    +0.008 A 
ATOM     13  C   UNL     1       2.489  -2.300  -1.669  0.00  0.00    +0.003 A 
ATOM     14  C   UNL     1       3.653  -1.571  -1.447  0.00  0.00    +0.028 A 
ATOM     15  C   UNL     1       3.718  -0.635  -0.438  0.00  0.00    +0.077 A 
ENDBRANCH   1  15
BRANCH   2  16
ATOM     16  C   UNL     1       6.518  -1.828   0.138  0.00  0.00    +0.021 A 
ATOM     17  C   UNL     1       5.539  -2.795   0.375  0.00  0.00    +0.013 A 
ATOM     18  C   UNL     1       5.894  -4.122   0.474  0.00  0.00    +0.023 A 
ATOM     19  C   UNL     1       7.226  -4.499   0.338  0.00  0.00    +0.025 A 
ATOM     20  C   UNL     1       8.203  -3.538   0.102  0.00  0.00    +0.023 A 
ATOM     21  C   UNL     1       7.854  -2.210  -0.003  0.00  0.00    +0.013 A 
BRANCH  19  22
ATOM     22  N   UNL     1       7.583  -5.843   0.440  0.00  0.00    -0.358 N 
ATOM     23  H   UNL     1       6.902  -6.515   0.604  0.00  0.00    +0.142 HD
ATOM     24  H   UNL     1       8.511  -6.107   0.345  0.00  0.00    +0.142 HD
ENDBRANCH  19  22
ENDBRANCH   2  16
TORSDOF 3
