REMARK  Name = ZINC01375677
REMARK  7 active torsions:
REMARK  status: ('A' for Active; 'I' for Inactive)
REMARK    1  A    between atoms: C_1  and  C_2
REMARK    2  A    between atoms: C_11  and  S_18
REMARK    3  A    between atoms: C_13  and  C_15
REMARK    4  A    between atoms: C_15  and  C_16
REMARK    5  A    between atoms: C_15  and  C_17
REMARK    6  A    between atoms: S_18  and  C_19
REMARK    7  A    between atoms: C_19  and  C_20
REMARK                            x       y       z     vdW  Elec       q    Type
REMARK                         _______ _______ _______ _____ _____    ______ ____
ROOT
ATOM      1  C   UNL     1      -5.302  -2.304   0.124  0.00  0.00    +0.008 C 
ATOM      2  C   UNL     1      -3.897  -1.769   0.405  0.00  0.00    -0.009 C 
ATOM      3  C   UNL     1      -2.877  -2.530  -0.446  0.00  0.00    +0.008 C 
ATOM      4  C   UNL     1      -1.458  -2.178   0.004  0.00  0.00    +0.037 C 
ATOM      5  C   UNL     1      -1.307  -0.659   0.011  0.00  0.00    -0.025 A 
ATOM      6  C   UNL     1      -2.392   0.141   0.026  0.00  0.00    -0.004 A 
ATOM      7  S   UNL     1      -1.748   1.793   0.021  0.00  0.00    -0.073 S 
ATOM      8  C   UNL     1      -0.017   1.405   0.010  0.00  0.00    +0.113 A 
ATOM      9  C   UNL     1       0.002  -0.004   0.002  0.00  0.00    +0.043 A 
ATOM     10  C   UNL     1       1.295  -0.598  -0.013  0.00  0.00    +0.109 A 
ATOM     11  N   UNL     1       2.363   0.186  -0.019  0.00  0.00    -0.225 NA
ATOM     12  C   UNL     1       2.269   1.503  -0.011  0.00  0.00    +0.134 A 
ATOM     13  N   UNL     1       1.098   2.110   0.003  0.00  0.00    -0.225 NA
ATOM     14  C   UNL     1      -3.830  -0.279   0.038  0.00  0.00    +0.046 C 
ENDROOT
BRANCH  12  15
ATOM     15  C   UNL     1       3.528   2.332  -0.017  0.00  0.00    +0.051 C 
ATOM     16  C   UNL     1       4.362   2.003   1.223  0.00  0.00    +0.015 C 
ATOM     17  C   UNL     1       4.340   2.016  -1.276  0.00  0.00    +0.015 C 
ENDBRANCH  12  15
BRANCH  10  18
ATOM     18  S   UNL     1       1.474  -2.350  -0.024  0.00  0.00    -0.096 S 
BRANCH  18  19
ATOM     19  C   UNL     1       3.279  -2.483  -0.042  0.00  0.00    +0.172 C 
BRANCH  19  20
ATOM     20  C   UNL     1       3.676  -3.937  -0.053  0.00  0.00    +0.230 C 
ATOM     21  O   UNL     1       2.822  -4.798  -0.049  0.00  0.00    -0.274 OA
ATOM     22  N   UNL     1       4.979  -4.279  -0.067  0.00  0.00    -0.270 N 
ATOM     23  C   UNL     1       5.486  -5.654  -0.073  0.00  0.00    +0.118 C 
ATOM     24  C   UNL     1       7.018  -5.518  -0.093  0.00  0.00    +0.056 C 
ATOM     25  C   UNL     1       7.268  -4.027  -0.087  0.00  0.00    -0.024 A 
ATOM     26  C   UNL     1       6.046  -3.374  -0.072  0.00  0.00    +0.040 A 
ATOM     27  C   UNL     1       6.022  -1.979  -0.064  0.00  0.00    +0.024 A 
ATOM     28  C   UNL     1       7.201  -1.264  -0.071  0.00  0.00    +0.002 A 
ATOM     29  C   UNL     1       8.416  -1.924  -0.086  0.00  0.00    +0.000 A 
ATOM     30  C   UNL     1       8.447  -3.307  -0.094  0.00  0.00    +0.005 A 
ENDBRANCH  19  20
ENDBRANCH  18  19
ENDBRANCH  10  18
TORSDOF 4
