REMARK  Name = ZINC09251429
REMARK  4 active torsions:
REMARK  status: ('A' for Active; 'I' for Inactive)
REMARK    1  A    between atoms: C_1  and  C_2
REMARK    2  A    between atoms: C_21  and  C_22
REMARK    3  A    between atoms: N_24  and  C_25
REMARK    4  A    between atoms: C_25  and  C_26
REMARK                            x       y       z     vdW  Elec       q    Type
REMARK                         _______ _______ _______ _____ _____    ______ ____
ROOT
ATOM      1  C   UNL     1      -2.814  -0.133   0.009  0.00  0.00    +0.048 C 
ATOM      2  C   UNL     1      -2.525   1.346   0.021  0.00  0.00    +0.008 A 
ATOM      3  C   UNL     1      -3.382   2.368   0.493  0.00  0.00    +0.038 A 
ATOM      4  C   UNL     1      -2.700   3.580   0.296  0.00  0.00    +0.137 A 
ATOM      5  C   UNL     1      -3.308   4.775   0.670  0.00  0.00    +0.050 A 
ATOM      6  C   UNL     1      -4.559   4.780   1.245  0.00  0.00    +0.050 A 
ATOM      7  C   UNL     1      -5.254   3.591   1.460  0.00  0.00    +0.133 A 
ATOM      8  C   UNL     1      -4.670   2.379   1.070  0.00  0.00    +0.070 A 
ATOM      9  C   UNL     1      -5.424   1.142   1.268  0.00  0.00    +0.171 C 
ATOM     10  O   UNL     1      -5.031   0.097   0.792  0.00  0.00    -0.292 OA
ATOM     11  C   UNL     1      -6.694   1.185   2.071  0.00  0.00    +0.127 C 
ATOM     12  C   UNL     1      -7.399   2.538   1.894  0.00  0.00    +0.118 C 
ATOM     13  O   UNL     1      -6.469   3.611   2.034  0.00  0.00    -0.485 OA
ATOM     14  C   UNL     1      -8.394   2.667   3.080  0.00  0.00    +0.048 C 
ATOM     15  C   UNL     1      -8.789   4.102   3.253  0.00  0.00    +0.004 C 
ATOM     16  C   UNL     1     -10.098   4.459   2.515  0.00  0.00    +0.000 C 
ATOM     17  C   UNL     1     -10.178   3.834   1.111  0.00  0.00    +0.000 C 
ATOM     18  C   UNL     1      -8.858   3.914   0.389  0.00  0.00    +0.004 C 
ATOM     19  C   UNL     1      -8.104   2.595   0.614  0.00  0.00    +0.048 C 
ATOM     20  O   UNL     1      -1.500   3.285  -0.245  0.00  0.00    -0.450 OA
ATOM     21  C   UNL     1      -1.391   1.952  -0.418  0.00  0.00    +0.193 A 
ENDROOT
BRANCH  21  22
ATOM     22  C   UNL     1      -0.224   1.261  -0.989  0.00  0.00    +0.280 C 
ATOM     23  O   UNL     1      -0.227   0.050  -1.096  0.00  0.00    -0.267 OA
ATOM     24  N   UNL     1       0.846   1.972  -1.398  0.00  0.00    -0.305 N 
ATOM     25  H   UNL     1       0.848   2.938  -1.312  0.00  0.00    +0.149 HD
BRANCH  24  26
ATOM     26  C   UNL     1       2.005   1.284  -1.971  0.00  0.00    +0.140 C 
BRANCH  26  27
ATOM     27  C   UNL     1       3.056   2.298  -2.345  0.00  0.00    -0.030 A 
ATOM     28  C   UNL     1       3.059   2.856  -3.610  0.00  0.00    +0.008 A 
ATOM     29  C   UNL     1       4.019   3.789  -3.952  0.00  0.00    +0.038 A 
ATOM     30  C   UNL     1       4.985   4.157  -3.030  0.00  0.00    +0.123 A 
ATOM     31  C   UNL     1       4.984   3.594  -1.765  0.00  0.00    +0.038 A 
ATOM     32  C   UNL     1       4.020   2.665  -1.424  0.00  0.00    +0.008 A 
ATOM     33  F   UNL     1       5.927   5.066  -3.365  0.00  0.00    -0.205 F 
ENDBRANCH  26  27
ENDBRANCH  24  26
ENDBRANCH  21  22
TORSDOF 3
