REMARK  Name = ZINC43090688
REMARK  5 active torsions:
REMARK  status: ('A' for Active; 'I' for Inactive)
REMARK    1  A    between atoms: C_1  and  C_2
REMARK    2  A    between atoms: C_2  and  C_4
REMARK    3  A    between atoms: C_2  and  N_23
REMARK    4  A    between atoms: C_4  and  C_6
REMARK    5  A    between atoms: C_4  and  N_13
REMARK                            x       y       z     vdW  Elec       q    Type
REMARK                         _______ _______ _______ _____ _____    ______ ____
ROOT
ATOM      1  C   UNL     1       0.742  -0.511   1.242  0.00  0.00    +0.090 C 
ENDROOT
BRANCH   1   2
ATOM      2  N   UNL     1       0.327   0.079   2.517  0.00  0.00    -0.324 N 
ATOM      3  C   UNL     1      -0.983  -0.247   3.099  0.00  0.00    +0.106 C 
ATOM      4  C   UNL     1      -1.616   1.062   3.589  0.00  0.00    +0.024 C 
ATOM      5  C   UNL     1      -0.742   1.648   4.698  0.00  0.00    +0.038 C 
ATOM      6  C   UNL     1       0.693   1.732   4.249  0.00  0.00    -0.026 A 
ATOM      7  C   UNL     1       1.173   0.957   3.203  0.00  0.00    +0.033 A 
ATOM      8  C   UNL     1       2.506   1.051   2.820  0.00  0.00    +0.023 A 
ATOM      9  C   UNL     1       3.356   1.913   3.482  0.00  0.00    +0.002 A 
ATOM     10  C   UNL     1       2.880   2.684   4.527  0.00  0.00    +0.000 A 
ATOM     11  C   UNL     1       1.550   2.600   4.904  0.00  0.00    +0.005 A 
ENDBRANCH   1   2
BRANCH   1  12
ATOM     12  C   UNL     1       0.937  -1.995   1.414  0.00  0.00    -0.015 A 
ATOM     13  C   UNL     1       0.066  -2.719   2.207  0.00  0.00    +0.006 A 
ATOM     14  C   UNL     1       0.244  -4.081   2.365  0.00  0.00    +0.000 A 
ATOM     15  C   UNL     1       1.293  -4.719   1.731  0.00  0.00    +0.001 A 
ATOM     16  C   UNL     1       2.165  -3.996   0.938  0.00  0.00    +0.015 A 
ATOM     17  C   UNL     1       1.984  -2.635   0.775  0.00  0.00    +0.023 A 
ATOM     18 BR   UNL     1       3.171  -1.646  -0.315  0.00  0.00    -0.050 Br
ENDBRANCH   1  12
BRANCH   1  20
ATOM     19  C   UNL     1      -0.514   1.250  -0.009  0.00  0.00    -0.012 C 
ATOM     20  C   UNL     1      -0.337  -0.257   0.187  0.00  0.00    -0.053 C 
BRANCH  20  21
ATOM     21  N   UNL     1       0.067  -0.873  -1.085  0.00  0.00    +0.381 N 
ATOM     22  H   UNL     1       0.184  -1.866  -0.955  0.00  0.00    -0.090 HD
ATOM     23  H   UNL     1      -0.645  -0.705  -1.780  0.00  0.00    -0.090 HD
ATOM     24  H   UNL     1       0.939  -0.469  -1.392  0.00  0.00    -0.090 HD
ENDBRANCH  20  21
ENDBRANCH   1  20
TORSDOF 4
