REMARK  Name = ZINC63211532
REMARK  6 active torsions:
REMARK  status: ('A' for Active; 'I' for Inactive)
REMARK    1  A    between atoms: C_1  and  C_2
REMARK    2  A    between atoms: C_3  and  C_8
REMARK    3  A    between atoms: C_4  and  C_7
REMARK    4  A    between atoms: C_8  and  C_9
REMARK    5  A    between atoms: N_11  and  C_12
REMARK    6  A    between atoms: C_19  and  N_21
REMARK                            x       y       z     vdW  Elec       q    Type
REMARK                         _______ _______ _______ _____ _____    ______ ____
ROOT
ATOM      1  C   UNL     1       1.807   0.541  -2.646  0.00  0.00    +0.218 C 
ATOM      2  O   UNL     1       2.819   0.615  -1.982  0.00  0.00    -0.275 OA
ATOM      3  N   UNL     1       1.882   0.543  -3.992  0.00  0.00    -0.314 N 
ATOM      4  H   UNL     1       1.073   0.483  -4.523  0.00  0.00    +0.149 HD
ENDROOT
BRANCH   3   5
ATOM      5  C   UNL     1       3.187   0.635  -4.652  0.00  0.00    +0.058 C 
ATOM      6  C   UNL     1       3.751  -0.786  -4.842  0.00  0.00    +0.020 C 
ATOM      7  C   UNL     1       4.883  -0.845  -5.885  0.00  0.00    +0.002 C 
ATOM      8  C   UNL     1       5.837   0.313  -5.766  0.00  0.00    +0.000 C 
ATOM      9  C   UNL     1       5.386   1.421  -6.739  0.00  0.00    -0.002 C 
ATOM     10  C   UNL     1       4.287   2.213  -6.207  0.00  0.00    -0.014 C 
ATOM     11  C   UNL     1       3.021   1.365  -5.957  0.00  0.00    -0.055 C 
BRANCH  11  12
ATOM     12  N   UNL     1       1.846   2.244  -5.885  0.00  0.00    +0.381 N 
ATOM     13  H   UNL     1       1.918   2.836  -5.072  0.00  0.00    -0.090 HD
ATOM     14  H   UNL     1       1.802   2.817  -6.715  0.00  0.00    -0.090 HD
ATOM     15  H   UNL     1       1.010   1.683  -5.819  0.00  0.00    -0.090 HD
ENDBRANCH  11  12
ENDBRANCH   3   5
BRANCH   1  16
ATOM     16  C   UNL     1       0.465   0.446  -1.966  0.00  0.00    +0.136 C 
BRANCH  16  19
ATOM     17  C   UNL     1       0.518   3.032  -0.124  0.00  0.00    +0.069 C 
ATOM     18  C   UNL     1       0.680   1.608   0.344  0.00  0.00    +0.084 A 
ATOM     19  C   UNL     1       0.657   0.463  -0.472  0.00  0.00    +0.026 A 
ATOM     20  C   UNL     1       0.835  -0.616   0.315  0.00  0.00    +0.138 A 
ATOM     21  O   UNL     1       0.968  -0.189   1.580  0.00  0.00    -0.359 OA
ATOM     22  N   UNL     1       0.872   1.224   1.575  0.00  0.00    -0.083 NA
ATOM     23  C   UNL     1       0.878  -2.050  -0.145  0.00  0.00    +0.089 C 
ENDBRANCH  16  19
ENDBRANCH   1  16
TORSDOF 4
