REMARK  Name = ZINC35957492
REMARK  10 active torsions:
REMARK  status: ('A' for Active; 'I' for Inactive)
REMARK    1  A    between atoms: C_1  and  C_2
REMARK    2  A    between atoms: C_2  and  C_3
REMARK    3  A    between atoms: C_2  and  C_4
REMARK    4  A    between atoms: C_4  and  C_5
REMARK    5  A    between atoms: C_5  and  N_6
REMARK    6  A    between atoms: C_19  and  C_22
REMARK    7  A    between atoms: N_24  and  C_25
REMARK    8  A    between atoms: C_25  and  C_27
REMARK    9  A    between atoms: C_25  and  C_34
REMARK   10  A    between atoms: C_27  and  C_28
REMARK                            x       y       z     vdW  Elec       q    Type
REMARK                         _______ _______ _______ _____ _____    ______ ____
ROOT
ATOM      1  N   UNL     1      -4.045  -1.824  -0.318  0.00  0.00    -0.313 N 
ATOM      2  C   UNL     1      -4.213  -2.459   0.901  0.00  0.00    +0.068 A 
ATOM      3  C   UNL     1      -4.574  -2.028   2.169  0.00  0.00    +0.028 A 
ATOM      4  C   UNL     1      -4.653  -2.935   3.206  0.00  0.00    +0.002 A 
ATOM      5  C   UNL     1      -4.374  -4.276   2.989  0.00  0.00    +0.002 A 
ATOM      6  C   UNL     1      -4.013  -4.722   1.738  0.00  0.00    +0.028 A 
ATOM      7  C   UNL     1      -3.929  -3.817   0.677  0.00  0.00    +0.065 A 
ATOM      8  N   UNL     1      -3.608  -3.946  -0.638  0.00  0.00    -0.327 N 
ATOM      9  C   UNL     1      -3.681  -2.778  -1.225  0.00  0.00    +0.177 A 
ATOM     10  N   UNL     1      -3.426  -2.545  -2.560  0.00  0.00    -0.302 N 
ATOM     11  C   UNL     1      -2.080  -2.163  -3.010  0.00  0.00    +0.108 C 
ATOM     12  C   UNL     1      -1.639  -3.125  -4.118  0.00  0.00    +0.020 C 
ATOM     13  C   UNL     1      -2.693  -3.136  -5.227  0.00  0.00    +0.016 C 
ATOM     14  C   UNL     1      -4.027  -3.630  -4.662  0.00  0.00    +0.092 C 
ATOM     15  C   UNL     1      -4.493  -2.679  -3.561  0.00  0.00    +0.120 C 
ATOM     16  H   UNL     1      -3.366  -4.777  -1.075  0.00  0.00    +0.169 HD
ENDROOT
BRANCH  14  17
ATOM     17  C   UNL     1      -5.055  -3.671  -5.763  0.00  0.00    +0.218 C 
ATOM     18  O   UNL     1      -6.065  -3.005  -5.675  0.00  0.00    -0.275 OA
ATOM     19  N   UNL     1      -4.853  -4.449  -6.845  0.00  0.00    -0.308 N 
ATOM     20  H   UNL     1      -4.046  -4.982  -6.915  0.00  0.00    +0.149 HD
BRANCH  19  21
ATOM     21  C   UNL     1      -5.853  -4.490  -7.915  0.00  0.00    +0.107 C 
BRANCH  21  22
ATOM     22  C   UNL     1      -6.918  -5.498  -7.569  0.00  0.00    -0.027 A 
ATOM     23  C   UNL     1      -6.569  -6.697  -6.976  0.00  0.00    +0.005 A 
ATOM     24  C   UNL     1      -7.547  -7.622  -6.658  0.00  0.00    +0.000 A 
ATOM     25  C   UNL     1      -8.873  -7.347  -6.933  0.00  0.00    +0.000 A 
ATOM     26  C   UNL     1      -9.223  -6.147  -7.525  0.00  0.00    +0.000 A 
ATOM     27  C   UNL     1      -8.245  -5.221  -7.838  0.00  0.00    +0.005 A 
ENDBRANCH  21  22
BRANCH  21  28
ATOM     28  C   UNL     1      -5.178  -4.892  -9.228  0.00  0.00    +0.062 C 
BRANCH  28  29
ATOM     29  C   UNL     1      -4.199  -3.822  -9.637  0.00  0.00    -0.045 A 
ATOM     30  C   UNL     1      -4.616  -2.772 -10.435  0.00  0.00    +0.004 A 
ATOM     31  C   UNL     1      -3.717  -1.791 -10.810  0.00  0.00    +0.000 A 
ATOM     32  C   UNL     1      -2.403  -1.859 -10.389  0.00  0.00    +0.000 A 
ATOM     33  C   UNL     1      -1.986  -2.908  -9.590  0.00  0.00    +0.000 A 
ATOM     34  C   UNL     1      -2.886  -3.887  -9.211  0.00  0.00    +0.004 A 
ENDBRANCH  28  29
ENDBRANCH  21  28
ENDBRANCH  19  21
ENDBRANCH  14  17
BRANCH   1  35
ATOM     35  C   UNL     1      -4.229  -0.395  -0.586  0.00  0.00    +0.125 C 
BRANCH  35  36
ATOM     36  C   UNL     1      -5.706  -0.116  -0.870  0.00  0.00    +0.024 C 
BRANCH  36  38
ATOM     37  C   UNL     1      -7.351   1.635  -1.556  0.00  0.00    +0.007 C 
ATOM     38  C   UNL     1      -5.899   1.376  -1.150  0.00  0.00    -0.016 C 
ATOM     39  C   UNL     1      -5.570   2.178   0.111  0.00  0.00    +0.007 C 
ENDBRANCH  36  38
ENDBRANCH  35  36
ENDBRANCH   1  35
TORSDOF 8
