REMARK  Name = ZINC13362589
REMARK  4 active torsions:
REMARK  status: ('A' for Active; 'I' for Inactive)
REMARK    1  A    between atoms: C_1  and  N_2
REMARK    2  A    between atoms: C_11  and  C_24
REMARK    3  A    between atoms: N_13  and  C_18
REMARK    4  A    between atoms: N_26  and  C_27
REMARK                            x       y       z     vdW  Elec       q    Type
REMARK                         _______ _______ _______ _____ _____    ______ ____
ROOT
ATOM      1  C   UNL     1      -1.385   4.111   4.715  0.00  0.00    +0.149 C 
ATOM      2  N   UNL     1      -1.145   2.992   5.630  0.00  0.00    -0.344 N 
ATOM      3  C   UNL     1      -2.105   2.392   6.395  0.00  0.00    +0.050 A 
ATOM      4  C   UNL     1      -3.481   2.557   6.541  0.00  0.00    +0.026 A 
ATOM      5  C   UNL     1      -4.169   1.761   7.431  0.00  0.00    +0.002 A 
ATOM      6  C   UNL     1      -3.509   0.800   8.184  0.00  0.00    +0.001 A 
ATOM      7  C   UNL     1      -2.159   0.625   8.056  0.00  0.00    +0.011 A 
ATOM      8  C   UNL     1      -1.448   1.423   7.160  0.00  0.00    +0.014 A 
ATOM      9  C   UNL     1      -0.008   1.493   6.788  0.00  0.00    +0.039 A 
ATOM     10  C   UNL     1       0.106   2.382   5.844  0.00  0.00    +0.063 A 
ATOM     11  C   UNL     1       1.236   2.864   4.977  0.00  0.00    +0.210 C 
ATOM     12  N   UNL     1       2.516   2.207   5.064  0.00  0.00    -0.281 N 
ATOM     13  C   UNL     1       2.813   1.217   5.727  0.00  0.00    +0.227 C 
ATOM     14  O   UNL     1       3.994   1.300   5.990  0.00  0.00    -0.275 OA
ATOM     15  C   UNL     1       2.308  -0.046   6.340  0.00  0.00    +0.170 C 
ATOM     16  S   UNL     1       1.139   0.430   7.654  0.00  0.00    -0.113 S 
ENDROOT
BRANCH  12  17
ATOM     17  C   UNL     1       3.595   2.793   4.265  0.00  0.00    +0.077 C 
ATOM     18  C   UNL     1       3.647   4.303   4.506  0.00  0.00    +0.022 C 
ATOM     19  C   UNL     1       4.774   4.914   3.671  0.00  0.00    +0.002 C 
ATOM     20  C   UNL     1       4.513   4.643   2.188  0.00  0.00    +0.000 C 
ATOM     21  C   UNL     1       4.462   3.134   1.946  0.00  0.00    +0.002 C 
ATOM     22  C   UNL     1       3.335   2.522   2.782  0.00  0.00    +0.022 C 
ENDBRANCH  12  17
BRANCH  11  23
ATOM     23  C   UNL     1       0.777   2.776   3.544  0.00  0.00    +0.240 C 
ATOM     24  O   UNL     1       0.567   3.788   2.911  0.00  0.00    -0.273 OA
ATOM     25  N   UNL     1       0.600   1.571   2.967  0.00  0.00    -0.311 N 
ATOM     26  H   UNL     1       0.732   0.761   3.484  0.00  0.00    +0.149 HD
BRANCH  25  27
ATOM     27  C   UNL     1       0.208   1.484   1.558  0.00  0.00    +0.073 C 
ATOM     28  C   UNL     1       1.321   0.831   0.783  0.00  0.00    +0.022 C 
ATOM     29  C   UNL     1       1.385   1.473  -0.618  0.00  0.00    +0.002 C 
ATOM     30  C   UNL     1       0.380   0.931  -1.520  0.00  0.00    +0.000 C 
ATOM     31  C   UNL     1      -1.058   1.197  -1.027  0.00  0.00    +0.000 C 
ATOM     32  C   UNL     1      -1.395   0.183   0.032  0.00  0.00    +0.002 C 
ATOM     33  C   UNL     1      -1.116   0.703   1.456  0.00  0.00    +0.022 C 
ENDBRANCH  25  27
ENDBRANCH  11  23
TORSDOF 3
