REMARK  Name = ZINC09553695
REMARK  8 active torsions:
REMARK  status: ('A' for Active; 'I' for Inactive)
REMARK    1  A    between atoms: C_4  and  O_30
REMARK    2  A    between atoms: C_5  and  C_7
REMARK    3  A    between atoms: N_8  and  N_9
REMARK    4  A    between atoms: C_10  and  C_12
REMARK    5  A    between atoms: C_12  and  N_13
REMARK    6  A    between atoms: N_13  and  C_14
REMARK    7  A    between atoms: N_13  and  S_20
REMARK    8  A    between atoms: S_20  and  C_23
REMARK                            x       y       z     vdW  Elec       q    Type
REMARK                         _______ _______ _______ _____ _____    ______ ____
ROOT
ATOM      1  N   UNL     1       1.553   2.269  -0.001  0.00  0.00    -0.165 NA
ENDROOT
BRANCH   1   2
ATOM      2  C   UNL     1       2.262   2.488   1.263  0.00  0.00    +0.080 C 
ATOM      3  C   UNL     1       2.714   3.947   1.347  0.00  0.00    +0.020 C 
ATOM      4  C   UNL     1       3.454   4.176   2.667  0.00  0.00    +0.002 C 
ATOM      5  C   UNL     1       4.677   3.259   2.731  0.00  0.00    +0.000 C 
ATOM      6  C   UNL     1       4.225   1.800   2.646  0.00  0.00    +0.002 C 
ATOM      7  C   UNL     1       3.485   1.571   1.327  0.00  0.00    +0.020 C 
ENDBRANCH   1   2
BRANCH   1   8
ATOM      8  S   UNL     1      -0.022   1.758   0.012  0.00  0.00    +0.062 S 
ATOM      9  O   UNL     1      -0.590   2.163  -1.226  0.00  0.00    -0.153 OA
ATOM     10  O   UNL     1      -0.566   2.150   1.264  0.00  0.00    -0.153 OA
BRANCH   8  11
ATOM     11  C   UNL     1       0.002  -0.004   0.002  0.00  0.00    +0.106 A 
ATOM     12  C   UNL     1      -0.006  -0.689  -1.199  0.00  0.00    +0.030 A 
ATOM     13  C   UNL     1       0.019  -2.071  -1.207  0.00  0.00    +0.022 A 
ATOM     14  C   UNL     1       0.040  -2.769  -0.013  0.00  0.00    +0.041 A 
ATOM     15  C   UNL     1       0.042  -2.083   1.188  0.00  0.00    +0.022 A 
ATOM     16  C   UNL     1       0.023  -0.701   1.196  0.00  0.00    +0.030 A 
ATOM     17 CL   UNL     1       0.064  -4.505  -0.023  0.00  0.00    -0.084 Cl
ENDBRANCH   8  11
ENDBRANCH   1   8
BRANCH   1  18
ATOM     18  C   UNL     1       2.238   2.502  -1.275  0.00  0.00    +0.207 C 
BRANCH  18  20
ATOM     19  N   UNL     1       2.700   4.410  -2.779  0.00  0.00    -0.206 N 
ATOM     20  C   UNL     1       2.139   3.961  -1.639  0.00  0.00    +0.248 C 
ATOM     21  O   UNL     1       1.553   4.730  -0.906  0.00  0.00    -0.273 OA
ATOM     22  H   UNL     1       3.168   3.795  -3.365  0.00  0.00    +0.177 HD
BRANCH  19  24
ATOM     23  C   UNL     1       3.148   6.200  -4.215  0.00  0.00    +0.142 C 
ATOM     24  N   UNL     1       2.607   5.767  -3.118  0.00  0.00    -0.188 NA
BRANCH  23  29
ATOM     25  C   UNL     1       3.537   9.433  -6.079  0.00  0.00    +0.001 A 
ATOM     26  C   UNL     1       2.869  10.311  -5.243  0.00  0.00    +0.004 A 
ATOM     27  C   UNL     1       2.290   9.858  -4.072  0.00  0.00    +0.046 A 
ATOM     28  C   UNL     1       2.375   8.519  -3.728  0.00  0.00    +0.125 A 
ATOM     29  C   UNL     1       3.051   7.626  -4.572  0.00  0.00    +0.036 A 
ATOM     30  C   UNL     1       3.636   8.098  -5.749  0.00  0.00    +0.013 A 
BRANCH  28  31
ATOM     31  O   UNL     1       1.807   8.073  -2.578  0.00  0.00    -0.506 OA
ATOM     32  H   UNL     1       2.395   8.103  -1.811  0.00  0.00    +0.292 HD
ENDBRANCH  28  31
ENDBRANCH  23  29
ENDBRANCH  19  24
ENDBRANCH  18  20
ENDBRANCH   1  18
TORSDOF 8
