REMARK  Name = ZINC63558212
REMARK  6 active torsions:
REMARK  status: ('A' for Active; 'I' for Inactive)
REMARK    1  A    between atoms: C_1  and  C_2
REMARK    2  A    between atoms: C_5  and  C_24
REMARK    3  A    between atoms: C_7  and  N_8
REMARK    4  A    between atoms: C_9  and  C_11
REMARK    5  A    between atoms: C_11  and  S_12
REMARK    6  A    between atoms: S_12  and  C_13
REMARK                            x       y       z     vdW  Elec       q    Type
REMARK                         _______ _______ _______ _____ _____    ______ ____
ROOT
ATOM      1  N   UNL     1       0.025  -0.007   2.417  0.00  0.00    -0.285 N 
ATOM      2  C   UNL     1      -0.057  -0.681   3.581  0.00  0.00    +0.227 C 
ATOM      3  O   UNL     1      -0.040  -1.894   3.581  0.00  0.00    -0.275 OA
ATOM      4  H   UNL     1       0.078   0.962   2.421  0.00  0.00    +0.155 HD
ENDROOT
BRANCH   1  11
ATOM      5  C   UNL     1      -1.266   1.183   0.183  0.00  0.00    +0.045 C 
ATOM      6  C   UNL     1      -0.586  -0.158   0.085  0.00  0.00    -0.029 A 
ATOM      7  C   UNL     1      -0.576  -0.839  -1.118  0.00  0.00    +0.006 A 
ATOM      8  C   UNL     1       0.044  -2.067  -1.216  0.00  0.00    +0.015 A 
ATOM      9  C   UNL     1       0.665  -2.627  -0.096  0.00  0.00    +0.065 A 
ATOM     10  C   UNL     1       0.654  -1.939   1.118  0.00  0.00    +0.038 A 
ATOM     11  C   UNL     1       0.033  -0.703   1.204  0.00  0.00    +0.037 A 
BRANCH   9  12
ATOM     12  C   UNL     1       1.329  -3.942  -0.197  0.00  0.00    +0.387 C 
ATOM     13  O   UNL     1       1.336  -4.543  -1.262  0.00  0.00    -0.241 OA
ATOM     14  O   UNL     1       1.871  -4.429   0.784  0.00  0.00    -0.241 OA
ENDBRANCH   9  12
ENDBRANCH   1  11
BRANCH   2  15
ATOM     15  C   UNL     1      -0.168   0.071   4.882  0.00  0.00    +0.169 C 
BRANCH  15  16
ATOM     16  S   UNL     1      -0.259  -1.109   6.257  0.00  0.00    -0.106 S 
BRANCH  16  17
ATOM     17  C   UNL     1      -0.388  -0.058   7.730  0.00  0.00    +0.236 C 
ATOM     18  N   UNL     1      -1.562   0.817   7.623  0.00  0.00    -0.355 N 
ATOM     19  C   UNL     1      -1.137   2.047   7.649  0.00  0.00    +0.061 A 
ATOM     20  C   UNL     1      -1.825   3.343   7.580  0.00  0.00    +0.029 A 
ATOM     21  C   UNL     1      -1.106   4.482   7.631  0.00  0.00    +0.022 A 
ATOM     22  C   UNL     1       0.296   4.488   7.750  0.00  0.00    +0.043 A 
ATOM     23  C   UNL     1       1.025   3.354   7.822  0.00  0.00    +0.047 A 
ATOM     24  C   UNL     1       0.346   2.053   7.775  0.00  0.00    +0.062 A 
ATOM     25  N   UNL     1       0.781   0.825   7.822  0.00  0.00    -0.355 N 
ATOM     26 CL   UNL     1       1.122   6.014   7.808  0.00  0.00    -0.083 Cl
ATOM     27  H   UNL     1      -2.486   0.531   7.547  0.00  0.00    +0.162 HD
ATOM     28  H   UNL     1       1.707   0.546   7.904  0.00  0.00    +0.162 HD
ENDBRANCH  16  17
ENDBRANCH  15  16
ENDBRANCH   2  15
TORSDOF 5
