REMARK  Name = ZINC15225539
REMARK  6 active torsions:
REMARK  status: ('A' for Active; 'I' for Inactive)
REMARK    1  A    between atoms: C_1  and  C_2
REMARK    2  A    between atoms: C_2  and  C_4
REMARK    3  A    between atoms: C_2  and  S_11
REMARK    4  A    between atoms: N_9  and  C_10
REMARK    5  A    between atoms: S_11  and  C_12
REMARK    6  A    between atoms: N_22  and  C_23
REMARK                            x       y       z     vdW  Elec       q    Type
REMARK                         _______ _______ _______ _____ _____    ______ ____
ROOT
ATOM      1  C   UNL     1      -2.713   0.473   1.428  0.00  0.00    +0.177 A 
ATOM      2  N   UNL     1      -1.956   1.195   2.217  0.00  0.00    -0.223 NA
ATOM      3  C   UNL     1      -2.027   1.081   3.564  0.00  0.00    +0.079 A 
ATOM      4  C   UNL     1      -1.221   1.850   4.408  0.00  0.00    +0.028 A 
ATOM      5  C   UNL     1      -1.326   1.703   5.762  0.00  0.00    +0.002 A 
ATOM      6  C   UNL     1      -2.224   0.799   6.316  0.00  0.00    +0.001 A 
ATOM      7  C   UNL     1      -3.025   0.032   5.516  0.00  0.00    +0.015 A 
ATOM      8  C   UNL     1      -2.939   0.162   4.131  0.00  0.00    +0.065 A 
ATOM      9  C   UNL     1      -3.776  -0.634   3.224  0.00  0.00    +0.267 A 
ATOM     10  O   UNL     1      -4.580  -1.442   3.652  0.00  0.00    -0.267 OA
ATOM     11  N   UNL     1      -3.624  -0.434   1.894  0.00  0.00    -0.255 N 
ENDROOT
BRANCH  11  12
ATOM     12  C   UNL     1      -4.403  -1.166   0.988  0.00  0.00    +0.052 A 
ATOM     13  C   UNL     1      -5.629  -0.670   0.565  0.00  0.00    +0.026 A 
ATOM     14  C   UNL     1      -6.394  -1.393  -0.329  0.00  0.00    +0.002 A 
ATOM     15  C   UNL     1      -5.940  -2.610  -0.803  0.00  0.00    +0.000 A 
ATOM     16  C   UNL     1      -4.720  -3.107  -0.384  0.00  0.00    +0.002 A 
ATOM     17  C   UNL     1      -3.947  -2.385   0.505  0.00  0.00    +0.026 A 
ENDBRANCH  11  12
BRANCH   1  18
ATOM     18  S   UNL     1      -2.555   0.686  -0.314  0.00  0.00    -0.075 S 
BRANCH  18  20
ATOM     19  C   UNL     1      -1.768   3.272   0.104  0.00  0.00    +0.029 C 
ATOM     20  C   UNL     1      -1.267   1.952  -0.486  0.00  0.00    +0.137 C 
BRANCH  20  21
ATOM     21  C   UNL     1      -0.944   2.144  -1.945  0.00  0.00    +0.233 C 
ATOM     22  O   UNL     1      -1.770   1.874  -2.790  0.00  0.00    -0.274 OA
ATOM     23  N   UNL     1       0.265   2.616  -2.311  0.00  0.00    -0.239 N 
ATOM     24  C   UNL     1       0.554   2.788  -3.616  0.00  0.00    +0.306 C 
ATOM     25  O   UNL     1      -0.275   2.518  -4.463  0.00  0.00    -0.252 OA
ATOM     26  N   UNL     1       1.762   3.261  -3.982  0.00  0.00    -0.302 N 
ATOM     27  C   UNL     1       2.077   3.448  -5.401  0.00  0.00    +0.129 C 
ATOM     28  H   UNL     1       0.926   2.833  -1.635  0.00  0.00    +0.159 HD
ATOM     29  H   UNL     1       2.424   3.477  -3.306  0.00  0.00    +0.150 HD
ENDBRANCH  20  21
ENDBRANCH  18  20
ENDBRANCH   1  18
TORSDOF 4
