REMARK  Name = ZINC08781295
REMARK  12 active torsions:
REMARK  status: ('A' for Active; 'I' for Inactive)
REMARK    1  A    between atoms: C_1  and  C_2
REMARK    2  A    between atoms: C_2  and  C_3
REMARK    3  A    between atoms: C_2  and  O_4
REMARK    4  A    between atoms: O_4  and  C_5
REMARK    5  A    between atoms: C_5  and  C_7
REMARK    6  A    between atoms: C_10  and  C_13
REMARK    7  A    between atoms: C_18  and  C_22
REMARK    8  A    between atoms: C_18  and  C_23
REMARK    9  A    between atoms: C_25  and  N_31
REMARK   10  A    between atoms: C_26  and  C_27
REMARK   11  A    between atoms: C_27  and  O_29
REMARK   12  A    between atoms: O_29  and  C_30
REMARK                            x       y       z     vdW  Elec       q    Type
REMARK                         _______ _______ _______ _____ _____    ______ ____
ROOT
ATOM      1  C   UNL     1      -4.942   4.008   0.012  0.00  0.00    +0.097 C 
ATOM      2  C   UNL     1      -5.073   4.816   1.281  0.00  0.00    +0.045 C 
ATOM      3  C   UNL     1      -4.930   6.153   1.259  0.00  0.00    +0.115 C 
ATOM      4  C   UNL     1      -5.049   6.962   2.530  0.00  0.00    +0.081 C 
ATOM      5  C   UNL     1      -6.030   6.279   3.485  0.00  0.00    -0.021 C 
ATOM      6  C   UNL     1      -5.517   4.865   3.780  0.00  0.00    +0.086 C 
ATOM      7  C   UNL     1      -5.350   4.128   2.479  0.00  0.00    +0.164 C 
ATOM      8  O   UNL     1      -5.456   2.918   2.461  0.00  0.00    -0.292 OA
ATOM      9  C   UNL     1      -7.412   6.199   2.832  0.00  0.00    +0.012 C 
ATOM     10  C   UNL     1      -6.123   7.075   4.788  0.00  0.00    +0.012 C 
ATOM     11  O   UNL     1      -4.672   6.813   0.114  0.00  0.00    -0.446 OA
ATOM     12  C   UNL     1      -4.965   6.245  -1.065  0.00  0.00    +0.195 C 
ATOM     13  C   UNL     1      -5.107   4.900  -1.187  0.00  0.00    +0.105 C 
ENDROOT
BRANCH   1  17
ATOM     14  C   UNL     1      -1.083   2.169  -0.105  0.00  0.00    +0.059 A 
ATOM     15  C   UNL     1      -1.196   3.560  -0.055  0.00  0.00    +0.015 A 
ATOM     16  C   UNL     1      -2.444   4.147  -0.023  0.00  0.00    +0.005 A 
ATOM     17  C   UNL     1      -3.583   3.360  -0.029  0.00  0.00    -0.035 A 
ATOM     18  C   UNL     1      -3.478   1.981  -0.073  0.00  0.00    +0.005 A 
ATOM     19  C   UNL     1      -2.236   1.381  -0.111  0.00  0.00    +0.015 A 
BRANCH  14  20
ATOM     20  C   UNL     1       0.250   1.534  -0.145  0.00  0.00    +0.339 C 
ATOM     21  O   UNL     1       0.345   0.323  -0.184  0.00  0.00    -0.245 OA
BRANCH  20  22
ATOM     22  O   UNL     1       1.360   2.297  -0.145  0.00  0.00    -0.458 OA
BRANCH  22  24
ATOM     23  C   UNL     1       3.665   2.481  -0.908  0.00  0.00    +0.052 C 
ATOM     24  C   UNL     1       2.635   1.605  -0.192  0.00  0.00    +0.171 C 
ATOM     25  C   UNL     1       3.113   1.318   1.233  0.00  0.00    +0.052 C 
ENDBRANCH  22  24
ENDBRANCH  20  22
ENDBRANCH  14  20
ENDBRANCH   1  17
BRANCH  12  26
ATOM     26  N   UNL     1      -5.124   7.039  -2.170  0.00  0.00    -0.329 N 
ATOM     27  H   UNL     1      -5.425   6.651  -3.006  0.00  0.00    +0.145 HD
ATOM     28  H   UNL     1      -4.936   7.989  -2.115  0.00  0.00    +0.145 HD
ENDBRANCH  12  26
BRANCH  13  29
ATOM     29  C   UNL     1      -5.407   4.340  -2.438  0.00  0.00    +0.341 C 
ATOM     30  O   UNL     1      -6.546   3.987  -2.689  0.00  0.00    -0.245 OA
BRANCH  29  31
ATOM     31  O   UNL     1      -4.435   4.191  -3.363  0.00  0.00    -0.465 OA
ATOM     32  C   UNL     1      -4.812   3.614  -4.614  0.00  0.00    +0.280 C 
ENDBRANCH  29  31
ENDBRANCH  13  29
TORSDOF 7
