REMARK  Name = ZINC09623908
REMARK  10 active torsions:
REMARK  status: ('A' for Active; 'I' for Inactive)
REMARK    1  A    between atoms: C_1  and  C_2
REMARK    2  A    between atoms: C_2  and  C_3
REMARK    3  A    between atoms: N_11  and  C_12
REMARK    4  A    between atoms: C_12  and  C_14
REMARK    5  A    between atoms: C_17  and  S_20
REMARK    6  A    between atoms: S_20  and  C_23
REMARK    7  A    between atoms: C_23  and  C_24
REMARK    8  A    between atoms: C_23  and  C_25
REMARK    9  A    between atoms: N_26  and  C_27
REMARK   10  A    between atoms: C_27  and  C_28
REMARK                            x       y       z     vdW  Elec       q    Type
REMARK                         _______ _______ _______ _____ _____    ______ ____
ROOT
ATOM      1  C   UNL     1      -0.749   3.086   1.275  0.00  0.00    -0.046 A 
ATOM      2  C   UNL     1       0.279   3.797   1.871  0.00  0.00    +0.006 A 
ATOM      3  C   UNL     1       0.281   5.172   1.884  0.00  0.00    +0.027 A 
ATOM      4  C   UNL     1      -0.770   5.896   1.300  0.00  0.00    +0.058 A 
ATOM      5  C   UNL     1      -1.800   5.150   0.709  0.00  0.00    +0.039 A 
ATOM      6  C   UNL     1      -1.798   3.775   0.692  0.00  0.00    +0.020 A 
ATOM      7  S   UNL     1      -2.908   6.395   0.099  0.00  0.00    -0.052 S 
ATOM      8  C   UNL     1      -2.025   7.795   0.616  0.00  0.00    +0.168 A 
ATOM      9  N   UNL     1      -2.342   9.075   0.454  0.00  0.00    -0.152 NA
ATOM     10  N   UNL     1      -0.930   7.268   1.228  0.00  0.00    -0.310 N 
ENDROOT
BRANCH   1  12
ATOM     11  C   UNL     1      -0.013   1.086   0.008  0.00  0.00    +0.009 C 
ATOM     12  C   UNL     1      -0.729   1.579   1.267  0.00  0.00    +0.032 C 
ENDBRANCH   1  12
BRANCH   9  13
ATOM     13  C   UNL     1      -3.471   9.410  -0.179  0.00  0.00    +0.269 C 
ATOM     14  O   UNL     1      -4.210   8.540  -0.607  0.00  0.00    -0.268 OA
BRANCH  13  15
ATOM     15  C   UNL     1      -3.824  10.837  -0.360  0.00  0.00    +0.039 A 
ATOM     16  C   UNL     1      -2.983  11.834   0.134  0.00  0.00    +0.015 A 
ATOM     17  C   UNL     1      -3.315  13.162  -0.042  0.00  0.00    +0.028 A 
ATOM     18  C   UNL     1      -4.484  13.505  -0.698  0.00  0.00    +0.088 A 
ATOM     19  C   UNL     1      -5.324  12.520  -1.185  0.00  0.00    +0.028 A 
ATOM     20  C   UNL     1      -5.001  11.189  -1.020  0.00  0.00    +0.015 A 
BRANCH  18  21
ATOM     21  S   UNL     1      -4.904  15.202  -0.912  0.00  0.00    -0.001 S 
ATOM     22  O   UNL     1      -3.660  15.889  -0.893  0.00  0.00    -0.169 OA
ATOM     23  O   UNL     1      -5.729  15.228  -2.069  0.00  0.00    -0.169 OA
BRANCH  21  24
ATOM     24  C   UNL     1      -5.877  15.631   0.558  0.00  0.00    +0.130 C 
ATOM     25  C   UNL     1      -6.405  17.060   0.421  0.00  0.00    +0.032 C 
ATOM     26  C   UNL     1      -7.054  14.662   0.691  0.00  0.00    +0.032 C 
ENDBRANCH  21  24
ENDBRANCH  18  21
ENDBRANCH  13  15
ENDBRANCH   9  13
BRANCH  10  27
ATOM     27  C   UNL     1       0.080   8.154   1.810  0.00  0.00    +0.212 C 
BRANCH  27  28
ATOM     28  C   UNL     1       1.101   8.467   0.797  0.00  0.00    -0.084 C 
ATOM     29  C   UNL     1       1.916   8.716  -0.010  0.00  0.00    +0.005 C 
ENDBRANCH  27  28
ENDBRANCH  10  27
TORSDOF 7
