REMARK  Name = ZINC20138730
REMARK  12 active torsions:
REMARK  status: ('A' for Active; 'I' for Inactive)
REMARK    1  A    between atoms: C_1  and  C_2
REMARK    2  A    between atoms: C_2  and  O_3
REMARK    3  A    between atoms: O_3  and  C_4
REMARK    4  A    between atoms: C_4  and  C_6
REMARK    5  A    between atoms: C_13  and  C_15
REMARK    6  A    between atoms: C_15  and  C_16
REMARK    7  A    between atoms: C_16  and  C_17
REMARK    8  A    between atoms: N_19  and  C_20
REMARK    9  A    between atoms: C_26  and  C_40
REMARK   10  A    between atoms: C_28  and  N_30
REMARK   11  A    between atoms: C_32  and  C_39
REMARK   12  A    between atoms: C_35  and  C_38
REMARK                            x       y       z     vdW  Elec       q    Type
REMARK                         _______ _______ _______ _____ _____    ______ ____
ROOT
ATOM      1  C   UNL     1     -12.258  -2.300  -1.843  0.00  0.00    +0.034 A 
ATOM      2  C   UNL     1     -12.344  -3.695  -1.782  0.00  0.00    +0.025 A 
ATOM      3  C   UNL     1     -13.541  -4.328  -1.908  0.00  0.00    +0.028 A 
ATOM      4  C   UNL     1     -14.715  -3.580  -2.103  0.00  0.00    +0.048 A 
ATOM      5  C   UNL     1     -14.635  -2.167  -2.165  0.00  0.00    +0.003 A 
ATOM      6  C   UNL     1     -13.390  -1.536  -2.027  0.00  0.00    +0.033 A 
ATOM      7  C   UNL     1     -15.815  -1.421  -2.361  0.00  0.00    -0.038 A 
ATOM      8  C   UNL     1     -16.993  -2.094  -2.482  0.00  0.00    +0.045 A 
ATOM      9  C   UNL     1     -17.007  -3.494  -2.412  0.00  0.00    +0.099 A 
ATOM     10  N   UNL     1     -15.901  -4.186  -2.229  0.00  0.00    -0.343 N 
ATOM     11  C   UNL     1     -15.774   0.084  -2.433  0.00  0.00    +0.044 C 
ATOM     12  H   UNL     1     -15.948  -5.154  -2.186  0.00  0.00    +0.167 HD
ENDROOT
BRANCH   9  13
ATOM     13  N   UNL     1     -18.214  -4.167  -2.537  0.00  0.00    -0.316 N 
ATOM     14  C   UNL     1     -19.445  -3.439  -2.876  0.00  0.00    +0.109 C 
ATOM     15  C   UNL     1     -20.089  -4.101  -4.098  0.00  0.00    +0.004 C 
ATOM     16  C   UNL     1     -20.297  -5.591  -3.815  0.00  0.00    +0.009 C 
ATOM     17  C   UNL     1     -18.943  -6.258  -3.562  0.00  0.00    +0.004 C 
ATOM     18  C   UNL     1     -18.285  -5.621  -2.340  0.00  0.00    +0.109 C 
ATOM     19  C   UNL     1     -19.149  -7.753  -3.313  0.00  0.00    +0.009 C 
ATOM     20  C   UNL     1     -21.439  -3.442  -4.384  0.00  0.00    +0.009 C 
ENDBRANCH   9  13
BRANCH   1  23
ATOM     21  C   UNL     1      -9.909  -2.257  -2.219  0.00  0.00    +0.218 C 
ATOM     22  O   UNL     1      -9.981  -3.358  -2.723  0.00  0.00    -0.275 OA
ATOM     23  N   UNL     1     -11.013  -1.674  -1.710  0.00  0.00    -0.285 N 
ATOM     24  H   UNL     1     -10.944  -0.822  -1.253  0.00  0.00    +0.155 HD
BRANCH  21  25
ATOM     25  C   UNL     1      -8.584  -1.540  -2.161  0.00  0.00    +0.105 C 
BRANCH  25  26
ATOM     26  C   UNL     1      -7.503  -2.414  -2.801  0.00  0.00    +0.105 C 
BRANCH  26  33
ATOM     27  C   UNL     1      -2.752  -2.523  -2.544  0.00  0.00    +0.115 C 
ATOM     28  C   UNL     1      -2.729  -3.860  -3.288  0.00  0.00    +0.018 C 
ATOM     29  C   UNL     1      -4.107  -4.519  -3.198  0.00  0.00    +0.020 C 
ATOM     30  C   UNL     1      -5.147  -3.613  -3.865  0.00  0.00    +0.108 C 
ATOM     31  N   UNL     1      -5.075  -2.280  -3.252  0.00  0.00    -0.301 N 
ATOM     32  C   UNL     1      -3.777  -1.593  -3.202  0.00  0.00    +0.122 C 
ATOM     33  C   UNL     1      -6.179  -1.698  -2.743  0.00  0.00    +0.216 C 
ATOM     34  O   UNL     1      -6.106  -0.597  -2.240  0.00  0.00    -0.276 OA
BRANCH  27  35
ATOM     35  C   UNL     1      -1.386  -1.889  -2.605  0.00  0.00    +0.312 C 
ATOM     36  O   UNL     1      -0.485  -2.450  -3.183  0.00  0.00    -0.250 OA
BRANCH  35  37
ATOM     37  O   UNL     1      -1.170  -0.702  -2.017  0.00  0.00    -0.465 OA
BRANCH  37  39
ATOM     38  C   UNL     1       0.202   1.186  -1.390  0.00  0.00    +0.048 C 
ATOM     39  C   UNL     1       0.149  -0.161  -2.114  0.00  0.00    +0.229 C 
ENDBRANCH  37  39
ENDBRANCH  35  37
ENDBRANCH  27  35
ENDBRANCH  26  33
ENDBRANCH  25  26
ENDBRANCH  21  25
ENDBRANCH   1  23
TORSDOF 8
