REMARK  Name = ZINC08881261
REMARK  10 active torsions:
REMARK  status: ('A' for Active; 'I' for Inactive)
REMARK    1  A    between atoms: C_1  and  C_2
REMARK    2  A    between atoms: C_2  and  C_3
REMARK    3  A    between atoms: C_3  and  N_4
REMARK    4  A    between atoms: C_10  and  N_15
REMARK    5  A    between atoms: C_11  and  C_12
REMARK    6  A    between atoms: C_16  and  C_18
REMARK    7  A    between atoms: C_21  and  S_24
REMARK    8  A    between atoms: S_24  and  N_27
REMARK    9  A    between atoms: N_27  and  C_28
REMARK   10  A    between atoms: N_27  and  C_29
REMARK                            x       y       z     vdW  Elec       q    Type
REMARK                         _______ _______ _______ _____ _____    ______ ____
ROOT
ATOM      1  N   UNL     1       3.136   7.895   1.890  0.00  0.00    -0.275 N 
ATOM      2  C   UNL     1       1.954   7.572   2.451  0.00  0.00    +0.249 C 
ATOM      3  O   UNL     1       1.250   8.442   2.926  0.00  0.00    -0.270 OA
ATOM      4  H   UNL     1       3.774   7.108   1.460  0.00  0.00    +0.156 HD
ENDROOT
BRANCH   1  11
ATOM      5  N   UNL     1       5.204  13.887   2.041  0.00  0.00    +0.383 N 
ATOM      6  C   UNL     1       5.773  13.405   0.775  0.00  0.00    -0.074 C 
ATOM      7  C   UNL     1       6.133  11.921   0.890  0.00  0.00    +0.018 C 
ATOM      8  C   UNL     1       4.914  11.176   1.419  0.00  0.00    -0.027 A 
ATOM      9  C   UNL     1       3.912  11.855   2.022  0.00  0.00    -0.021 A 
ATOM     10  S   UNL     1       2.724  10.618   2.455  0.00  0.00    -0.079 S 
ATOM     11  C   UNL     1       3.549   9.217   1.855  0.00  0.00    +0.085 A 
ATOM     12  C   UNL     1       4.722   9.741   1.326  0.00  0.00    +0.068 A 
ATOM     13  C   UNL     1       3.852  13.333   2.250  0.00  0.00    -0.035 C 
ATOM     14  H   UNL     1       5.851  13.537   2.859  0.00  0.00    -0.081 HD
BRANCH  12  15
ATOM     15  C   UNL     1       5.726   8.877   0.699  0.00  0.00    +0.244 C 
ATOM     16  O   UNL     1       5.667   8.643  -0.494  0.00  0.00    -0.270 OA
ATOM     17  N   UNL     1       6.715   8.344   1.442  0.00  0.00    -0.325 N 
ATOM     18  H   UNL     1       7.469   7.696   0.971  0.00  0.00    +0.145 HD
ATOM     19  H   UNL     1       6.769   8.556   2.520  0.00  0.00    +0.145 HD
ENDBRANCH  12  15
BRANCH   5  20
ATOM     20  C   UNL     1       5.184  15.355   2.085  0.00  0.00    -0.079 C 
BRANCH  20  22
ATOM     21  C   UNL     1       4.363  17.419   0.942  0.00  0.00    +0.002 C 
ATOM     22  C   UNL     1       4.384  15.890   0.896  0.00  0.00    -0.022 C 
ENDBRANCH  20  22
ENDBRANCH   5  20
ENDBRANCH   1  11
BRANCH   2  23
ATOM     23  C   UNL     1       1.514   6.162   2.488  0.00  0.00    +0.037 A 
ATOM     24  C   UNL     1       0.290   5.825   3.068  0.00  0.00    +0.015 A 
ATOM     25  C   UNL     1      -0.116   4.507   3.099  0.00  0.00    +0.029 A 
ATOM     26  C   UNL     1       0.688   3.520   2.556  0.00  0.00    +0.106 A 
ATOM     27  C   UNL     1       1.905   3.846   1.984  0.00  0.00    +0.029 A 
ATOM     28  C   UNL     1       2.320   5.161   1.942  0.00  0.00    +0.015 A 
BRANCH  26  29
ATOM     29  S   UNL     1       0.163   1.838   2.600  0.00  0.00    +0.061 S 
ATOM     30  O   UNL     1      -0.756   1.728   3.678  0.00  0.00    -0.153 OA
ATOM     31  O   UNL     1       1.338   1.044   2.516  0.00  0.00    -0.153 OA
BRANCH  29  32
ATOM     32  N   UNL     1      -0.698   1.558   1.213  0.00  0.00    -0.177 NA
ATOM     33  C   UNL     1      -0.013   1.086   0.008  0.00  0.00    +0.132 C 
BRANCH  32  34
ATOM     34  C   UNL     1      -2.146   1.783   1.192  0.00  0.00    +0.080 C 
ATOM     35  C   UNL     1      -2.860   0.474   0.850  0.00  0.00    +0.020 C 
ATOM     36  C   UNL     1      -4.372   0.709   0.827  0.00  0.00    +0.002 C 
ATOM     37  C   UNL     1      -4.709   1.765  -0.227  0.00  0.00    +0.000 C 
ATOM     38  C   UNL     1      -3.994   3.074   0.115  0.00  0.00    +0.002 C 
ATOM     39  C   UNL     1      -2.483   2.839   0.137  0.00  0.00    +0.020 C 
ENDBRANCH  32  34
ENDBRANCH  29  32
ENDBRANCH  26  29
ENDBRANCH   2  23
TORSDOF 8
