REMARK  Name = ZINC39667385
REMARK  8 active torsions:
REMARK  status: ('A' for Active; 'I' for Inactive)
REMARK    1  A    between atoms: C_1  and  S_2
REMARK    2  A    between atoms: S_2  and  C_3
REMARK    3  A    between atoms: C_6  and  C_9
REMARK    4  A    between atoms: C_9  and  N_10
REMARK    5  A    between atoms: C_11  and  C_13
REMARK    6  A    between atoms: C_24  and  C_26
REMARK    7  A    between atoms: C_29  and  O_32
REMARK    8  A    between atoms: O_32  and  C_33
REMARK                            x       y       z     vdW  Elec       q    Type
REMARK                         _______ _______ _______ _____ _____    ______ ____
ROOT
ATOM      1  C   UNL     1       0.513  -2.180   8.771  0.00  0.00    +0.100 C 
ATOM      2  C   UNL     1      -0.270  -3.406   8.250  0.00  0.00    +0.121 C 
ATOM      3  N   UNL     1       0.413  -4.572   8.858  0.00  0.00    -0.296 N 
ATOM      4  C   UNL     1       0.744  -4.130  10.234  0.00  0.00    +0.115 C 
ATOM      5  C   UNL     1       1.174  -2.658  10.075  0.00  0.00    -0.004 C 
ATOM      6  C   UNL     1       2.692  -2.562   9.964  0.00  0.00    -0.010 C 
ATOM      7  C   UNL     1       3.324  -2.989  11.292  0.00  0.00    -0.082 C 
ATOM      8  N   UNL     1       2.836  -2.120  12.370  0.00  0.00    +0.379 N 
ATOM      9  C   UNL     1       1.387  -2.287  12.531  0.00  0.00    -0.082 C 
ATOM     10  C   UNL     1       0.673  -1.831  11.256  0.00  0.00    -0.010 C 
ATOM     11  C   UNL     1       0.675  -5.765   8.289  0.00  0.00    +0.248 C 
ATOM     12  O   UNL     1       0.458  -5.934   7.104  0.00  0.00    -0.270 OA
ATOM     13  H   UNL     1       3.300  -2.364  13.232  0.00  0.00    -0.086 HD
ATOM     14  H   UNL     1       3.039  -1.158  12.142  0.00  0.00    -0.086 HD
ENDROOT
BRANCH  11  15
ATOM     15  C   UNL     1       1.226  -6.866   9.103  0.00  0.00    +0.055 A 
ATOM     16  C   UNL     1       1.104  -6.848  10.500  0.00  0.00    +0.020 A 
ATOM     17  C   UNL     1       1.635  -7.900  11.218  0.00  0.00    +0.068 A 
ATOM     18  C   UNL     1       2.269  -8.936  10.538  0.00  0.00    +0.220 A 
ATOM     19  N   UNL     1       2.369  -8.924   9.218  0.00  0.00    -0.220 NA
ATOM     20  C   UNL     1       1.871  -7.943   8.494  0.00  0.00    +0.127 A 
BRANCH  18  21
ATOM     21  O   UNL     1       2.793  -9.972  11.238  0.00  0.00    -0.438 OA
BRANCH  21  22
ATOM     22  C   UNL     1       3.319 -11.012  10.539  0.00  0.00    +0.130 A 
ATOM     23  C   UNL     1       4.585 -10.906   9.981  0.00  0.00    +0.046 A 
ATOM     24  C   UNL     1       5.117 -11.965   9.272  0.00  0.00    +0.004 A 
ATOM     25  C   UNL     1       4.389 -13.130   9.117  0.00  0.00    +0.000 A 
ATOM     26  C   UNL     1       3.128 -13.239   9.673  0.00  0.00    +0.004 A 
ATOM     27  C   UNL     1       2.593 -12.185  10.388  0.00  0.00    +0.046 A 
ENDBRANCH  21  22
ENDBRANCH  18  21
ENDBRANCH  11  15
BRANCH   1  29
ATOM     28  N   UNL     1       1.974  -0.481   7.722  0.00  0.00    -0.311 N 
ATOM     29  C   UNL     1       1.563  -1.764   7.773  0.00  0.00    +0.218 C 
ATOM     30  O   UNL     1       2.038  -2.583   7.016  0.00  0.00    -0.275 OA
ATOM     31  H   UNL     1       1.594   0.174   8.328  0.00  0.00    +0.149 HD
BRANCH  28  32
ATOM     32  C   UNL     1       2.994  -0.077   6.752  0.00  0.00    +0.139 C 
BRANCH  32  36
ATOM     33  C   UNL     1       3.785   4.102   7.172  0.00  0.00    +0.008 A 
ATOM     34  C   UNL     1       4.517   3.177   7.907  0.00  0.00    +0.015 A 
ATOM     35  C   UNL     1       4.258   1.828   7.769  0.00  0.00    +0.006 A 
ATOM     36  C   UNL     1       3.273   1.396   6.900  0.00  0.00    -0.030 A 
ATOM     37  C   UNL     1       2.543   2.314   6.166  0.00  0.00    +0.006 A 
ATOM     38  C   UNL     1       2.791   3.665   6.304  0.00  0.00    +0.015 A 
BRANCH  33  40
ATOM     39  C   UNL     1       5.457   5.897   8.559  0.00  0.00    +0.090 C 
ATOM     40  S   UNL     1       4.111   5.825   7.346  0.00  0.00    -0.129 S 
ENDBRANCH  33  40
ENDBRANCH  32  36
ENDBRANCH  28  32
ENDBRANCH   1  29
TORSDOF 7
