REMARK  Name = ZINC34698981
REMARK  10 active torsions:
REMARK  status: ('A' for Active; 'I' for Inactive)
REMARK    1  A    between atoms: C_1  and  C_2
REMARK    2  A    between atoms: C_2  and  C_3
REMARK    3  A    between atoms: C_2  and  C_4
REMARK    4  A    between atoms: C_4  and  N_5
REMARK    5  A    between atoms: N_5  and  C_6
REMARK    6  A    between atoms: C_6  and  C_7
REMARK    7  A    between atoms: N_10  and  C_20
REMARK    8  A    between atoms: C_12  and  C_14
REMARK    9  A    between atoms: C_20  and  C_21
REMARK   10  A    between atoms: C_30  and  C_32
REMARK                            x       y       z     vdW  Elec       q    Type
REMARK                         _______ _______ _______ _____ _____    ______ ____
ROOT
ATOM      1  C   UNL     1      -2.567  -3.050   1.706  0.00  0.00    -0.005 C 
ATOM      2  C   UNL     1      -3.464  -3.907   0.787  0.00  0.00    -0.073 C 
ATOM      3  N   UNL     1      -3.297  -5.295   1.292  0.00  0.00    +0.383 N 
ATOM      4  C   UNL     1      -3.261  -5.144   2.769  0.00  0.00    -0.070 C 
ATOM      5  C   UNL     1      -2.433  -3.861   3.011  0.00  0.00    +0.005 C 
ATOM      6  H   UNL     1      -2.432  -5.691   0.956  0.00  0.00    -0.081 HD
ENDROOT
BRANCH   5   7
ATOM      7  C   UNL     1      -2.998  -3.082   4.171  0.00  0.00    -0.046 A 
ATOM      8  C   UNL     1      -4.327  -2.704   4.168  0.00  0.00    +0.004 A 
ATOM      9  C   UNL     1      -4.845  -1.990   5.232  0.00  0.00    +0.000 A 
ATOM     10  C   UNL     1      -4.033  -1.654   6.300  0.00  0.00    +0.000 A 
ATOM     11  C   UNL     1      -2.704  -2.034   6.303  0.00  0.00    +0.000 A 
ATOM     12  C   UNL     1      -2.187  -2.752   5.241  0.00  0.00    +0.004 A 
ENDBRANCH   5   7
BRANCH   1  13
ATOM     13  C   UNL     1      -1.193  -2.844   1.065  0.00  0.00    +0.110 C 
BRANCH  13  14
ATOM     14  N   UNL     1      -1.330  -2.001  -0.125  0.00  0.00    -0.297 N 
ATOM     15  C   UNL     1      -1.556  -2.564  -1.328  0.00  0.00    +0.249 C 
ATOM     16  O   UNL     1      -1.712  -3.767  -1.416  0.00  0.00    -0.270 OA
BRANCH  15  17
ATOM     17  C   UNL     1      -1.616  -1.721  -2.539  0.00  0.00    +0.072 A 
ATOM     18  C   UNL     1      -2.561  -0.698  -2.636  0.00  0.00    +0.016 A 
ATOM     19  C   UNL     1      -2.611   0.086  -3.769  0.00  0.00    +0.001 A 
ATOM     20  C   UNL     1      -1.728  -0.139  -4.811  0.00  0.00    +0.003 A 
ATOM     21  C   UNL     1      -0.789  -1.150  -4.726  0.00  0.00    +0.039 A 
ATOM     22  C   UNL     1      -0.723  -1.940  -3.592  0.00  0.00    +0.135 A 
ATOM     23  F   UNL     1       0.198  -2.925  -3.506  0.00  0.00    -0.205 F 
ENDBRANCH  15  17
BRANCH  14  24
ATOM     24  C   UNL     1      -1.221  -0.544  -0.007  0.00  0.00    +0.111 C 
BRANCH  24  26
ATOM     25  C   UNL     1       0.289   1.417  -0.346  0.00  0.00    +0.009 C 
ATOM     26  C   UNL     1       0.206  -0.110  -0.347  0.00  0.00    +0.000 C 
ATOM     27  C   UNL     1       1.172  -0.674   0.697  0.00  0.00    +0.009 C 
ENDBRANCH  24  26
ENDBRANCH  14  24
ENDBRANCH  13  14
ENDBRANCH   1  13
BRANCH   3  28
ATOM     28  C   UNL     1      -4.438  -6.128   0.888  0.00  0.00    -0.043 C 
BRANCH  28  29
ATOM     29  C   UNL     1      -4.189  -7.555   1.304  0.00  0.00    -0.060 A 
ATOM     30  C   UNL     1      -3.541  -8.421   0.443  0.00  0.00    +0.005 A 
ATOM     31  C   UNL     1      -3.310  -9.731   0.821  0.00  0.00    +0.050 A 
ATOM     32  C   UNL     1      -3.729 -10.179   2.063  0.00  0.00    +0.166 A 
ATOM     33  C   UNL     1      -4.382  -9.306   2.930  0.00  0.00    +0.166 A 
ATOM     34  C   UNL     1      -4.605  -7.994   2.547  0.00  0.00    +0.051 A 
ATOM     35  O   UNL     1      -4.690  -9.980   4.076  0.00  0.00    -0.453 OA
ATOM     36  C   UNL     1      -4.584 -11.376   3.742  0.00  0.00    +0.466 C 
ATOM     37  O   UNL     1      -3.628 -11.399   2.667  0.00  0.00    -0.453 OA
ENDBRANCH  28  29
ENDBRANCH   3  28
TORSDOF 8
