REMARK  Name = ZINC22662418
REMARK  4 active torsions:
REMARK  status: ('A' for Active; 'I' for Inactive)
REMARK    1  A    between atoms: C_9  and  S_13
REMARK    2  A    between atoms: S_13  and  C_14
REMARK    3  A    between atoms: C_14  and  C_15
REMARK    4  A    between atoms: C_20  and  C_23
REMARK                            x       y       z     vdW  Elec       q    Type
REMARK                         _______ _______ _______ _____ _____    ______ ____
ROOT
ATOM      1  C   UNL     1       0.631  -6.530  -0.230  0.00  0.00    +0.005 C 
ATOM      2  C   UNL     1      -0.516  -6.860  -1.190  0.00  0.00    +0.005 C 
ATOM      3  C   UNL     1      -1.755  -6.056  -0.772  0.00  0.00    +0.043 C 
ATOM      4  C   UNL     1      -1.343  -4.632  -0.548  0.00  0.00    -0.004 A 
ATOM      5  C   UNL     1      -0.089  -4.158  -0.408  0.00  0.00    -0.025 A 
ATOM      6  C   UNL     1       0.056  -2.716  -0.197  0.00  0.00    +0.051 A 
ATOM      7  C   UNL     1       1.249  -1.959  -0.021  0.00  0.00    +0.129 A 
ATOM      8  N   UNL     1       1.164  -0.651   0.153  0.00  0.00    -0.207 NA
ATOM      9  C   UNL     1      -0.002  -0.017   0.179  0.00  0.00    +0.191 A 
ATOM     10  N   UNL     1      -1.145  -0.671   0.020  0.00  0.00    -0.214 NA
ATOM     11  C   UNL     1      -1.143  -1.977  -0.164  0.00  0.00    +0.115 A 
ATOM     12  S   UNL     1      -2.393  -3.211  -0.411  0.00  0.00    -0.073 S 
ATOM     13  N   UNL     1       2.482  -2.584  -0.037  0.00  0.00    -0.343 N 
ATOM     14  C   UNL     1       1.112  -5.098  -0.470  0.00  0.00    +0.037 C 
ATOM     15  H   UNL     1       3.400  -1.994   0.100  0.00  0.00    +0.144 HD
ATOM     16  H   UNL     1       2.546  -3.672  -0.186  0.00  0.00    +0.144 HD
ENDROOT
BRANCH   9  17
ATOM     17  S   UNL     1      -0.032   1.728   0.422  0.00  0.00    -0.077 S 
BRANCH  17  18
ATOM     18  C   UNL     1       1.742   2.054   0.573  0.00  0.00    +0.173 C 
BRANCH  18  19
ATOM     19  C   UNL     1       1.965   3.529   0.793  0.00  0.00    +0.226 C 
ATOM     20  O   UNL     1       1.018   4.284   0.843  0.00  0.00    -0.275 OA
ATOM     21  N   UNL     1       3.217   4.007   0.934  0.00  0.00    -0.301 N 
ATOM     22  C   UNL     1       4.374   3.104   0.881  0.00  0.00    +0.108 C 
ATOM     23  C   UNL     1       5.222   3.308   2.135  0.00  0.00    +0.032 C 
ATOM     24  C   UNL     1       5.586   4.788   2.267  0.00  0.00    +0.078 C 
ATOM     25  C   UNL     1       4.308   5.619   2.406  0.00  0.00    +0.032 C 
ATOM     26  C   UNL     1       3.450   5.442   1.149  0.00  0.00    +0.108 C 
BRANCH  24  27
ATOM     27  C   UNL     1       6.448   4.987   3.487  0.00  0.00    +0.214 C 
ATOM     28  O   UNL     1       6.077   5.720   4.379  0.00  0.00    -0.276 OA
ATOM     29  N   UNL     1       7.631   4.349   3.587  0.00  0.00    -0.329 N 
ATOM     30  H   UNL     1       8.261   4.494   4.477  0.00  0.00    +0.145 HD
ATOM     31  H   UNL     1       7.968   3.684   2.778  0.00  0.00    +0.145 HD
ENDBRANCH  24  27
ENDBRANCH  18  19
ENDBRANCH  17  18
ENDBRANCH   9  17
TORSDOF 4
