REMARK  Name = ZINC01773510
REMARK  14 active torsions:
REMARK  status: ('A' for Active; 'I' for Inactive)
REMARK    1  A    between atoms: C_1  and  C_2
REMARK    2  A    between atoms: C_9  and  N_15
REMARK    3  A    between atoms: C_10  and  C_11
REMARK    4  A    between atoms: C_11  and  O_13
REMARK    5  A    between atoms: O_13  and  C_14
REMARK    6  A    between atoms: C_16  and  C_18
REMARK    7  A    between atoms: C_18  and  C_19
REMARK    8  A    between atoms: C_19  and  C_20
REMARK    9  A    between atoms: C_20  and  O_21
REMARK   10  A    between atoms: O_21  and  C_22
REMARK   11  A    between atoms: C_25  and  C_28
REMARK   12  A    between atoms: C_28  and  C_29
REMARK   13  A    between atoms: C_28  and  C_30
REMARK   14  A    between atoms: C_28  and  C_31
REMARK                            x       y       z     vdW  Elec       q    Type
REMARK                         _______ _______ _______ _____ _____    ______ ____
ROOT
ATOM      1  N   UNL     1       4.622  -7.162  -0.079  0.00  0.00    -0.279 N 
ATOM      2  C   UNL     1       3.540  -6.358  -0.065  0.00  0.00    +0.218 C 
ATOM      3  O   UNL     1       2.427  -6.839  -0.056  0.00  0.00    -0.275 OA
ATOM      4  H   UNL     1       5.512  -6.777  -0.086  0.00  0.00    +0.155 HD
ENDROOT
BRANCH   1  12
ATOM      5  C   UNL     1       3.288 -14.869  -0.011  0.00  0.00    +0.008 C 
ATOM      6  C   UNL     1       3.921 -13.506   0.276  0.00  0.00    -0.009 C 
ATOM      7  C   UNL     1       5.185 -13.338  -0.573  0.00  0.00    +0.008 C 
ATOM      8  C   UNL     1       5.955 -12.097  -0.118  0.00  0.00    +0.037 C 
ATOM      9  C   UNL     1       5.004 -10.907  -0.102  0.00  0.00    -0.021 A 
ATOM     10  C   UNL     1       3.665 -11.087  -0.090  0.00  0.00    -0.004 A 
ATOM     11  S   UNL     1       2.989  -9.451  -0.075  0.00  0.00    -0.077 S 
ATOM     12  C   UNL     1       4.461  -8.539  -0.085  0.00  0.00    +0.086 A 
ATOM     13  C   UNL     1       5.442  -9.522  -0.105  0.00  0.00    +0.091 A 
ATOM     14  C   UNL     1       2.929 -12.391  -0.088  0.00  0.00    +0.046 C 
BRANCH  13  15
ATOM     15  C   UNL     1       6.865  -9.175  -0.124  0.00  0.00    +0.342 C 
ATOM     16  O   UNL     1       7.471  -9.037   0.921  0.00  0.00    -0.245 OA
BRANCH  15  17
ATOM     17  O   UNL     1       7.502  -9.008  -1.301  0.00  0.00    -0.464 OA
ATOM     18  C   UNL     1       8.912  -8.665  -1.244  0.00  0.00    +0.280 C 
ENDBRANCH  15  17
ENDBRANCH  13  15
ENDBRANCH   1  12
BRANCH   2  19
ATOM     19  C   UNL     1       3.715  -4.861  -0.059  0.00  0.00    +0.099 C 
BRANCH  19  20
ATOM     20  C   UNL     1       2.341  -4.188  -0.042  0.00  0.00    +0.050 C 
BRANCH  20  21
ATOM     21  C   UNL     1       2.518  -2.668  -0.036  0.00  0.00    +0.229 C 
BRANCH  21  22
ATOM     22  O   UNL     1       1.234  -2.039  -0.020  0.00  0.00    -0.492 OA
BRANCH  22  23
ATOM     23  C   UNL     1       1.213  -0.680  -0.013  0.00  0.00    +0.121 A 
ATOM     24  C   UNL     1       0.002  -0.004   0.002  0.00  0.00    +0.046 A 
ATOM     25  C   UNL     1      -0.017   1.377   0.010  0.00  0.00    +0.008 A 
ATOM     26  C   UNL     1       1.171   2.086   0.002  0.00  0.00    -0.042 A 
ATOM     27  C   UNL     1       2.379   1.415  -0.013  0.00  0.00    +0.008 A 
ATOM     28  C   UNL     1       2.403   0.033  -0.021  0.00  0.00    +0.046 A 
BRANCH  26  29
ATOM     29  C   UNL     1       1.147   3.593   0.011  0.00  0.00    -0.013 C 
ATOM     30  C   UNL     1       0.430   4.085   1.269  0.00  0.00    +0.015 C 
ATOM     31  C   UNL     1       2.582   4.125  -0.000  0.00  0.00    +0.015 C 
ATOM     32  C   UNL     1       0.406   4.098  -1.229  0.00  0.00    +0.015 C 
ENDBRANCH  26  29
ENDBRANCH  22  23
ENDBRANCH  21  22
ENDBRANCH  20  21
ENDBRANCH  19  20
ENDBRANCH   2  19
TORSDOF 9
