REMARK  Name = ZINC19715234
REMARK  6 active torsions:
REMARK  status: ('A' for Active; 'I' for Inactive)
REMARK    1  A    between atoms: C_1  and  C_2
REMARK    2  A    between atoms: N_12  and  C_13
REMARK    3  A    between atoms: C_13  and  C_14
REMARK    4  A    between atoms: N_16  and  C_17
REMARK    5  A    between atoms: C_17  and  C_18
REMARK    6  A    between atoms: C_18  and  N_24
REMARK                            x       y       z     vdW  Elec       q    Type
REMARK                         _______ _______ _______ _____ _____    ______ ____
ROOT
ATOM      1  C   UNL     1       0.856  -5.512   4.296  0.00  0.00    +0.233 C 
ATOM      2  O   UNL     1       0.129  -4.589   3.992  0.00  0.00    -0.274 OA
ATOM      3  N   UNL     1       0.430  -6.782   4.146  0.00  0.00    -0.315 N 
ATOM      4  H   UNL     1       1.089  -7.619   4.421  0.00  0.00    +0.149 HD
ENDROOT
BRANCH   1   5
ATOM      5  C   UNL     1       2.234  -5.238   4.840  0.00  0.00    +0.222 C 
BRANCH   5  17
ATOM      6  C   UNL     1       3.409  -3.961   2.643  0.00  0.00    +0.086 C 
ATOM      7  C   UNL     1       3.024  -3.149   3.853  0.00  0.00    +0.110 A 
ATOM      8  N   UNL     1       3.252  -1.871   3.834  0.00  0.00    -0.234 NA
ATOM      9  C   UNL     1       2.932  -1.076   4.886  0.00  0.00    +0.078 A 
ATOM     10  C   UNL     1       3.177   0.298   4.867  0.00  0.00    +0.028 A 
ATOM     11  C   UNL     1       2.834   1.067   5.956  0.00  0.00    +0.002 A 
ATOM     12  C   UNL     1       2.248   0.493   7.077  0.00  0.00    +0.001 A 
ATOM     13  C   UNL     1       1.996  -0.861   7.119  0.00  0.00    +0.015 A 
ATOM     14  C   UNL     1       2.335  -1.657   6.027  0.00  0.00    +0.065 A 
ATOM     15  C   UNL     1       2.090  -3.107   6.015  0.00  0.00    +0.262 A 
ATOM     16  O   UNL     1       1.579  -3.670   6.966  0.00  0.00    -0.267 OA
ATOM     17  N   UNL     1       2.454  -3.791   4.906  0.00  0.00    -0.287 N 
ENDBRANCH   5  17
ENDBRANCH   1   5
BRANCH   3  18
ATOM     18  C   UNL     1      -0.909  -7.048   3.616  0.00  0.00    +0.092 C 
BRANCH  18  19
ATOM     19  C   UNL     1      -1.187  -8.552   3.664  0.00  0.00    -0.050 C 
ATOM     20  C   UNL     1      -2.540  -8.842   3.012  0.00  0.00    -0.010 C 
ATOM     21  C   UNL     1      -3.641  -8.095   3.768  0.00  0.00    -0.001 C 
ATOM     22  C   UNL     1      -3.667  -8.563   5.224  0.00  0.00    -0.000 C 
ATOM     23  C   UNL     1      -2.313  -8.273   5.877  0.00  0.00    -0.001 C 
ATOM     24  C   UNL     1      -1.213  -9.020   5.121  0.00  0.00    -0.010 C 
BRANCH  19  25
ATOM     25  N   UNL     1      -0.130  -9.269   2.938  0.00  0.00    +0.384 N 
ATOM     26  C   UNL     1      -0.037  -8.803   1.549  0.00  0.00    -0.078 C 
ATOM     27  C   UNL     1       1.163  -9.463   0.867  0.00  0.00    -0.019 C 
ATOM     28  C   UNL     1       0.993 -10.984   0.905  0.00  0.00    -0.004 C 
ATOM     29  C   UNL     1       0.850 -11.438   2.360  0.00  0.00    -0.019 C 
ATOM     30  C   UNL     1      -0.342 -10.720   2.998  0.00  0.00    -0.078 C 
ATOM     31  H   UNL     1       0.829  -9.049   3.430  0.00  0.00    -0.081 HD
ENDBRANCH  19  25
ENDBRANCH  18  19
ENDBRANCH   3  18
TORSDOF 5
