REMARK  Name = ZINC00938445
REMARK  9 active torsions:
REMARK  status: ('A' for Active; 'I' for Inactive)
REMARK    1  A    between atoms: C_1  and  C_2
REMARK    2  A    between atoms: C_7  and  C_8
REMARK    3  A    between atoms: C_12  and  C_15
REMARK    4  A    between atoms: C_15  and  C_16
REMARK    5  A    between atoms: N_18  and  C_19
REMARK    6  A    between atoms: C_20  and  C_30
REMARK    7  A    between atoms: C_25  and  C_29
REMARK    8  A    between atoms: C_30  and  O_32
REMARK    9  A    between atoms: O_32  and  C_33
REMARK                            x       y       z     vdW  Elec       q    Type
REMARK                         _______ _______ _______ _____ _____    ______ ____
ROOT
ATOM      1  C   UNL     1      -1.816   1.045  -2.313  0.00  0.00    +0.220 C 
ATOM      2  O   UNL     1      -1.741  -0.087  -1.884  0.00  0.00    -0.275 OA
ATOM      3  N   UNL     1      -2.103   1.255  -3.612  0.00  0.00    -0.279 N 
ATOM      4  H   UNL     1      -2.163   2.161  -3.955  0.00  0.00    +0.155 HD
ENDROOT
BRANCH   3   5
ATOM      5  C   UNL     1      -2.312   0.178  -4.459  0.00  0.00    +0.086 A 
ATOM      6  C   UNL     1      -2.621   0.192  -5.813  0.00  0.00    +0.091 A 
ATOM      7  C   UNL     1      -2.788  -1.090  -6.477  0.00  0.00    -0.021 A 
ATOM      8  C   UNL     1      -2.632  -2.172  -5.684  0.00  0.00    -0.004 A 
ATOM      9  S   UNL     1      -2.261  -1.512  -4.084  0.00  0.00    -0.077 S 
ATOM     10  C   UNL     1      -2.751  -3.611  -6.085  0.00  0.00    +0.046 C 
ATOM     11  C   UNL     1      -3.447  -3.675  -7.453  0.00  0.00    -0.009 C 
ATOM     12  C   UNL     1      -2.780  -2.667  -8.394  0.00  0.00    +0.008 C 
ATOM     13  C   UNL     1      -3.122  -1.242  -7.956  0.00  0.00    +0.037 C 
ATOM     14  C   UNL     1      -3.313  -5.085  -8.033  0.00  0.00    +0.008 C 
BRANCH   6  15
ATOM     15  C   UNL     1      -2.769   1.452  -6.546  0.00  0.00    +0.342 C 
ATOM     16  O   UNL     1      -1.804   1.959  -7.085  0.00  0.00    -0.245 OA
BRANCH  15  17
ATOM     17  O   UNL     1      -3.976   2.049  -6.623  0.00  0.00    -0.464 OA
ATOM     18  C   UNL     1      -4.048   3.295  -7.365  0.00  0.00    +0.280 C 
ENDBRANCH  15  17
ENDBRANCH   6  15
ENDBRANCH   3   5
BRANCH   1  19
ATOM     19  C   UNL     1      -1.588   2.216  -1.392  0.00  0.00    +0.127 C 
BRANCH  19  31
ATOM     20  C   UNL     1       4.747   1.387  -1.200  0.00  0.00    +0.044 C 
ATOM     21  C   UNL     1       3.495   1.938  -0.567  0.00  0.00    -0.046 A 
ATOM     22  C   UNL     1       2.329   1.194  -0.582  0.00  0.00    +0.028 A 
ATOM     23  C   UNL     1       1.181   1.703  -0.000  0.00  0.00    +0.049 A 
ATOM     24  C   UNL     1       1.197   2.967   0.593  0.00  0.00    +0.055 A 
ATOM     25  C   UNL     1       2.371   3.703   0.607  0.00  0.00    +0.028 A 
ATOM     26  C   UNL     1       3.515   3.186   0.027  0.00  0.00    -0.046 A 
ATOM     27  C   UNL     1       4.791   3.989   0.042  0.00  0.00    +0.044 C 
ATOM     28  N   UNL     1       0.025   3.484   1.157  0.00  0.00    -0.282 N 
ATOM     29  C   UNL     1      -1.159   2.873   0.969  0.00  0.00    +0.238 C 
ATOM     30  O   UNL     1      -2.139   3.267   1.566  0.00  0.00    -0.273 OA
ATOM     31  C   UNL     1      -1.282   1.705   0.017  0.00  0.00    +0.166 C 
ATOM     32  N   UNL     1      -0.011   0.966   0.007  0.00  0.00    -0.331 N 
ATOM     33  H   UNL     1       0.067   4.293   1.690  0.00  0.00    +0.155 HD
ATOM     34  H   UNL     1       0.002  -0.004   0.002  0.00  0.00    +0.147 HD
ENDBRANCH  19  31
ENDBRANCH   1  19
TORSDOF 5
