REMARK  Name = ZINC38739762
REMARK  9 active torsions:
REMARK  status: ('A' for Active; 'I' for Inactive)
REMARK    1  A    between atoms: C_1  and  C_2
REMARK    2  A    between atoms: C_2  and  O_3
REMARK    3  A    between atoms: O_3  and  C_4
REMARK    4  A    between atoms: C_4  and  C_6
REMARK    5  A    between atoms: C_6  and  C_8
REMARK    6  A    between atoms: C_6  and  N_16
REMARK    7  A    between atoms: C_8  and  C_9
REMARK    8  A    between atoms: C_17  and  C_19
REMARK    9  A    between atoms: C_25  and  C_27
REMARK                            x       y       z     vdW  Elec       q    Type
REMARK                         _______ _______ _______ _____ _____    ______ ____
ROOT
ATOM      1  C   UNL     1       0.377  -6.028  -2.913  0.00  0.00    +0.087 C 
ATOM      2  C   UNL     1       0.511  -6.501  -1.464  0.00  0.00    +0.013 C 
ATOM      3  C   UNL     1       0.486  -8.030  -1.422  0.00  0.00    +0.001 C 
ATOM      4  C   UNL     1      -0.837  -8.534  -2.002  0.00  0.00    +0.001 C 
ATOM      5  C   UNL     1      -0.971  -8.062  -3.451  0.00  0.00    +0.013 C 
ATOM      6  C   UNL     1      -0.946  -6.533  -3.494  0.00  0.00    +0.087 C 
ENDROOT
BRANCH   6   7
ATOM      7  C   UNL     1      -1.078  -6.067  -4.921  0.00  0.00    +0.219 C 
ATOM      8  O   UNL     1      -0.086  -5.802  -5.566  0.00  0.00    -0.275 OA
ATOM      9  N   UNL     1      -2.298  -5.946  -5.480  0.00  0.00    -0.298 N 
ATOM     10  C   UNL     1      -3.512  -6.162  -4.680  0.00  0.00    +0.126 C 
ATOM     11  C   UNL     1      -4.400  -4.916  -4.792  0.00  0.00    +0.125 C 
ATOM     12  N   UNL     1      -4.541  -4.566  -6.212  0.00  0.00    -0.314 N 
ATOM     13  C   UNL     1      -3.327  -4.350  -7.012  0.00  0.00    +0.125 C 
ATOM     14  C   UNL     1      -2.439  -5.590  -6.899  0.00  0.00    +0.126 C 
ATOM     15  C   UNL     1      -5.799  -4.440  -6.789  0.00  0.00    +0.099 A 
ATOM     16  C   UNL     1      -6.935  -4.513  -5.988  0.00  0.00    +0.042 A 
ATOM     17  C   UNL     1      -8.181  -4.387  -6.575  0.00  0.00    +0.005 A 
ATOM     18  C   UNL     1      -8.250  -4.192  -7.948  0.00  0.00    +0.018 A 
ATOM     19  C   UNL     1      -7.082  -4.130  -8.682  0.00  0.00    +0.084 A 
ATOM     20  N   UNL     1      -5.907  -4.248  -8.094  0.00  0.00    -0.350 N 
ATOM     21  H   UNL     1      -5.101  -4.196  -8.633  0.00  0.00    +0.166 HD
ENDBRANCH   6   7
BRANCH   1  23
ATOM     22  N   UNL     1       1.476  -3.853  -2.492  0.00  0.00    -0.302 N 
ATOM     23  C   UNL     1       0.401  -4.522  -2.954  0.00  0.00    +0.217 C 
ATOM     24  O   UNL     1      -0.546  -3.912  -3.404  0.00  0.00    -0.275 OA
ATOM     25  H   UNL     1       2.233  -4.340  -2.132  0.00  0.00    +0.150 HD
BRANCH  22  26
ATOM     26  C   UNL     1       1.500  -2.388  -2.532  0.00  0.00    +0.186 C 
BRANCH  26  27
ATOM     27  C   UNL     1       0.812  -1.841  -1.308  0.00  0.00    +0.328 C 
ATOM     28  O   UNL     1       0.349  -2.596  -0.486  0.00  0.00    -0.249 OA
BRANCH  27  29
ATOM     29  O   UNL     1       0.714  -0.514  -1.131  0.00  0.00    -0.464 OA
BRANCH  29  31
ATOM     30  C   UNL     1       0.035   1.465   0.079  0.00  0.00    +0.048 C 
ATOM     31  C   UNL     1       0.049  -0.065   0.052  0.00  0.00    +0.229 C 
ENDBRANCH  29  31
ENDBRANCH  27  29
ENDBRANCH  26  27
BRANCH  26  32
ATOM     32  C   UNL     1       2.950  -1.903  -2.562  0.00  0.00    +0.069 C 
BRANCH  32  33
ATOM     33  C   UNL     1       3.603  -2.348  -3.846  0.00  0.00    -0.045 A 
ATOM     34  C   UNL     1       4.247  -3.569  -3.906  0.00  0.00    +0.005 A 
ATOM     35  C   UNL     1       4.846  -3.978  -5.083  0.00  0.00    +0.020 A 
ATOM     36  C   UNL     1       4.799  -3.164  -6.202  0.00  0.00    +0.041 A 
ATOM     37  C   UNL     1       4.153  -1.942  -6.141  0.00  0.00    +0.020 A 
ATOM     38  C   UNL     1       3.551  -1.537  -4.965  0.00  0.00    +0.005 A 
ATOM     39 CL   UNL     1       5.551  -3.677  -7.680  0.00  0.00    -0.084 Cl
ENDBRANCH  32  33
ENDBRANCH  26  32
ENDBRANCH  22  26
ENDBRANCH   1  23
TORSDOF 8
