REMARK  Name = ZINC08684502
REMARK  10 active torsions:
REMARK  status: ('A' for Active; 'I' for Inactive)
REMARK    1  A    between atoms: C_1  and  C_2
REMARK    2  A    between atoms: C_2  and  C_3
REMARK    3  A    between atoms: C_3  and  S_4
REMARK    4  A    between atoms: S_4  and  C_7
REMARK    5  A    between atoms: C_9  and  S_19
REMARK    6  A    between atoms: C_10  and  N_12
REMARK    7  A    between atoms: N_12  and  C_13
REMARK    8  A    between atoms: C_13  and  C_14
REMARK    9  A    between atoms: S_19  and  C_22
REMARK   10  A    between atoms: C_25  and  C_28
REMARK                            x       y       z     vdW  Elec       q    Type
REMARK                         _______ _______ _______ _____ _____    ______ ____
ROOT
ATOM      1  C   UNL     1       1.586  -2.744  -2.752  0.00  0.00    +0.219 A 
ATOM      2  N   UNL     1       2.870  -2.945  -2.953  0.00  0.00    -0.201 NA
ATOM      3  C   UNL     1       3.340  -3.267  -4.140  0.00  0.00    +0.212 A 
ATOM      4  C   UNL     1       2.480  -3.397  -5.192  0.00  0.00    +0.113 A 
ATOM      5  S   UNL     1       0.924  -3.036  -4.387  0.00  0.00    -0.032 S 
ENDROOT
BRANCH   1   6
ATOM      6  S   UNL     1       0.743  -2.311  -1.267  0.00  0.00    +0.020 S 
ATOM      7  O   UNL     1       1.576  -2.795  -0.222  0.00  0.00    -0.167 OA
ATOM      8  O   UNL     1      -0.574  -2.818  -1.437  0.00  0.00    -0.167 OA
BRANCH   6   9
ATOM      9  C   UNL     1       0.718  -0.497  -1.257  0.00  0.00    +0.174 C 
BRANCH   9  11
ATOM     10  C   UNL     1      -0.019   1.526   0.010  0.00  0.00    +0.005 C 
ATOM     11  C   UNL     1       0.002  -0.004   0.002  0.00  0.00    +0.020 C 
ENDBRANCH   9  11
ENDBRANCH   6   9
ENDBRANCH   1   6
BRANCH   3  12
ATOM     12  S   UNL     1       5.067  -3.527  -4.370  0.00  0.00    +0.044 S 
ATOM     13  O   UNL     1       5.333  -3.298  -5.747  0.00  0.00    -0.163 OA
ATOM     14  O   UNL     1       5.727  -2.809  -3.336  0.00  0.00    -0.163 OA
BRANCH  12  15
ATOM     15  C   UNL     1       5.380  -5.236  -4.075  0.00  0.00    +0.095 A 
ATOM     16  C   UNL     1       5.687  -5.673  -2.799  0.00  0.00    +0.028 A 
ATOM     17  C   UNL     1       5.932  -7.013  -2.568  0.00  0.00    +0.005 A 
ATOM     18  C   UNL     1       5.871  -7.917  -3.612  0.00  0.00    -0.050 A 
ATOM     19  C   UNL     1       5.564  -7.481  -4.887  0.00  0.00    +0.005 A 
ATOM     20  C   UNL     1       5.314  -6.141  -5.118  0.00  0.00    +0.028 A 
ATOM     21  C   UNL     1       6.139  -9.379  -3.360  0.00  0.00    +0.044 C 
ENDBRANCH  12  15
ENDBRANCH   3  12
BRANCH   4  22
ATOM     22  N   UNL     1       2.741  -3.725  -6.524  0.00  0.00    -0.329 N 
ATOM     23  H   UNL     1       3.651  -3.899  -6.811  0.00  0.00    +0.147 HD
BRANCH  22  24
ATOM     24  C   UNL     1       1.641  -3.806  -7.488  0.00  0.00    +0.176 C 
BRANCH  24  25
ATOM     25  C   UNL     1       2.187  -4.174  -8.843  0.00  0.00    +0.122 A 
ATOM     26  C   UNL     1       2.338  -5.424  -9.318  0.00  0.00    +0.046 A 
ATOM     27  C   UNL     1       2.879  -5.306 -10.618  0.00  0.00    +0.041 A 
ATOM     28  C   UNL     1       3.026  -3.991 -10.862  0.00  0.00    +0.195 A 
ATOM     29  O   UNL     1       2.599  -3.310  -9.785  0.00  0.00    -0.466 OA
ENDBRANCH  24  25
ENDBRANCH  22  24
ENDBRANCH   4  22
TORSDOF 8
