REMARK  Name = ZINC09509317
REMARK  11 active torsions:
REMARK  status: ('A' for Active; 'I' for Inactive)
REMARK    1  A    between atoms: C_1  and  C_2
REMARK    2  A    between atoms: C_5  and  C_35
REMARK    3  A    between atoms: C_5  and  C_36
REMARK    4  A    between atoms: N_11  and  C_15
REMARK    5  A    between atoms: C_15  and  C_16
REMARK    6  A    between atoms: N_18  and  C_19
REMARK    7  A    between atoms: C_19  and  C_20
REMARK    8  A    between atoms: C_20  and  C_22
REMARK    9  A    between atoms: C_20  and  N_75
REMARK   10  A    between atoms: C_25  and  O_28
REMARK   11  A    between atoms: O_28  and  C_29
REMARK                            x       y       z     vdW  Elec       q    Type
REMARK                         _______ _______ _______ _____ _____    ______ ____
ROOT
ATOM      1  C   UNL     1      -1.947   3.976   3.561  0.00  0.00    +0.231 C 
ATOM      2  O   UNL     1      -2.854   3.532   4.232  0.00  0.00    -0.274 OA
ATOM      3  N   UNL     1      -1.043   3.141   3.012  0.00  0.00    -0.315 N 
ATOM      4  H   UNL     1      -0.317   3.496   2.476  0.00  0.00    +0.149 HD
ENDROOT
BRANCH   1   5
ATOM      5  C   UNL     1      -1.830   5.462   3.342  0.00  0.00    +0.213 C 
BRANCH   5  15
ATOM      6  C   UNL     1      -3.740   9.775   8.262  0.00  0.00    +0.007 C 
ATOM      7  C   UNL     1      -3.731   8.355   7.687  0.00  0.00    -0.011 C 
ATOM      8  C   UNL     1      -4.609   7.454   8.552  0.00  0.00    +0.009 C 
ATOM      9  C   UNL     1      -4.611   6.023   8.025  0.00  0.00    -0.032 C 
ATOM     10  C   UNL     1      -4.947   5.948   6.546  0.00  0.00    +0.041 C 
ATOM     11  C   UNL     1      -4.270   6.982   5.671  0.00  0.00    +0.113 C 
ATOM     12  C   UNL     1      -4.302   8.382   6.269  0.00  0.00    +0.038 C 
ATOM     13  C   UNL     1      -2.858   6.586   5.311  0.00  0.00    +0.247 C 
ATOM     14  O   UNL     1      -1.864   6.646   6.001  0.00  0.00    -0.273 OA
ATOM     15  N   UNL     1      -2.922   6.146   4.036  0.00  0.00    -0.215 N 
ATOM     16  C   UNL     1      -4.105   6.438   3.481  0.00  0.00    +0.310 C 
ATOM     17  O   UNL     1      -4.382   6.211   2.320  0.00  0.00    -0.252 OA
ATOM     18  N   UNL     1      -4.950   7.010   4.356  0.00  0.00    -0.285 N 
ATOM     19  C   UNL     1      -5.689   5.237   8.802  0.00  0.00    +0.011 C 
ATOM     20  C   UNL     1      -3.262   5.356   8.310  0.00  0.00    +0.011 C 
ATOM     21  H   UNL     1      -5.830   7.372   4.178  0.00  0.00    +0.151 HD
ENDBRANCH   5  15
ENDBRANCH   1   5
BRANCH   3  22
ATOM     22  C   UNL     1      -1.157   1.696   3.225  0.00  0.00    +0.093 C 
BRANCH  22  23
ATOM     23  C   UNL     1      -0.081   0.974   2.411  0.00  0.00    -0.020 C 
BRANCH  23  29
ATOM     24  C   UNL     1      -1.565   1.716   0.648  0.00  0.00    -0.078 C 
ATOM     25  C   UNL     1      -1.606   2.270  -0.778  0.00  0.00    -0.019 C 
ATOM     26  C   UNL     1      -1.054   1.219  -1.745  0.00  0.00    -0.004 C 
ATOM     27  C   UNL     1       0.371   0.849  -1.325  0.00  0.00    -0.019 C 
ATOM     28  C   UNL     1       0.355   0.336   0.117  0.00  0.00    -0.078 C 
ATOM     29  N   UNL     1      -0.163   1.403   1.000  0.00  0.00    +0.385 N 
ATOM     30  H   UNL     1       0.408   2.246   0.874  0.00  0.00    -0.081 HD
ENDBRANCH  23  29
BRANCH  23  31
ATOM     31  C   UNL     1      -0.283  -0.516   2.521  0.00  0.00    -0.059 A 
ATOM     32  C   UNL     1      -1.471  -1.084   2.100  0.00  0.00    +0.005 A 
ATOM     33  C   UNL     1      -1.656  -2.450   2.195  0.00  0.00    +0.046 A 
ATOM     34  C   UNL     1      -0.654  -3.250   2.724  0.00  0.00    +0.120 A 
ATOM     35  C   UNL     1       0.535  -2.676   3.151  0.00  0.00    +0.046 A 
ATOM     36  C   UNL     1       0.718  -1.311   3.048  0.00  0.00    +0.005 A 
BRANCH  34  37
ATOM     37  O   UNL     1      -0.836  -4.593   2.824  0.00  0.00    -0.495 OA
ATOM     38  C   UNL     1      -2.085  -5.114   2.365  0.00  0.00    +0.277 C 
ENDBRANCH  34  37
ENDBRANCH  23  31
ENDBRANCH  22  23
ENDBRANCH   3  22
TORSDOF 7
