REMARK  Name = ZINC39563021
REMARK  6 active torsions:
REMARK  status: ('A' for Active; 'I' for Inactive)
REMARK    1  A    between atoms: C_1  and  C_2
REMARK    2  A    between atoms: C_2  and  C_4
REMARK    3  A    between atoms: C_2  and  N_11
REMARK    4  A    between atoms: C_12  and  C_14
REMARK    5  A    between atoms: C_14  and  O_15
REMARK    6  A    between atoms: O_15  and  C_16
REMARK                            x       y       z     vdW  Elec       q    Type
REMARK                         _______ _______ _______ _____ _____    ______ ____
ROOT
ATOM      1  C   UNL     1       0.526  -1.222   3.593  0.00  0.00    +0.326 C 
ENDROOT
BRANCH   1   3
ATOM      2  N   UNL     1       0.629  -0.500   1.230  0.00  0.00    -0.306 N 
ATOM      3  C   UNL     1      -0.119  -0.712   2.330  0.00  0.00    +0.251 C 
ATOM      4  O   UNL     1      -1.311  -0.491   2.305  0.00  0.00    -0.272 OA
ATOM      5  H   UNL     1       1.583  -0.676   1.250  0.00  0.00    +0.149 HD
BRANCH   2   7
ATOM      6  C   UNL     1      -0.038   1.525   0.032  0.00  0.00    +0.033 C 
ATOM      7  C   UNL     1       0.002  -0.004   0.002  0.00  0.00    +0.102 C 
BRANCH   7   8
ATOM      8  C   UNL     1       0.801  -0.463  -1.191  0.00  0.00    -0.009 A 
ATOM      9  C   UNL     1       2.154  -0.715  -1.061  0.00  0.00    +0.007 A 
ATOM     10  C   UNL     1       2.886  -1.136  -2.155  0.00  0.00    +0.000 A 
ATOM     11  C   UNL     1       2.267  -1.305  -3.380  0.00  0.00    +0.001 A 
ATOM     12  C   UNL     1       0.914  -1.053  -3.510  0.00  0.00    +0.020 A 
ATOM     13  C   UNL     1       0.179  -0.637  -2.414  0.00  0.00    +0.046 A 
ATOM     14 CL   UNL     1      -1.521  -0.326  -2.576  0.00  0.00    -0.083 Cl
ENDBRANCH   7   8
ENDBRANCH   2   7
ENDBRANCH   1   3
BRANCH   1  15
ATOM     15  O   UNL     1      -0.467  -1.364   4.611  0.00  0.00    -0.466 OA
BRANCH  15  16
ATOM     16  C   UNL     1      -0.050  -1.816   5.818  0.00  0.00    +0.227 A 
ATOM     17  C   UNL     1      -0.974  -1.990   6.881  0.00  0.00    +0.073 A 
ATOM     18  C   UNL     1      -2.425  -1.739   6.883  0.00  0.00    -0.023 A 
ATOM     19  C   UNL     1      -3.082  -1.986   8.027  0.00  0.00    -0.004 A 
ATOM     20  S   UNL     1      -1.839  -2.562   9.161  0.00  0.00    -0.073 S 
ATOM     21  C   UNL     1      -0.431  -2.466   8.089  0.00  0.00    +0.116 A 
ATOM     22  N   UNL     1       0.856  -2.726   8.210  0.00  0.00    -0.228 NA
ATOM     23  C   UNL     1       1.668  -2.544   7.187  0.00  0.00    +0.226 A 
ATOM     24  N   UNL     1       1.224  -2.107   6.022  0.00  0.00    -0.201 NA
ATOM     25  C   UNL     1      -4.554  -1.689   7.913  0.00  0.00    +0.043 C 
ATOM     26  C   UNL     1      -4.674  -0.805   6.653  0.00  0.00    +0.010 C 
ATOM     27  C   UNL     1      -3.436  -1.241   5.846  0.00  0.00    +0.037 C 
ENDBRANCH  15  16
ENDBRANCH   1  15
TORSDOF 5
