REMARK  Name = ZINC45349070
REMARK  2 active torsions:
REMARK  status: ('A' for Active; 'I' for Inactive)
REMARK    1  A    between atoms: C_4  and  C_7
REMARK    2  A    between atoms: C_9  and  C_19
REMARK                            x       y       z     vdW  Elec       q    Type
REMARK                         _______ _______ _______ _____ _____    ______ ____
ROOT
ATOM      1  C   UNL     1       3.572  -0.698  -0.044  0.00  0.00    +0.147 C 
ATOM      2  N   UNL     1       4.741  -0.143  -0.058  0.00  0.00    -0.254 NA
ATOM      3  C   UNL     1       5.976  -0.914  -0.048  0.00  0.00    +0.173 C 
ATOM      4  C   UNL     1       5.734  -2.349  -0.440  0.00  0.00    +0.041 C 
ATOM      5  C   UNL     1       4.485  -2.864  -0.405  0.00  0.00    +0.018 C 
ATOM      6  N   UNL     1       3.435  -2.070  -0.019  0.00  0.00    -0.301 N 
ATOM      7  C   UNL     1       4.222  -4.300  -0.774  0.00  0.00    +0.051 C 
ATOM      8  C   UNL     1       5.241  -4.756  -1.822  0.00  0.00    +0.014 C 
ATOM      9  C   UNL     1       6.649  -4.570  -1.246  0.00  0.00    +0.080 C 
ATOM     10  C   UNL     1       6.829  -3.133  -0.841  0.00  0.00    +0.163 C 
ATOM     11  O   UNL     1       7.940  -2.641  -0.860  0.00  0.00    -0.292 OA
ATOM     12  H   UNL     1       2.599  -2.471   0.266  0.00  0.00    +0.153 HD
ENDROOT
BRANCH   3  13
ATOM     13  C   UNL     1       6.569  -0.877   1.338  0.00  0.00    -0.000 A 
ATOM     14  C   UNL     1       6.450  -1.975   2.170  0.00  0.00    +0.010 A 
ATOM     15  C   UNL     1       6.993  -1.942   3.440  0.00  0.00    +0.039 A 
ATOM     16  C   UNL     1       7.656  -0.808   3.881  0.00  0.00    +0.125 A 
ATOM     17  C   UNL     1       7.775   0.291   3.047  0.00  0.00    +0.058 A 
ATOM     18  C   UNL     1       7.236   0.254   1.774  0.00  0.00    +0.049 A 
ATOM     19 CL   UNL     1       7.389   1.630   0.726  0.00  0.00    -0.083 Cl
ATOM     20  F   UNL     1       8.186  -0.775   5.123  0.00  0.00    -0.205 F 
ENDBRANCH   3  13
BRANCH   1  24
ATOM     21  C   UNL     1       0.115   1.698  -0.055  0.00  0.00    +0.023 A 
ATOM     22  C   UNL     1       1.348   2.329  -0.076  0.00  0.00    +0.042 A 
ATOM     23  C   UNL     1       2.493   1.545  -0.072  0.00  0.00    +0.152 A 
ATOM     24  C   UNL     1       2.361   0.156  -0.048  0.00  0.00    +0.138 A 
ATOM     25  N   UNL     1       1.159  -0.407  -0.028  0.00  0.00    -0.249 NA
ATOM     26  C   UNL     1       0.059   0.315  -0.031  0.00  0.00    +0.112 A 
ATOM     27  F   UNL     1       3.717   2.117  -0.093  0.00  0.00    -0.203 F 
ENDBRANCH   1  24
TORSDOF 2
