REMARK  Name = ZINC63628218
REMARK  12 active torsions:
REMARK  status: ('A' for Active; 'I' for Inactive)
REMARK    1  A    between atoms: C_1  and  C_2
REMARK    2  A    between atoms: C_2  and  O_3
REMARK    3  A    between atoms: O_3  and  C_4
REMARK    4  A    between atoms: C_6  and  C_16
REMARK    5  A    between atoms: C_8  and  O_13
REMARK    6  A    between atoms: C_9  and  O_10
REMARK    7  A    between atoms: O_10  and  C_11
REMARK    8  A    between atoms: C_11  and  C_12
REMARK    9  A    between atoms: O_13  and  C_14
REMARK   10  A    between atoms: C_14  and  C_15
REMARK   11  A    between atoms: N_18  and  C_19
REMARK   12  A    between atoms: C_22  and  C_25
REMARK                            x       y       z     vdW  Elec       q    Type
REMARK                         _______ _______ _______ _____ _____    ______ ____
ROOT
ATOM      1  C   UNL     1      -0.205  -4.957  -0.509  0.00  0.00    +0.248 C 
ATOM      2  O   UNL     1      -0.786  -4.496  -1.473  0.00  0.00    -0.270 OA
ATOM      3  N   UNL     1      -0.094  -6.292  -0.364  0.00  0.00    -0.281 N 
ATOM      4  H   UNL     1       0.427  -6.659   0.367  0.00  0.00    +0.155 HD
ENDROOT
BRANCH   1   7
ATOM      5  C   UNL     1       0.812  -1.825   1.300  0.00  0.00    +0.166 A 
ATOM      6  C   UNL     1       0.265  -2.669   0.352  0.00  0.00    +0.062 A 
ATOM      7  C   UNL     1       0.379  -4.053   0.501  0.00  0.00    +0.044 A 
ATOM      8  C   UNL     1       1.047  -4.581   1.609  0.00  0.00    +0.062 A 
ATOM      9  C   UNL     1       1.593  -3.733   2.554  0.00  0.00    +0.166 A 
ATOM     10  C   UNL     1       1.482  -2.354   2.401  0.00  0.00    +0.204 A 
BRANCH   5  11
ATOM     11  O   UNL     1       0.702  -0.477   1.155  0.00  0.00    -0.488 OA
BRANCH  11  13
ATOM     12  C   UNL     1      -0.019   1.526   0.012  0.00  0.00    +0.048 C 
ATOM     13  C   UNL     1       0.002  -0.004   0.003  0.00  0.00    +0.226 C 
ENDBRANCH  11  13
ENDBRANCH   5  11
BRANCH  10  14
ATOM     14  O   UNL     1       2.024  -1.522   3.329  0.00  0.00    -0.485 OA
BRANCH  14  15
ATOM     15  C   UNL     1       1.191  -1.145   4.427  0.00  0.00    +0.226 C 
ATOM     16  C   UNL     1       1.968  -0.213   5.359  0.00  0.00    +0.048 C 
ENDBRANCH  14  15
ENDBRANCH  10  14
BRANCH   9  17
ATOM     17  O   UNL     1       2.242  -4.247   3.633  0.00  0.00    -0.488 OA
BRANCH  17  18
ATOM     18  C   UNL     1       2.323  -5.670   3.725  0.00  0.00    +0.226 C 
ATOM     19  C   UNL     1       3.083  -6.057   4.995  0.00  0.00    +0.048 C 
ENDBRANCH  17  18
ENDBRANCH   9  17
ENDBRANCH   1   7
BRANCH   3  20
ATOM     20  C   UNL     1      -0.730  -7.149  -1.268  0.00  0.00    +0.034 A 
ATOM     21  C   UNL     1      -1.263  -8.353  -0.829  0.00  0.00    +0.023 A 
ATOM     22  C   UNL     1      -1.890  -9.197  -1.724  0.00  0.00    +0.008 A 
ATOM     23  C   UNL     1      -1.987  -8.844  -3.058  0.00  0.00    -0.021 A 
ATOM     24  C   UNL     1      -1.457  -7.645  -3.499  0.00  0.00    +0.008 A 
ATOM     25  C   UNL     1      -0.834  -6.794  -2.607  0.00  0.00    +0.023 A 
BRANCH  23  26
ATOM     26  C   UNL     1      -2.671  -9.767  -4.032  0.00  0.00    +0.133 C 
ATOM     27  C   UNL     1      -4.063  -9.261  -4.341  0.00  0.00    +0.012 C 
ATOM     28  C   UNL     1      -4.086  -9.019  -5.672  0.00  0.00    -0.002 A 
ATOM     29  C   UNL     1      -5.132  -8.520  -6.573  0.00  0.00    +0.029 A 
ATOM     30  C   UNL     1      -4.852  -8.379  -7.889  0.00  0.00    +0.042 A 
ATOM     31  C   UNL     1      -3.589  -8.697  -8.412  0.00  0.00    +0.022 A 
ATOM     32  C   UNL     1      -2.579  -9.160  -7.647  0.00  0.00    +0.027 A 
ATOM     33  C   UNL     1      -2.763  -9.347  -6.249  0.00  0.00    +0.043 A 
ATOM     34  N   UNL     1      -1.952  -9.777  -5.311  0.00  0.00    -0.374 N 
ATOM     35 CL   UNL     1      -6.086  -7.790  -8.959  0.00  0.00    -0.084 Cl
ATOM     36  H   UNL     1      -1.031 -10.054  -5.440  0.00  0.00    +0.161 HD
ENDBRANCH  23  26
ENDBRANCH   3  20
TORSDOF 9
