REMARK  Name = ZINC10130874
REMARK  6 active torsions:
REMARK  status: ('A' for Active; 'I' for Inactive)
REMARK    1  A    between atoms: C_1  and  N_2
REMARK    2  A    between atoms: N_2  and  C_3
REMARK    3  A    between atoms: N_2  and  S_8
REMARK    4  A    between atoms: S_8  and  C_11
REMARK    5  A    between atoms: C_14  and  C_17
REMARK    6  A    between atoms: C_23  and  C_25
REMARK                            x       y       z     vdW  Elec       q    Type
REMARK                         _______ _______ _______ _____ _____    ______ ____
ROOT
ATOM      1  C   UNL     1      -1.266  -0.764   0.011  0.00  0.00    +0.252 C 
ATOM      2  O   UNL     1      -2.328  -0.173   0.024  0.00  0.00    -0.270 OA
ATOM      3  N   UNL     1      -1.244  -2.111   0.003  0.00  0.00    -0.234 N 
ATOM      4  C   UNL     1      -2.432  -2.823   0.011  0.00  0.00    +0.315 A 
ATOM      5  N   UNL     1      -3.641  -2.314   0.032  0.00  0.00    -0.092 NA
ATOM      6  N   UNL     1      -4.506  -3.267   0.031  0.00  0.00    -0.106 NA
ATOM      7  C   UNL     1      -3.883  -4.420   0.018  0.00  0.00    +0.250 A 
ATOM      8  O   UNL     1      -2.557  -4.163   0.005  0.00  0.00    -0.405 OA
ATOM      9  H   UNL     1      -0.396  -2.583  -0.008  0.00  0.00    +0.160 HD
ENDROOT
BRANCH   7  10
ATOM     10  C   UNL     1      -4.515  -5.756   0.018  0.00  0.00    +0.039 A 
ATOM     11  C   UNL     1      -3.726  -6.908  -0.002  0.00  0.00    +0.013 A 
ATOM     12  C   UNL     1      -4.329  -8.145   0.001  0.00  0.00    +0.004 A 
ATOM     13  C   UNL     1      -5.715  -8.261   0.012  0.00  0.00    -0.044 A 
ATOM     14  C   UNL     1      -6.499  -7.128   0.029  0.00  0.00    -0.043 A 
ATOM     15  C   UNL     1      -5.902  -5.876   0.032  0.00  0.00    +0.017 A 
ATOM     16  C   UNL     1      -8.005  -7.184   0.051  0.00  0.00    +0.035 C 
ATOM     17  C   UNL     1      -8.497  -8.563  -0.383  0.00  0.00    +0.005 C 
ATOM     18  C   UNL     1      -7.760  -9.622   0.445  0.00  0.00    +0.005 C 
ATOM     19  C   UNL     1      -6.300  -9.650  -0.000  0.00  0.00    +0.035 C 
ENDBRANCH   7  10
BRANCH   1  23
ATOM     20  C   UNL     1       2.378   1.419  -0.013  0.00  0.00    +0.106 A 
ATOM     21  C   UNL     1       1.170   2.095   0.002  0.00  0.00    +0.029 A 
ATOM     22  C   UNL     1      -0.017   1.392   0.010  0.00  0.00    +0.015 A 
ATOM     23  C   UNL     1       0.002  -0.004   0.002  0.00  0.00    +0.037 A 
ATOM     24  C   UNL     1       1.224  -0.679  -0.013  0.00  0.00    +0.015 A 
ATOM     25  C   UNL     1       2.404   0.036  -0.021  0.00  0.00    +0.029 A 
BRANCH  20  26
ATOM     26  S   UNL     1       3.889   2.325  -0.022  0.00  0.00    +0.061 S 
ATOM     27  O   UNL     1       3.603   3.599   0.539  0.00  0.00    -0.153 OA
ATOM     28  O   UNL     1       4.883   1.462   0.514  0.00  0.00    -0.153 OA
BRANCH  26  30
ATOM     29  C   UNL     1       5.125   1.612  -2.320  0.00  0.00    +0.132 C 
ATOM     30  N   UNL     1       4.294   2.585  -1.607  0.00  0.00    -0.177 NA
BRANCH  30  31
ATOM     31  C   UNL     1       3.821   3.789  -2.295  0.00  0.00    +0.080 C 
ATOM     32  C   UNL     1       3.017   3.397  -3.552  0.00  0.00    +0.020 C 
ATOM     33  C   UNL     1       3.395   4.477  -4.596  0.00  0.00    +0.002 C 
ATOM     34  C   UNL     1       4.901   4.709  -4.317  0.00  0.00    +0.002 C 
ATOM     35  C   UNL     1       5.019   4.623  -2.781  0.00  0.00    +0.020 C 
ENDBRANCH  30  31
ENDBRANCH  26  30
ENDBRANCH  20  26
ENDBRANCH   1  23
TORSDOF 5
