REMARK  Name = ZINC36492572
REMARK  7 active torsions:
REMARK  status: ('A' for Active; 'I' for Inactive)
REMARK    1  A    between atoms: C_3  and  N_33
REMARK    2  A    between atoms: C_6  and  C_7
REMARK    3  A    between atoms: N_9  and  C_10
REMARK    4  A    between atoms: N_9  and  C_16
REMARK    5  A    between atoms: C_16  and  C_18
REMARK    6  A    between atoms: C_16  and  C_24
REMARK    7  A    between atoms: N_26  and  C_27
REMARK                            x       y       z     vdW  Elec       q    Type
REMARK                         _______ _______ _______ _____ _____    ______ ____
ROOT
ATOM      1  C   UNL     1      -3.278  -0.740   2.063  0.00  0.00    +0.247 C 
ATOM      2  O   UNL     1      -4.204  -1.015   2.800  0.00  0.00    -0.270 OA
ATOM      3  N   UNL     1      -3.106  -1.423   0.914  0.00  0.00    -0.283 N 
ENDROOT
BRANCH   1   9
ATOM      4  C   UNL     1      -2.749   1.677   2.360  0.00  0.00    +0.015 A 
ATOM      5  C   UNL     1      -1.869   2.683   2.701  0.00  0.00    +0.033 A 
ATOM      6  C   UNL     1      -0.584   2.373   3.109  0.00  0.00    +0.126 A 
ATOM      7  C   UNL     1      -0.172   1.054   3.178  0.00  0.00    +0.033 A 
ATOM      8  C   UNL     1      -1.042   0.038   2.839  0.00  0.00    +0.015 A 
ATOM      9  C   UNL     1      -2.340   0.344   2.427  0.00  0.00    +0.037 A 
BRANCH   6  10
ATOM     10  N   UNL     1       0.355   3.458   3.473  0.00  0.00    +0.056 N 
ATOM     11  O   UNL     1      -0.002   4.612   3.414  0.00  0.00    -0.126 OA
ATOM     12  O   UNL     1       1.478   3.191   3.831  0.00  0.00    -0.126 OA
ENDBRANCH   6  10
ENDBRANCH   1   9
BRANCH   3  13
ATOM     13  C   UNL     1      -1.915  -2.256   0.728  0.00  0.00    +0.077 C 
ATOM     14  C   UNL     1      -0.760  -1.389   0.222  0.00  0.00    +0.022 C 
ATOM     15  C   UNL     1       0.483  -2.259   0.028  0.00  0.00    +0.002 C 
ATOM     16  C   UNL     1       0.872  -2.898   1.363  0.00  0.00    +0.000 C 
ATOM     17  C   UNL     1      -0.282  -3.764   1.869  0.00  0.00    +0.002 C 
ATOM     18  C   UNL     1      -1.526  -2.894   2.063  0.00  0.00    +0.022 C 
ENDBRANCH   3  13
BRANCH   3  19
ATOM     19  C   UNL     1      -4.109  -1.331  -0.150  0.00  0.00    +0.166 C 
BRANCH  19  20
ATOM     20  C   UNL     1      -3.460  -0.771  -1.417  0.00  0.00    +0.019 C 
ATOM     21  C   UNL     1      -3.143   0.712  -1.215  0.00  0.00    +0.006 C 
ATOM     22  C   UNL     1      -2.494   1.272  -2.482  0.00  0.00    +0.000 C 
ATOM     23  C   UNL     1      -3.456   1.112  -3.661  0.00  0.00    +0.000 C 
ATOM     24  C   UNL     1      -3.772  -0.371  -3.863  0.00  0.00    +0.000 C 
ATOM     25  C   UNL     1      -4.421  -0.931  -2.596  0.00  0.00    +0.006 C 
ENDBRANCH  19  20
BRANCH  19  26
ATOM     26  C   UNL     1      -4.665  -2.703  -0.435  0.00  0.00    +0.234 C 
ATOM     27  O   UNL     1      -3.955  -3.555  -0.926  0.00  0.00    -0.274 OA
ATOM     28  N   UNL     1      -5.951  -2.983  -0.143  0.00  0.00    -0.311 N 
ATOM     29  H   UNL     1      -6.522  -2.298   0.238  0.00  0.00    +0.149 HD
BRANCH  28  30
ATOM     30  C   UNL     1      -6.486  -4.322  -0.401  0.00  0.00    +0.073 C 
ATOM     31  C   UNL     1      -6.949  -4.414  -1.856  0.00  0.00    +0.022 C 
ATOM     32  C   UNL     1      -7.508  -5.812  -2.126  0.00  0.00    +0.002 C 
ATOM     33  C   UNL     1      -8.693  -6.076  -1.196  0.00  0.00    +0.000 C 
ATOM     34  C   UNL     1      -8.230  -5.984   0.259  0.00  0.00    +0.002 C 
ATOM     35  C   UNL     1      -7.671  -4.586   0.529  0.00  0.00    +0.022 C 
ENDBRANCH  28  30
ENDBRANCH  19  26
ENDBRANCH   3  19
TORSDOF 7
