REMARK  Name = ZINC17114367
REMARK  5 active torsions:
REMARK  status: ('A' for Active; 'I' for Inactive)
REMARK    1  A    between atoms: C_1  and  C_2
REMARK    2  A    between atoms: C_2  and  C_4
REMARK    3  A    between atoms: C_2  and  O_19
REMARK    4  A    between atoms: N_6  and  N_7
REMARK    5  A    between atoms: O_19  and  C_20
REMARK                            x       y       z     vdW  Elec       q    Type
REMARK                         _______ _______ _______ _____ _____    ______ ____
ROOT
ATOM      1  C   UNL     1       0.013   1.200   0.258  0.00  0.00    +0.270 C 
ATOM      2  O   UNL     1       0.062  -0.001   0.421  0.00  0.00    -0.270 OA
ATOM      3  N   UNL     1      -1.173   1.839   0.307  0.00  0.00    -0.221 N 
ATOM      4  H   UNL     1      -1.212   2.800   0.177  0.00  0.00    +0.174 HD
ENDROOT
BRANCH   3   5
ATOM      5  N   UNL     1      -2.349   1.116   0.547  0.00  0.00    -0.137 N 
ATOM      6  C   UNL     1      -3.014   1.118   1.721  0.00  0.00    +0.263 C 
ATOM      7  O   UNL     1      -2.720   1.722   2.730  0.00  0.00    -0.271 OA
ATOM      8  C   UNL     1      -4.203   0.208   1.512  0.00  0.00    +0.114 C 
ATOM      9  C   UNL     1      -5.503   0.984   1.695  0.00  0.00    +0.035 C 
ATOM     10  C   UNL     1      -6.694   0.053   1.452  0.00  0.00    +0.003 C 
ATOM     11  C   UNL     1      -6.635  -1.117   2.438  0.00  0.00    +0.000 C 
ATOM     12  C   UNL     1      -5.337  -1.899   2.225  0.00  0.00    +0.003 C 
ATOM     13  C   UNL     1      -4.141  -0.976   2.471  0.00  0.00    +0.035 C 
ATOM     14  N   UNL     1      -4.065  -0.246   0.123  0.00  0.00    -0.284 N 
ATOM     15  C   UNL     1      -2.954   0.342  -0.362  0.00  0.00    +0.326 C 
ATOM     16  O   UNL     1      -2.546   0.185  -1.496  0.00  0.00    -0.251 OA
ATOM     17  H   UNL     1      -4.659  -0.847  -0.353  0.00  0.00    +0.151 HD
ENDBRANCH   3   5
BRANCH   1  19
ATOM     18  C   UNL     1       1.538   2.936   1.157  0.00  0.00    +0.062 C 
ATOM     19  C   UNL     1       1.277   1.977  -0.006  0.00  0.00    +0.257 C 
BRANCH  19  20
ATOM     20  O   UNL     1       2.375   1.071  -0.132  0.00  0.00    -0.480 OA
BRANCH  20  21
ATOM     21  C   UNL     1       3.446   1.496  -0.854  0.00  0.00    +0.123 A 
ATOM     22  C   UNL     1       3.485   2.795  -1.340  0.00  0.00    +0.046 A 
ATOM     23  C   UNL     1       4.576   3.227  -2.068  0.00  0.00    +0.005 A 
ATOM     24  C   UNL     1       5.624   2.362  -2.324  0.00  0.00    +0.020 A 
ATOM     25  C   UNL     1       5.586   1.065  -1.845  0.00  0.00    +0.044 A 
ATOM     26  C   UNL     1       4.498   0.630  -1.111  0.00  0.00    +0.065 A 
ATOM     27 CL   UNL     1       6.903  -0.018  -2.168  0.00  0.00    -0.083 Cl
ENDBRANCH  20  21
ENDBRANCH  19  20
ENDBRANCH   1  19
TORSDOF 4
