REMARK  Name = ZINC35913041
REMARK  9 active torsions:
REMARK  status: ('A' for Active; 'I' for Inactive)
REMARK    1  A    between atoms: C_1  and  C_2
REMARK    2  A    between atoms: C_3  and  C_28
REMARK    3  A    between atoms: C_4  and  C_20
REMARK    4  A    between atoms: C_10  and  C_15
REMARK    5  A    between atoms: C_23  and  S_26
REMARK    6  A    between atoms: S_26  and  C_27
REMARK    7  A    between atoms: C_28  and  O_30
REMARK    8  A    between atoms: O_30  and  C_31
REMARK    9  A    between atoms: C_31  and  C_32
REMARK                            x       y       z     vdW  Elec       q    Type
REMARK                         _______ _______ _______ _____ _____    ______ ____
ROOT
ATOM      1  C   UNL     1      -0.018   1.503   0.010  0.00  0.00    +0.061 C 
ATOM      2  C   UNL     1       0.002  -0.004   0.002  0.00  0.00    +0.016 C 
ATOM      3  C   UNL     1      -1.155  -0.687   0.004  0.00  0.00    +0.065 C 
ATOM      4  C   UNL     1      -1.174  -2.188   0.004  0.00  0.00    +0.092 C 
ATOM      5  C   UNL     1       0.160  -2.745  -0.427  0.00  0.00    +0.024 C 
ATOM      6  C   UNL     1       1.268  -1.974  -0.407  0.00  0.00    +0.016 C 
ATOM      7  N   UNL     1       1.198  -0.667  -0.013  0.00  0.00    -0.321 N 
ATOM      8  C   UNL     1       2.608  -2.531  -0.819  0.00  0.00    +0.060 C 
ATOM      9  C   UNL     1       2.410  -3.613  -1.883  0.00  0.00    +0.039 C 
ATOM     10  C   UNL     1       1.508  -4.706  -1.303  0.00  0.00    +0.088 C 
ATOM     11  C   UNL     1       0.215  -4.085  -0.850  0.00  0.00    +0.162 C 
ATOM     12  O   UNL     1      -0.800  -4.753  -0.848  0.00  0.00    -0.292 OA
ATOM     13  H   UNL     1       2.006  -0.206   0.263  0.00  0.00    +0.152 HD
ENDROOT
BRANCH   4  14
ATOM     14  C   UNL     1      -1.489  -2.679   1.393  0.00  0.00    -0.035 A 
ATOM     15  C   UNL     1      -0.658  -2.345   2.447  0.00  0.00    +0.005 A 
ATOM     16  C   UNL     1      -0.943  -2.794   3.722  0.00  0.00    +0.015 A 
ATOM     17  C   UNL     1      -2.066  -3.581   3.945  0.00  0.00    +0.008 A 
ATOM     18  C   UNL     1      -2.899  -3.914   2.883  0.00  0.00    +0.015 A 
ATOM     19  C   UNL     1      -2.610  -3.458   1.612  0.00  0.00    +0.005 A 
BRANCH  17  20
ATOM     20  S   UNL     1      -2.433  -4.157   5.569  0.00  0.00    -0.129 S 
ATOM     21  C   UNL     1      -3.956  -5.120   5.359  0.00  0.00    +0.090 C 
ENDBRANCH  17  20
ENDBRANCH   4  14
BRANCH   9  22
ATOM     22  C   UNL     1       3.745  -4.201  -2.262  0.00  0.00    -0.006 A 
ATOM     23  C   UNL     1       4.356  -4.223  -3.472  0.00  0.00    +0.011 A 
ATOM     24  C   UNL     1       5.596  -4.824  -3.586  0.00  0.00    +0.008 A 
ATOM     25  C   UNL     1       6.164  -5.374  -2.485  0.00  0.00    +0.045 A 
ATOM     26  S   UNL     1       4.936  -5.041  -1.231  0.00  0.00    -0.101 S 
ENDBRANCH   9  22
BRANCH   3  27
ATOM     27  C   UNL     1      -2.380   0.021   0.006  0.00  0.00    +0.338 C 
ATOM     28  O   UNL     1      -2.378   1.238   0.007  0.00  0.00    -0.245 OA
BRANCH  27  29
ATOM     29  O   UNL     1      -3.549  -0.652   0.008  0.00  0.00    -0.459 OA
BRANCH  29  30
ATOM     30  C   UNL     1      -4.747   0.128   0.011  0.00  0.00    +0.264 C 
BRANCH  30  31
ATOM     31  C   UNL     1      -5.961  -0.802   0.013  0.00  0.00    +0.156 C 
ATOM     32  C   UNL     1      -7.257   0.028  -0.107  0.00  0.00    +0.037 C 
ATOM     33  C   UNL     1      -8.218  -0.721   0.857  0.00  0.00    +0.031 C 
ATOM     34  C   UNL     1      -7.229  -1.191   1.952  0.00  0.00    +0.160 C 
ATOM     35  O   UNL     1      -6.019  -1.524   1.249  0.00  0.00    -0.373 OA
ENDBRANCH  30  31
ENDBRANCH  29  30
ENDBRANCH  27  29
ENDBRANCH   3  27
TORSDOF 7
