REMARK  Name = ZINC39228098
REMARK  3 active torsions:
REMARK  status: ('A' for Active; 'I' for Inactive)
REMARK    1  A    between atoms: C_1  and  C_2
REMARK    2  A    between atoms: C_8  and  C_10
REMARK    3  A    between atoms: C_12  and  O_37
REMARK                            x       y       z     vdW  Elec       q    Type
REMARK                         _______ _______ _______ _____ _____    ______ ____
ROOT
ATOM      1  C   UNL     1       2.990  -3.862   1.223  0.00  0.00    +0.107 C 
ATOM      2  C   UNL     1       1.999  -4.649   2.086  0.00  0.00    +0.127 C 
ATOM      3  C   UNL     1       2.692  -5.125   3.364  0.00  0.00    +0.032 C 
ATOM      4  C   UNL     1       3.885  -6.014   3.006  0.00  0.00    +0.004 C 
ATOM      5  C   UNL     1       4.869  -5.214   2.152  0.00  0.00    -0.024 C 
ATOM      6  C   UNL     1       4.171  -4.764   0.866  0.00  0.00    +0.004 C 
ATOM      7  C   UNL     1       5.169  -4.005  -0.012  0.00  0.00    -0.005 C 
ATOM      8  C   UNL     1       6.369  -4.913  -0.288  0.00  0.00    -0.020 C 
ATOM      9  C   UNL     1       7.374  -4.194  -1.152  0.00  0.00    +0.006 A 
ATOM     10  H   UNL     1       6.245  -3.193  -2.587  0.00  0.00    +0.166 HD
ATOM     11  C   UNL     1       8.709  -4.266  -0.933  0.00  0.00    -0.022 A 
ATOM     12  C   UNL     1       9.351  -3.460  -1.946  0.00  0.00    +0.003 A 
ATOM     13  C   UNL     1      10.690  -3.163  -2.217  0.00  0.00    +0.010 A 
ATOM     14  C   UNL     1      10.940  -2.341  -3.289  0.00  0.00    +0.001 A 
ATOM     15  C   UNL     1       9.922  -1.823  -4.072  0.00  0.00    +0.002 A 
ATOM     16  C   UNL     1       8.588  -2.100  -3.826  0.00  0.00    +0.026 A 
ATOM     17  C   UNL     1       8.304  -2.932  -2.746  0.00  0.00    +0.047 A 
ATOM     18  N   UNL     1       7.126  -3.397  -2.235  0.00  0.00    -0.359 N 
ATOM     19  C   UNL     1       9.323  -5.068   0.187  0.00  0.00    +0.019 C 
ATOM     20  C   UNL     1       8.250  -6.021   0.734  0.00  0.00    -0.073 C 
ATOM     21  N   UNL     1       7.011  -5.276   0.983  0.00  0.00    +0.386 N 
ATOM     22  C   UNL     1       6.080  -6.076   1.792  0.00  0.00    -0.074 C 
ATOM     23  H   UNL     1       7.236  -4.433   1.488  0.00  0.00    -0.081 HD
ENDROOT
BRANCH   1  31
ATOM     24  C   UNL     1       2.269   1.991  -0.815  0.00  0.00    +0.007 C 
ATOM     25  C   UNL     1       1.659   0.627  -0.487  0.00  0.00    -0.011 C 
ATOM     26  C   UNL     1       1.842  -0.314  -1.681  0.00  0.00    +0.022 C 
ATOM     27  C   UNL     1       1.199  -1.667  -1.363  0.00  0.00    +0.108 C 
ATOM     28  N   UNL     1       1.761  -2.174  -0.103  0.00  0.00    -0.301 N 
ATOM     29  C   UNL     1       1.718  -1.312   1.086  0.00  0.00    +0.108 C 
ATOM     30  C   UNL     1       2.356   0.037   0.741  0.00  0.00    +0.022 C 
ATOM     31  C   UNL     1       2.305  -3.405  -0.040  0.00  0.00    +0.221 C 
ATOM     32  O   UNL     1       2.244  -4.145  -0.999  0.00  0.00    -0.275 OA
ENDBRANCH   1  31
BRANCH   2  33
ATOM     33  O   UNL     1       1.526  -5.781   1.353  0.00  0.00    -0.391 OA
ATOM     34  H   UNL     1       0.893  -6.327   1.839  0.00  0.00    +0.210 HD
ENDBRANCH   2  33
TORSDOF 2
