REMARK  Name = ZINC01312656
REMARK  8 active torsions:
REMARK  status: ('A' for Active; 'I' for Inactive)
REMARK    1  A    between atoms: C_4  and  N_35
REMARK    2  A    between atoms: C_5  and  C_7
REMARK    3  A    between atoms: C_10  and  C_12
REMARK    4  A    between atoms: C_14  and  C_26
REMARK    5  A    between atoms: C_16  and  C_21
REMARK    6  A    between atoms: C_16  and  O_25
REMARK    7  A    between atoms: C_18  and  O_20
REMARK    8  A    between atoms: C_26  and  C_28
REMARK                            x       y       z     vdW  Elec       q    Type
REMARK                         _______ _______ _______ _____ _____    ______ ____
ROOT
ATOM      1  C   UNL     1      -0.031   1.887  -1.442  0.00  0.00    +0.156 C 
ATOM      2  C   UNL     1       1.054   1.400  -0.469  0.00  0.00    +0.151 C 
ATOM      3  C   UNL     1       0.670   1.844   0.945  0.00  0.00    +0.270 C 
ATOM      4  N   UNL     1       0.323   3.261   0.961  0.00  0.00    -0.193 NA
ATOM      5  C   UNL     1      -0.026   3.926  -0.088  0.00  0.00    +0.279 C 
ATOM      6  N   UNL     1      -0.092   3.353  -1.334  0.00  0.00    -0.289 N 
ATOM      7  H   UNL     1      -0.177   3.904  -2.128  0.00  0.00    +0.151 HD
ENDROOT
BRANCH   1  11
ATOM      8  C   UNL     1      -3.052  -0.107  -0.948  0.00  0.00    +0.137 A 
ATOM      9  C   UNL     1      -3.367   0.968  -0.177  0.00  0.00    +0.050 A 
ATOM     10  C   UNL     1      -2.278   1.858  -0.258  0.00  0.00    +0.047 A 
ATOM     11  C   UNL     1      -1.362   1.290  -1.066  0.00  0.00    +0.127 A 
ATOM     12  O   UNL     1      -1.836   0.105  -1.486  0.00  0.00    -0.458 OA
BRANCH   8  17
ATOM     13  C   UNL     1      -5.141  -3.156  -0.284  0.00  0.00    +0.001 A 
ATOM     14  C   UNL     1      -5.491  -3.528  -1.570  0.00  0.00    +0.002 A 
ATOM     15  C   UNL     1      -5.050  -2.790  -2.654  0.00  0.00    +0.033 A 
ATOM     16  C   UNL     1      -4.261  -1.675  -2.459  0.00  0.00    +0.137 A 
ATOM     17  C   UNL     1      -3.901  -1.298  -1.165  0.00  0.00    +0.047 A 
ATOM     18  C   UNL     1      -4.349  -2.046  -0.075  0.00  0.00    +0.014 A 
BRANCH  16  19
ATOM     19  N   UNL     1      -3.795  -0.884  -3.620  0.00  0.00    +0.057 N 
ATOM     20  O   UNL     1      -4.141  -1.193  -4.746  0.00  0.00    -0.126 OA
ATOM     21  O   UNL     1      -3.064   0.075  -3.449  0.00  0.00    -0.126 OA
ENDBRANCH  16  19
ENDBRANCH   8  17
ENDBRANCH   1  11
BRANCH   3  22
ATOM     22  C   UNL     1       1.850   1.603   1.887  0.00  0.00    +0.440 C 
ATOM     23  F   UNL     1       2.912   2.440   1.529  0.00  0.00    -0.166 F 
ATOM     24  F   UNL     1       1.462   1.880   3.203  0.00  0.00    -0.166 F 
ATOM     25  F   UNL     1       2.257   0.268   1.793  0.00  0.00    -0.166 F 
ENDBRANCH   3  22
BRANCH   5  26
ATOM     26  O   UNL     1      -0.338   5.234   0.044  0.00  0.00    -0.482 OA
ATOM     27  H   UNL     1      -0.268   5.565   0.950  0.00  0.00    +0.295 HD
ENDBRANCH   5  26
BRANCH   3  28
ATOM     28  O   UNL     1      -0.452   1.080   1.391  0.00  0.00    -0.361 OA
ATOM     29  H   UNL     1      -0.801   1.357   2.249  0.00  0.00    +0.213 HD
ENDBRANCH   3  28
BRANCH   2  30
ATOM     30  C   UNL     1       2.382   2.003  -0.847  0.00  0.00    +0.173 C 
ATOM     31  O   UNL     1       2.500   3.207  -0.931  0.00  0.00    -0.292 OA
BRANCH  30  32
ATOM     32  C   UNL     1       3.536   1.130  -1.113  0.00  0.00    +0.018 A 
ATOM     33  C   UNL     1       3.378  -0.260  -1.128  0.00  0.00    +0.013 A 
ATOM     34  C   UNL     1       4.463  -1.071  -1.382  0.00  0.00    +0.020 A 
ATOM     35  C   UNL     1       5.710  -0.513  -1.614  0.00  0.00    +0.041 A 
ATOM     36  C   UNL     1       5.875   0.863  -1.595  0.00  0.00    +0.020 A 
ATOM     37  C   UNL     1       4.798   1.687  -1.347  0.00  0.00    +0.013 A 
ATOM     38 CL   UNL     1       7.072  -1.542  -1.927  0.00  0.00    -0.084 Cl
ENDBRANCH  30  32
ENDBRANCH   2  30
TORSDOF 8
