REMARK  Name = ZINC36617830
REMARK  9 active torsions:
REMARK  status: ('A' for Active; 'I' for Inactive)
REMARK    1  A    between atoms: C_1  and  C_2
REMARK    2  A    between atoms: C_2  and  O_3
REMARK    3  A    between atoms: O_3  and  C_4
REMARK    4  A    between atoms: C_7  and  N_10
REMARK    5  A    between atoms: C_11  and  C_29
REMARK    6  A    between atoms: C_21  and  C_22
REMARK    7  A    between atoms: C_32  and  O_37
REMARK    8  A    between atoms: C_33  and  O_35
REMARK    9  A    between atoms: O_35  and  C_36
REMARK                            x       y       z     vdW  Elec       q    Type
REMARK                         _______ _______ _______ _____ _____    ______ ____
ROOT
ATOM      1  N   UNL     1       1.383  -6.330  -1.076  0.00  0.00    -0.255 N 
ATOM      2  C   UNL     1       1.990  -6.785  -2.338  0.00  0.00    +0.146 C 
ATOM      3  C   UNL     1       1.720  -8.256  -2.412  0.00  0.00    +0.027 C 
ATOM      4  C   UNL     1       1.001  -8.594  -1.312  0.00  0.00    +0.098 C 
ATOM      5  C   UNL     1       0.816  -7.399  -0.479  0.00  0.00    +0.266 C 
ATOM      6  O   UNL     1       0.236  -7.376   0.589  0.00  0.00    -0.268 OA
ATOM      7  N   UNL     1       0.530  -9.883  -1.110  0.00  0.00    -0.338 N 
ATOM      8  C   UNL     1      -0.494 -10.393  -2.030  0.00  0.00    +0.122 C 
ATOM      9  C   UNL     1      -0.167  -9.961  -3.463  0.00  0.00    +0.131 C 
ATOM     10  N   UNL     1       1.237 -10.131  -3.821  0.00  0.00    -0.382 N 
ATOM     11  C   UNL     1       2.128  -9.253  -3.405  0.00  0.00    +0.050 C 
ATOM     12  H   UNL     1       0.867 -10.430  -0.384  0.00  0.00    +0.146 HD
ATOM     13  H   UNL     1       1.514 -10.887  -4.362  0.00  0.00    +0.160 HD
ENDROOT
BRANCH  11  14
ATOM     14  C   UNL     1       3.514  -9.274  -3.931  0.00  0.00    -0.002 A 
ATOM     15  C   UNL     1       4.500  -8.490  -3.333  0.00  0.00    +0.011 A 
ATOM     16  C   UNL     1       5.788  -8.513  -3.827  0.00  0.00    +0.020 A 
ATOM     17  C   UNL     1       6.102  -9.313  -4.913  0.00  0.00    +0.041 A 
ATOM     18  C   UNL     1       5.126 -10.092  -5.510  0.00  0.00    +0.020 A 
ATOM     19  C   UNL     1       3.836 -10.082  -5.021  0.00  0.00    +0.011 A 
ATOM     20 CL   UNL     1       7.725  -9.337  -5.529  0.00  0.00    -0.084 Cl
ENDBRANCH  11  14
BRANCH   1  24
ATOM     21  C   UNL     1       1.427  -2.433   0.401  0.00  0.00    +0.121 A 
ATOM     22  C   UNL     1       0.803  -3.440   1.122  0.00  0.00    +0.047 A 
ATOM     23  C   UNL     1       0.788  -4.732   0.634  0.00  0.00    +0.027 A 
ATOM     24  C   UNL     1       1.398  -5.022  -0.580  0.00  0.00    +0.038 A 
ATOM     25  C   UNL     1       2.022  -4.012  -1.302  0.00  0.00    +0.027 A 
ATOM     26  C   UNL     1       2.032  -2.720  -0.814  0.00  0.00    +0.047 A 
BRANCH  21  27
ATOM     27  O   UNL     1       1.441  -1.161   0.883  0.00  0.00    -0.492 OA
BRANCH  27  29
ATOM     28  C   UNL     1       0.918   0.542   2.516  0.00  0.00    +0.048 C 
ATOM     29  C   UNL     1       0.800  -0.937   2.140  0.00  0.00    +0.225 C 
ENDBRANCH  27  29
ENDBRANCH  21  27
ENDBRANCH   1  24
BRANCH   2  30
ATOM     30  C   UNL     1       1.353  -6.078  -3.506  0.00  0.00    -0.018 A 
ATOM     31  C   UNL     1      -0.006  -5.822  -3.499  0.00  0.00    +0.009 A 
ATOM     32  C   UNL     1      -0.595  -5.173  -4.569  0.00  0.00    +0.049 A 
ATOM     33  C   UNL     1       0.176  -4.778  -5.650  0.00  0.00    +0.158 A 
ATOM     34  C   UNL     1       1.543  -5.036  -5.656  0.00  0.00    +0.162 A 
ATOM     35  C   UNL     1       2.129  -5.682  -4.579  0.00  0.00    +0.055 A 
BRANCH  34  36
ATOM     36  O   UNL     1       2.304  -4.650  -6.715  0.00  0.00    -0.491 OA
ATOM     37  C   UNL     1       3.701  -4.947  -6.653  0.00  0.00    +0.277 C 
ENDBRANCH  34  36
BRANCH  33  38
ATOM     38  O   UNL     1      -0.403  -4.141  -6.703  0.00  0.00    -0.503 OA
ATOM     39  H   UNL     1      -0.422  -3.178  -6.617  0.00  0.00    +0.292 HD
ENDBRANCH  33  38
ENDBRANCH   2  30
TORSDOF 7
