REMARK  Name = ZINC41586509
REMARK  8 active torsions:
REMARK  status: ('A' for Active; 'I' for Inactive)
REMARK    1  A    between atoms: C_1  and  C_2
REMARK    2  A    between atoms: C_2  and  O_3
REMARK    3  A    between atoms: O_3  and  C_4
REMARK    4  A    between atoms: C_4  and  C_6
REMARK    5  A    between atoms: N_11  and  C_13
REMARK    6  A    between atoms: C_13  and  C_14
REMARK    7  A    between atoms: C_15  and  O_33
REMARK    8  A    between atoms: C_22  and  C_23
REMARK                            x       y       z     vdW  Elec       q    Type
REMARK                         _______ _______ _______ _____ _____    ______ ____
ROOT
ATOM      1  C   UNL     1       2.985  -6.374  -4.759  0.00  0.00    +0.020 A 
ATOM      2  C   UNL     1       2.362  -6.685  -5.957  0.00  0.00    +0.122 A 
ATOM      3  C   UNL     1       3.093  -7.206  -7.021  0.00  0.00    +0.046 A 
ATOM      4  C   UNL     1       4.437  -7.415  -6.893  0.00  0.00    +0.019 A 
ATOM      5  C   UNL     1       5.078  -7.106  -5.692  0.00  0.00    +0.068 A 
ATOM      6  C   UNL     1       4.351  -6.575  -4.614  0.00  0.00    +0.144 A 
ATOM      7  O   UNL     1       5.181  -6.353  -3.571  0.00  0.00    -0.451 OA
ATOM      8  C   UNL     1       6.458  -6.694  -3.862  0.00  0.00    +0.176 C 
ATOM      9  C   UNL     1       7.525  -6.591  -3.030  0.00  0.00    +0.058 C 
ATOM     10  C   UNL     1       6.477  -7.210  -5.240  0.00  0.00    +0.231 C 
ATOM     11  O   UNL     1       7.436  -7.619  -5.871  0.00  0.00    -0.283 OA
ENDROOT
BRANCH   9  12
ATOM     12  C   UNL     1       7.370  -5.961  -1.712  0.00  0.00    -0.020 A 
ATOM     13  C   UNL     1       8.492  -5.732  -0.906  0.00  0.00    +0.009 A 
ATOM     14  C   UNL     1       8.339  -5.140   0.329  0.00  0.00    +0.022 A 
ATOM     15  C   UNL     1       7.080  -4.772   0.774  0.00  0.00    +0.059 A 
ATOM     16  C   UNL     1       5.964  -4.995  -0.018  0.00  0.00    +0.060 A 
ATOM     17  C   UNL     1       6.102  -5.581  -1.259  0.00  0.00    +0.029 A 
ATOM     18 CL   UNL     1       4.391  -4.529   0.551  0.00  0.00    -0.082 Cl
ATOM     19 CL   UNL     1       6.899  -4.027   2.332  0.00  0.00    -0.082 Cl
ENDBRANCH   9  12
BRANCH   2  20
ATOM     20  O   UNL     1       1.027  -6.481  -6.095  0.00  0.00    -0.506 OA
ATOM     21  H   UNL     1       0.796  -5.603  -6.428  0.00  0.00    +0.292 HD
ENDBRANCH   2  20
BRANCH   1  22
ATOM     22  C   UNL     1       2.180  -5.811  -3.615  0.00  0.00    -0.036 C 
BRANCH  22  27
ATOM     23  C   UNL     1       1.529  -2.264  -2.577  0.00  0.00    +0.081 C 
ATOM     24  C   UNL     1       0.818  -1.780  -3.844  0.00  0.00    +0.011 C 
ATOM     25  C   UNL     1       1.482  -2.421  -5.066  0.00  0.00    -0.018 C 
ATOM     26  C   UNL     1       1.439  -3.944  -4.923  0.00  0.00    -0.078 C 
ATOM     27  N   UNL     1       2.157  -4.346  -3.708  0.00  0.00    +0.383 N 
ATOM     28  C   UNL     1       1.485  -3.793  -2.526  0.00  0.00    -0.064 C 
ATOM     29  H   UNL     1       3.104  -3.998  -3.748  0.00  0.00    -0.081 HD
BRANCH  23  30
ATOM     30  C   UNL     1       0.836  -1.700  -1.364  0.00  0.00    +0.308 C 
ATOM     31  O   UNL     1       0.356  -2.444  -0.541  0.00  0.00    -0.251 OA
BRANCH  30  32
ATOM     32  O   UNL     1       0.750  -0.371  -1.198  0.00  0.00    -0.465 OA
BRANCH  32  34
ATOM     33  C   UNL     1       0.081   1.625  -0.009  0.00  0.00    +0.048 C 
ATOM     34  C   UNL     1       0.079   0.095  -0.025  0.00  0.00    +0.229 C 
ENDBRANCH  32  34
ENDBRANCH  30  32
ENDBRANCH  23  30
ENDBRANCH  22  27
ENDBRANCH   1  22
TORSDOF 7
