REMARK  Name = ZINC24746948
REMARK  7 active torsions:
REMARK  status: ('A' for Active; 'I' for Inactive)
REMARK    1  A    between atoms: C_1  and  C_2
REMARK    2  A    between atoms: C_3  and  C_22
REMARK    3  A    between atoms: C_7  and  N_21
REMARK    4  A    between atoms: C_9  and  S_11
REMARK    5  A    between atoms: S_11  and  C_12
REMARK    6  A    between atoms: C_12  and  C_14
REMARK    7  A    between atoms: C_12  and  C_15
REMARK                            x       y       z     vdW  Elec       q    Type
REMARK                         _______ _______ _______ _____ _____    ______ ____
ROOT
ATOM      1  C   UNL     1      -8.500  -3.087  -0.414  0.00  0.00    +0.045 C 
ATOM      2  C   UNL     1      -8.521  -1.649   0.038  0.00  0.00    -0.028 A 
ATOM      3  C   UNL     1      -9.650  -1.105   0.514  0.00  0.00    -0.008 A 
ATOM      4  S   UNL     1      -9.174   0.569   0.902  0.00  0.00    -0.073 S 
ATOM      5  C   UNL     1      -7.470   0.492   0.414  0.00  0.00    +0.115 A 
ATOM      6  C   UNL     1      -7.318  -0.837  -0.039  0.00  0.00    +0.050 A 
ATOM      7  C   UNL     1      -6.018  -1.181  -0.501  0.00  0.00    +0.129 A 
ATOM      8  N   UNL     1      -5.061  -0.270  -0.480  0.00  0.00    -0.207 NA
ATOM      9  C   UNL     1      -5.272   0.965  -0.040  0.00  0.00    +0.192 A 
ATOM     10  N   UNL     1      -6.463   1.342   0.407  0.00  0.00    -0.214 NA
ATOM     11  C   UNL     1     -11.000  -1.753   0.681  0.00  0.00    +0.052 C 
ENDROOT
BRANCH   7  12
ATOM     12  N   UNL     1      -5.757  -2.457  -0.967  0.00  0.00    -0.343 N 
ATOM     13  H   UNL     1      -4.750  -2.717  -1.323  0.00  0.00    +0.144 HD
ATOM     14  H   UNL     1      -6.558  -3.211  -0.982  0.00  0.00    +0.144 HD
ENDBRANCH   7  12
BRANCH   9  15
ATOM     15  S   UNL     1      -3.944   2.123  -0.044  0.00  0.00    -0.073 S 
BRANCH  15  16
ATOM     16  C   UNL     1      -2.625   1.087  -0.724  0.00  0.00    +0.137 C 
ATOM     17  C   UNL     1      -2.971   0.701  -2.163  0.00  0.00    +0.029 C 
BRANCH  16  18
ATOM     18  C   UNL     1      -1.326   1.852  -0.708  0.00  0.00    +0.233 C 
ATOM     19  O   UNL     1      -1.336   3.062  -0.632  0.00  0.00    -0.274 OA
ATOM     20  N   UNL     1      -0.154   1.190  -0.776  0.00  0.00    -0.239 N 
ATOM     21  C   UNL     1       1.007   1.875  -0.767  0.00  0.00    +0.303 C 
ATOM     22  O   UNL     1       0.997   3.087  -0.692  0.00  0.00    -0.253 OA
ATOM     23  N   UNL     1       2.179   1.213  -0.841  0.00  0.00    -0.313 N 
ATOM     24  H   UNL     1      -0.145   0.092  -0.840  0.00  0.00    +0.159 HD
ATOM     25  H   UNL     1       3.127   1.772  -0.834  0.00  0.00    +0.146 HD
ATOM     26  H   UNL     1       2.188   0.116  -0.909  0.00  0.00    +0.146 HD
ENDBRANCH  16  18
ENDBRANCH  15  16
ENDBRANCH   9  15
TORSDOF 4
