REMARK  Name = ZINC01226983
REMARK  7 active torsions:
REMARK  status: ('A' for Active; 'I' for Inactive)
REMARK    1  A    between atoms: C_4  and  N_7
REMARK    2  A    between atoms: N_7  and  S_8
REMARK    3  A    between atoms: S_8  and  C_11
REMARK    4  A    between atoms: C_16  and  O_31
REMARK    5  A    between atoms: C_19  and  S_21
REMARK    6  A    between atoms: S_21  and  N_24
REMARK    7  A    between atoms: N_24  and  C_25
REMARK                            x       y       z     vdW  Elec       q    Type
REMARK                         _______ _______ _______ _____ _____    ______ ____
ROOT
ATOM      1  C   UNL     1       6.805   3.274   0.310  0.00  0.00    +0.111 A 
ATOM      2  C   UNL     1       6.009   4.376   0.390  0.00  0.00    +0.037 A 
ATOM      3  C   UNL     1       4.689   4.316  -0.085  0.00  0.00    -0.014 A 
ATOM      4  C   UNL     1       3.839   5.434  -0.018  0.00  0.00    +0.012 A 
ATOM      5  C   UNL     1       2.565   5.342  -0.486  0.00  0.00    +0.046 A 
ATOM      6  C   UNL     1       2.085   4.149  -1.035  0.00  0.00    +0.118 A 
ATOM      7  C   UNL     1       2.884   3.043  -1.115  0.00  0.00    +0.055 A 
ATOM      8  C   UNL     1       4.206   3.107  -0.646  0.00  0.00    +0.012 A 
ATOM      9  C   UNL     1       5.055   1.988  -0.705  0.00  0.00    +0.118 A 
ATOM     10  C   UNL     1       6.329   2.084  -0.235  0.00  0.00    +0.058 A 
ENDROOT
BRANCH   1  11
ATOM     11  S   UNL     1       8.461   3.354   0.907  0.00  0.00    +0.072 S 
ATOM     12  O   UNL     1       8.524   4.473   1.780  0.00  0.00    -0.150 OA
ATOM     13  O   UNL     1       8.806   2.041   1.326  0.00  0.00    -0.150 OA
BRANCH  11  14
ATOM     14  N   UNL     1       9.431   3.708  -0.388  0.00  0.00    -0.216 N 
ATOM     15  H   UNL     1       9.954   4.525  -0.392  0.00  0.00    +0.174 HD
BRANCH  14  19
ATOM     16  C   UNL     1       9.623   1.094  -3.623  0.00  0.00    +0.000 A 
ATOM     17  C   UNL     1       9.472   2.451  -3.840  0.00  0.00    +0.002 A 
ATOM     18  C   UNL     1       9.407   3.321  -2.770  0.00  0.00    +0.024 A 
ATOM     19  C   UNL     1       9.495   2.831  -1.473  0.00  0.00    +0.048 A 
ATOM     20  C   UNL     1       9.653   1.468  -1.258  0.00  0.00    +0.024 A 
ATOM     21  C   UNL     1       9.711   0.603  -2.333  0.00  0.00    +0.002 A 
ENDBRANCH  14  19
ENDBRANCH  11  14
ENDBRANCH   1  11
BRANCH   9  22
ATOM     22  S   UNL     1       4.476   0.473  -1.392  0.00  0.00    +0.073 S 
ATOM     23  O   UNL     1       5.539  -0.462  -1.269  0.00  0.00    -0.150 OA
ATOM     24  O   UNL     1       3.885   0.793  -2.644  0.00  0.00    -0.150 OA
BRANCH  22  25
ATOM     25  N   UNL     1       3.252  -0.071  -0.417  0.00  0.00    -0.216 N 
ATOM     26  H   UNL     1       2.358  -0.180  -0.776  0.00  0.00    +0.174 HD
BRANCH  25  27
ATOM     27  C   UNL     1       3.508  -0.372   0.922  0.00  0.00    +0.048 A 
ATOM     28  C   UNL     1       2.651   0.085   1.915  0.00  0.00    +0.024 A 
ATOM     29  C   UNL     1       2.906  -0.214   3.239  0.00  0.00    +0.002 A 
ATOM     30  C   UNL     1       4.015  -0.969   3.576  0.00  0.00    +0.000 A 
ATOM     31  C   UNL     1       4.871  -1.425   2.591  0.00  0.00    +0.002 A 
ATOM     32  C   UNL     1       4.621  -1.129   1.265  0.00  0.00    +0.024 A 
ENDBRANCH  25  27
ENDBRANCH  22  25
ENDBRANCH   9  22
BRANCH   6  33
ATOM     33  O   UNL     1       0.808   4.088  -1.494  0.00  0.00    -0.507 OA
ATOM     34  H   UNL     1       0.714   4.327  -2.426  0.00  0.00    +0.292 HD
ENDBRANCH   6  33
TORSDOF 7
