REMARK  Name = ZINC23212732
REMARK  8 active torsions:
REMARK  status: ('A' for Active; 'I' for Inactive)
REMARK    1  A    between atoms: C_1  and  C_2
REMARK    2  A    between atoms: C_4  and  C_34
REMARK    3  A    between atoms: C_6  and  N_8
REMARK    4  A    between atoms: C_18  and  S_19
REMARK    5  A    between atoms: S_19  and  C_20
REMARK    6  A    between atoms: C_20  and  C_22
REMARK    7  A    between atoms: C_20  and  C_23
REMARK    8  A    between atoms: C_28  and  C_31
REMARK                            x       y       z     vdW  Elec       q    Type
REMARK                         _______ _______ _______ _____ _____    ______ ____
ROOT
ATOM      1  N   UNL     1       0.050  -2.798   2.394  0.00  0.00    -0.255 N 
ATOM      2  C   UNL     1      -0.030  -4.149   2.381  0.00  0.00    +0.267 A 
ATOM      3  O   UNL     1      -0.114  -4.765   1.335  0.00  0.00    -0.267 OA
ATOM      4  C   UNL     1      -0.011  -4.844   3.675  0.00  0.00    +0.065 A 
ATOM      5  C   UNL     1      -0.087  -6.233   3.766  0.00  0.00    +0.015 A 
ATOM      6  C   UNL     1      -0.065  -6.829   4.996  0.00  0.00    +0.001 A 
ATOM      7  C   UNL     1       0.033  -6.067   6.153  0.00  0.00    +0.002 A 
ATOM      8  C   UNL     1       0.109  -4.704   6.093  0.00  0.00    +0.028 A 
ATOM      9  C   UNL     1       0.089  -4.064   4.850  0.00  0.00    +0.079 A 
ATOM     10  N   UNL     1       0.163  -2.717   4.744  0.00  0.00    -0.223 NA
ATOM     11  C   UNL     1       0.150  -2.120   3.578  0.00  0.00    +0.177 A 
ENDROOT
BRANCH   1  17
ATOM     12  C   UNL     1       2.502  -0.800  -1.371  0.00  0.00    +0.044 C 
ATOM     13  C   UNL     1       1.209  -1.107  -0.660  0.00  0.00    -0.048 A 
ATOM     14  C   UNL     1       0.007  -0.687  -1.199  0.00  0.00    +0.006 A 
ATOM     15  C   UNL     1      -1.181  -0.966  -0.549  0.00  0.00    -0.048 A 
ATOM     16  C   UNL     1      -1.170  -1.666   0.642  0.00  0.00    +0.029 A 
ATOM     17  C   UNL     1       0.035  -2.089   1.186  0.00  0.00    +0.052 A 
ATOM     18  C   UNL     1       1.226  -1.812   0.528  0.00  0.00    +0.029 A 
ATOM     19  C   UNL     1      -2.489  -0.507  -1.140  0.00  0.00    +0.044 C 
ENDBRANCH   1  17
BRANCH  11  20
ATOM     20  S   UNL     1       0.258  -0.362   3.533  0.00  0.00    -0.075 S 
BRANCH  20  21
ATOM     21  C   UNL     1       0.372   0.116   5.279  0.00  0.00    +0.137 C 
ATOM     22  C   UNL     1      -0.928  -0.256   5.996  0.00  0.00    +0.029 C 
BRANCH  21  23
ATOM     23  C   UNL     1       0.594   1.603   5.380  0.00  0.00    +0.229 C 
ATOM     24  O   UNL     1       0.230   2.332   4.482  0.00  0.00    -0.274 OA
ATOM     25  N   UNL     1       1.197   2.122   6.467  0.00  0.00    -0.301 N 
ATOM     26  C   UNL     1       1.649   1.250   7.561  0.00  0.00    +0.108 C 
ATOM     27  C   UNL     1       1.053   1.761   8.876  0.00  0.00    +0.032 C 
ATOM     28  C   UNL     1       1.417   3.236   9.058  0.00  0.00    +0.078 C 
ATOM     29  C   UNL     1       0.823   4.055   7.909  0.00  0.00    +0.032 C 
ATOM     30  C   UNL     1       1.421   3.570   6.580  0.00  0.00    +0.108 C 
BRANCH  28  31
ATOM     31  C   UNL     1       0.861   3.733  10.368  0.00  0.00    +0.214 C 
ATOM     32  O   UNL     1       0.236   2.981  11.085  0.00  0.00    -0.276 OA
ATOM     33  N   UNL     1       1.058   5.012  10.742  0.00  0.00    -0.329 N 
ATOM     34  H   UNL     1       1.558   5.614  10.168  0.00  0.00    +0.145 HD
ATOM     35  H   UNL     1       0.701   5.332  11.585  0.00  0.00    +0.145 HD
ENDBRANCH  28  31
ENDBRANCH  21  23
ENDBRANCH  20  21
ENDBRANCH  11  20
TORSDOF 5
