REMARK  Name = ZINC67468175
REMARK  13 active torsions:
REMARK  status: ('A' for Active; 'I' for Inactive)
REMARK    1  A    between atoms: C_1  and  C_2
REMARK    2  A    between atoms: C_2  and  N_3
REMARK    3  A    between atoms: C_4  and  C_26
REMARK    4  A    between atoms: C_5  and  C_9
REMARK    5  A    between atoms: C_6  and  C_8
REMARK    6  A    between atoms: C_9  and  N_10
REMARK    7  A    between atoms: N_13  and  C_14
REMARK    8  A    between atoms: N_13  and  C_15
REMARK    9  A    between atoms: C_15  and  C_16
REMARK   10  A    between atoms: C_19  and  S_24
REMARK   11  A    between atoms: C_20  and  O_22
REMARK   12  A    between atoms: O_22  and  C_23
REMARK   13  A    between atoms: S_24  and  C_25
REMARK                            x       y       z     vdW  Elec       q    Type
REMARK                         _______ _______ _______ _____ _____    ______ ____
ROOT
ATOM      1  N   UNL     1       4.288  -0.378   3.666  0.00  0.00    -0.295 N 
ATOM      2  C   UNL     1       5.513  -0.488   4.218  0.00  0.00    +0.303 C 
ATOM      3  O   UNL     1       6.079  -1.564   4.233  0.00  0.00    -0.253 OA
ATOM      4  N   UNL     1       6.109   0.594   4.756  0.00  0.00    -0.284 N 
ATOM      5  C   UNL     1       5.427   1.891   4.739  0.00  0.00    +0.134 C 
ATOM      6  H   UNL     1       3.837   0.480   3.654  0.00  0.00    +0.151 HD
ENDROOT
BRANCH   1   7
ATOM      7  C   UNL     1       3.640  -1.555   3.082  0.00  0.00    +0.144 C 
BRANCH   7  10
ATOM      8  N   UNL     1       0.711  -0.489   1.189  0.00  0.00    -0.268 N 
ATOM      9  C   UNL     1       2.035  -0.732   1.279  0.00  0.00    +0.041 A 
ATOM     10  C   UNL     1       2.291  -1.165   2.535  0.00  0.00    +0.013 A 
ATOM     11  C   UNL     1       1.081  -1.189   3.237  0.00  0.00    +0.065 A 
ATOM     12  N   UNL     1       0.134  -0.778   2.432  0.00  0.00    -0.176 NA
ATOM     13  C   UNL     1       0.900  -1.609   4.673  0.00  0.00    +0.068 C 
ATOM     14  C   UNL     1       3.048  -0.551   0.178  0.00  0.00    +0.065 C 
BRANCH   8  16
ATOM     15  C   UNL     1      -0.019   1.526   0.010  0.00  0.00    +0.029 C 
ATOM     16  C   UNL     1       0.002  -0.004   0.002  0.00  0.00    +0.140 C 
ENDBRANCH   8  16
ENDBRANCH   7  10
ENDBRANCH   1   7
BRANCH   4  17
ATOM     17  C   UNL     1       7.440   0.475   5.357  0.00  0.00    +0.144 C 
BRANCH  17  18
ATOM     18  C   UNL     1       8.490   0.730   4.307  0.00  0.00    -0.027 A 
ATOM     19  C   UNL     1       8.982  -0.321   3.555  0.00  0.00    +0.006 A 
ATOM     20  C   UNL     1       9.946  -0.093   2.591  0.00  0.00    +0.018 A 
ATOM     21  C   UNL     1      10.421   1.193   2.375  0.00  0.00    +0.049 A 
ATOM     22  C   UNL     1       9.924   2.251   3.134  0.00  0.00    +0.134 A 
ATOM     23  C   UNL     1       8.955   2.015   4.094  0.00  0.00    +0.052 A 
BRANCH  22  24
ATOM     24  O   UNL     1      10.386   3.514   2.927  0.00  0.00    -0.494 OA
ATOM     25  C   UNL     1       9.831   4.549   3.741  0.00  0.00    +0.277 C 
ENDBRANCH  22  24
BRANCH  21  26
ATOM     26  S   UNL     1      11.650   1.487   1.147  0.00  0.00    -0.125 S 
ATOM     27  C   UNL     1      11.971  -0.155   0.446  0.00  0.00    +0.090 C 
ENDBRANCH  21  26
ENDBRANCH  17  18
ENDBRANCH   4  17
TORSDOF 7
