REMARK  Name = ZINC32500921
REMARK  7 active torsions:
REMARK  status: ('A' for Active; 'I' for Inactive)
REMARK    1  A    between atoms: C_1  and  C_2
REMARK    2  A    between atoms: C_3  and  C_15
REMARK    3  A    between atoms: C_5  and  C_11
REMARK    4  A    between atoms: C_6  and  S_7
REMARK    5  A    between atoms: S_7  and  N_10
REMARK    6  A    between atoms: C_11  and  O_13
REMARK    7  A    between atoms: O_13  and  C_14
REMARK                            x       y       z     vdW  Elec       q    Type
REMARK                         _______ _______ _______ _____ _____    ______ ____
ROOT
ATOM      1  C   UNL     1      -1.241   2.277   0.021  0.00  0.00    +0.049 C 
ATOM      2  C   UNL     1      -0.017   1.399   0.010  0.00  0.00    +0.017 A 
ATOM      3  C   UNL     1       1.269   1.815  -0.000  0.00  0.00    +0.108 A 
ATOM      4  O   UNL     1       2.069   0.741  -0.014  0.00  0.00    -0.451 OA
ATOM      5  C   UNL     1       1.316  -0.379  -0.013  0.00  0.00    +0.238 A 
ATOM      6  C   UNL     1       0.002  -0.004   0.002  0.00  0.00    +0.160 A 
ATOM      7  C   UNL     1       1.728   3.250   0.002  0.00  0.00    +0.086 C 
ENDROOT
BRANCH   6   8
ATOM      8  S   UNL     1      -1.397  -1.075   0.010  0.00  0.00    +0.060 S 
ATOM      9  O   UNL     1      -0.958  -2.314   0.550  0.00  0.00    -0.153 OA
ATOM     10  O   UNL     1      -2.471  -0.336   0.575  0.00  0.00    -0.153 OA
BRANCH   8  11
ATOM     11  N   UNL     1      -1.801  -1.364  -1.570  0.00  0.00    -0.203 NA
ATOM     12  H   UNL     1      -2.674  -2.032  -1.609  0.00  0.00    +0.144 HD
ATOM     13  H   UNL     1      -0.953  -1.839  -2.084  0.00  0.00    +0.144 HD
ENDBRANCH   8  11
ENDBRANCH   6   8
BRANCH   5  14
ATOM     14  C   UNL     1       1.819  -1.755  -0.024  0.00  0.00    +0.377 C 
ATOM     15  O   UNL     1       1.038  -2.687  -0.021  0.00  0.00    -0.241 OA
BRANCH  14  16
ATOM     16  O   UNL     1       3.147  -1.987  -0.038  0.00  0.00    -0.462 OA
ATOM     17  C   UNL     1       3.574  -3.375  -0.049  0.00  0.00    +0.280 C 
ENDBRANCH  14  16
ENDBRANCH   5  14
TORSDOF 4
