REMARK  Name = ZINC59596813
REMARK  6 active torsions:
REMARK  status: ('A' for Active; 'I' for Inactive)
REMARK    1  A    between atoms: C_8  and  C_28
REMARK    2  A    between atoms: N_9  and  C_10
REMARK    3  A    between atoms: C_10  and  C_11
REMARK    4  A    between atoms: N_13  and  N_14
REMARK    5  A    between atoms: C_15  and  C_16
REMARK    6  A    between atoms: C_19  and  C_21
REMARK                            x       y       z     vdW  Elec       q    Type
REMARK                         _______ _______ _______ _____ _____    ______ ____
ROOT
ATOM      1  C   UNL     1       4.881  -0.593  -0.049  0.00  0.00    +0.221 C 
ENDROOT
BRANCH   1  10
ATOM      2  C   UNL     1      -0.016   1.361   0.009  0.00  0.00    +0.002 A 
ATOM      3  C   UNL     1       1.167   2.086   0.002  0.00  0.00    +0.002 A 
ATOM      4  C   UNL     1       2.384   1.438  -0.013  0.00  0.00    +0.028 A 
ATOM      5  C   UNL     1       2.424   0.050  -0.021  0.00  0.00    +0.070 A 
ATOM      6  C   UNL     1       1.225  -0.685  -0.013  0.00  0.00    +0.090 A 
ATOM      7  C   UNL     1       0.002  -0.004   0.002  0.00  0.00    +0.030 A 
ATOM      8  N   UNL     1       1.559  -1.997  -0.024  0.00  0.00    -0.226 NA
ATOM      9  C   UNL     1       2.863  -2.119  -0.037  0.00  0.00    +0.168 A 
ATOM     10  N   UNL     1       3.445  -0.879  -0.036  0.00  0.00    -0.313 N 
BRANCH   9  11
ATOM     11  C   UNL     1       3.598  -3.403  -0.051  0.00  0.00    +0.190 A 
ATOM     12  C   UNL     1       2.993  -4.741  -0.058  0.00  0.00    +0.191 A 
ATOM     13  N   UNL     1       3.952  -5.625  -0.070  0.00  0.00    -0.033 NA
ATOM     14  O   UNL     1       5.186  -4.929  -0.071  0.00  0.00    -0.240 OA
ATOM     15  N   UNL     1       4.899  -3.542  -0.065  0.00  0.00    -0.044 NA
ATOM     16  N   UNL     1       1.632  -5.018  -0.053  0.00  0.00    -0.339 N 
ATOM     17  H   UNL     1       0.989  -4.291  -0.044  0.00  0.00    +0.144 HD
ATOM     18  H   UNL     1       1.324  -5.937  -0.059  0.00  0.00    +0.144 HD
ENDBRANCH   9  11
ENDBRANCH   1  10
BRANCH   1  19
ATOM     19  C   UNL     1       5.388  -0.502   1.367  0.00  0.00    +0.252 C 
ATOM     20  O   UNL     1       4.624  -0.661   2.296  0.00  0.00    -0.272 OA
ATOM     21  N   UNL     1       6.690  -0.244   1.602  0.00  0.00    -0.205 N 
ATOM     22  H   UNL     1       7.301  -0.117   0.860  0.00  0.00    +0.177 HD
BRANCH  21  23
ATOM     23  N   UNL     1       7.161  -0.160   2.919  0.00  0.00    -0.185 NA
ATOM     24  C   UNL     1       8.418   0.089   3.146  0.00  0.00    +0.176 C 
BRANCH  24  25
ATOM     25  C   UNL     1       8.911   0.177   4.522  0.00  0.00    +0.148 A 
ATOM     26  C   UNL     1      10.209   0.439   4.901  0.00  0.00    +0.051 A 
ATOM     27  C   UNL     1      10.230   0.431   6.302  0.00  0.00    +0.050 A 
ATOM     28  C   UNL     1       8.960   0.168   6.720  0.00  0.00    +0.136 A 
ATOM     29  O   UNL     1       8.171   0.022   5.639  0.00  0.00    -0.454 OA
BRANCH  28  30
ATOM     30  C   UNL     1       8.520   0.065   8.126  0.00  0.00    +0.017 A 
ATOM     31  C   UNL     1       9.438   0.248   9.163  0.00  0.00    +0.012 A 
ATOM     32  C   UNL     1       9.021   0.151  10.474  0.00  0.00    +0.016 A 
ATOM     33  C   UNL     1       7.696  -0.127  10.763  0.00  0.00    +0.018 A 
ATOM     34  C   UNL     1       6.781  -0.310   9.740  0.00  0.00    +0.016 A 
ATOM     35  C   UNL     1       7.184  -0.210   8.425  0.00  0.00    +0.012 A 
ATOM     36 BR   UNL     1       7.133  -0.259  12.564  0.00  0.00    -0.050 Br
ENDBRANCH  28  30
ENDBRANCH  24  25
ENDBRANCH  21  23
ENDBRANCH   1  19
TORSDOF 6
