REMARK  Name = ZINC64093468
REMARK  7 active torsions:
REMARK  status: ('A' for Active; 'I' for Inactive)
REMARK    1  A    between atoms: C_1  and  C_2
REMARK    2  A    between atoms: C_5  and  C_8
REMARK    3  A    between atoms: N_10  and  C_11
REMARK    4  A    between atoms: C_11  and  C_12
REMARK    5  A    between atoms: C_12  and  C_13
REMARK    6  A    between atoms: N_21  and  C_24
REMARK    7  A    between atoms: C_24  and  C_25
REMARK                            x       y       z     vdW  Elec       q    Type
REMARK                         _______ _______ _______ _____ _____    ______ ____
ROOT
ATOM      1  C   UNL     1       0.500  -8.174   3.190  0.00  0.00    +0.118 C 
ATOM      2  N   UNL     1       0.554  -8.700   2.024  0.00  0.00    -0.175 NA
ATOM      3  N   UNL     1       0.503 -10.101   2.093  0.00  0.00    -0.247 N 
ATOM      4  C   UNL     1       0.589 -10.407   3.522  0.00  0.00    +0.177 C 
ATOM      5  N   UNL     1       0.373  -9.141   4.204  0.00  0.00    -0.296 N 
ATOM      6  C   UNL     1       0.002  -8.790   5.557  0.00  0.00    +0.123 C 
ATOM      7  C   UNL     1      -1.533  -8.816   5.689  0.00  0.00    +0.103 C 
ATOM      8  N   UNL     1      -1.973 -10.161   5.420  0.00  0.00    -0.298 NA
ATOM      9  C   UNL     1      -1.798 -10.676   4.080  0.00  0.00    +0.088 C 
ATOM     10  C   UNL     1      -0.481 -11.432   3.950  0.00  0.00    +0.059 C 
ATOM     11  H   UNL     1       0.428 -10.729   1.357  0.00  0.00    +0.170 HD
ENDROOT
BRANCH   1  12
ATOM     12  C   UNL     1       0.572  -6.690   3.447  0.00  0.00    +0.092 C 
BRANCH  12  13
ATOM     13  C   UNL     1       0.708  -5.948   2.116  0.00  0.00    +0.112 C 
BRANCH  13  16
ATOM     14  C   UNL     1       0.900  -3.649   1.333  0.00  0.00    +0.244 C 
ATOM     15  O   UNL     1       0.952  -4.071   0.195  0.00  0.00    -0.270 OA
ATOM     16  N   UNL     1       0.777  -4.506   2.366  0.00  0.00    -0.311 N 
ATOM     17  H   UNL     1       0.735  -4.169   3.274  0.00  0.00    +0.149 HD
BRANCH  14  22
ATOM     18  C   UNL     1       1.171   2.015   2.314  0.00  0.00    +0.044 C 
ATOM     19  C   UNL     1       1.100   0.532   2.058  0.00  0.00    -0.050 A 
ATOM     20  C   UNL     1       1.161   0.054   0.761  0.00  0.00    +0.004 A 
ATOM     21  C   UNL     1       1.097  -1.303   0.518  0.00  0.00    +0.013 A 
ATOM     22  C   UNL     1       0.970  -2.193   1.585  0.00  0.00    +0.037 A 
ATOM     23  C   UNL     1       0.909  -1.705   2.891  0.00  0.00    +0.013 A 
ATOM     24  C   UNL     1       0.980  -0.346   3.120  0.00  0.00    +0.004 A 
ENDBRANCH  14  22
ENDBRANCH  13  16
ENDBRANCH  12  13
ENDBRANCH   1  12
BRANCH   8  25
ATOM     25  C   UNL     1      -3.350 -10.367   5.887  0.00  0.00    +0.113 C 
BRANCH  25  26
ATOM     26  C   UNL     1      -3.642 -11.867   5.969  0.00  0.00    +0.117 C 
ATOM     27  C   UNL     1      -4.974 -12.103   6.646  0.00  0.00    +0.008 C 
ATOM     28  C   UNL     1      -4.708 -12.831   7.754  0.00  0.00    -0.004 A 
ATOM     29  C   UNL     1      -5.563 -13.374   8.816  0.00  0.00    +0.010 A 
ATOM     30  C   UNL     1      -4.995 -14.079   9.820  0.00  0.00    +0.001 A 
ATOM     31  C   UNL     1      -3.612 -14.304   9.872  0.00  0.00    +0.002 A 
ATOM     32  C   UNL     1      -2.762 -13.837   8.933  0.00  0.00    +0.026 A 
ATOM     33  C   UNL     1      -3.251 -13.083   7.832  0.00  0.00    +0.043 A 
ATOM     34  N   UNL     1      -2.639 -12.532   6.809  0.00  0.00    -0.377 N 
ATOM     35  H   UNL     1      -1.685 -12.559   6.638  0.00  0.00    +0.160 HD
ENDBRANCH  25  26
ENDBRANCH   8  25
TORSDOF 6
