REMARK  Name = ZINC63008631
REMARK  6 active torsions:
REMARK  status: ('A' for Active; 'I' for Inactive)
REMARK    1  A    between atoms: C_1  and  C_2
REMARK    2  A    between atoms: C_2  and  C_3
REMARK    3  A    between atoms: C_3  and  C_4
REMARK    4  A    between atoms: C_3  and  C_5
REMARK    5  A    between atoms: C_3  and  N_19
REMARK    6  A    between atoms: C_7  and  C_10
REMARK                            x       y       z     vdW  Elec       q    Type
REMARK                         _______ _______ _______ _____ _____    ______ ____
ROOT
ATOM      1  C   UNL     1       0.870  -2.011   1.172  0.00  0.00    +0.161 A 
ATOM      2  N   UNL     1       2.019  -2.690   1.165  0.00  0.00    -0.193 NA
ATOM      3  C   UNL     1       1.777  -3.981   1.097  0.00  0.00    +0.259 A 
ATOM      4  O   UNL     1       0.444  -4.152   1.060  0.00  0.00    -0.333 OA
ATOM      5  N   UNL     1      -0.123  -2.852   1.115  0.00  0.00    -0.062 NA
ENDROOT
BRANCH   3   6
ATOM      6  C   UNL     1       2.792  -5.054   1.068  0.00  0.00    +0.045 A 
ATOM      7  C   UNL     1       4.151  -4.734   1.119  0.00  0.00    +0.054 A 
ATOM      8  C   UNL     1       5.096  -5.741   1.092  0.00  0.00    +0.162 A 
ATOM      9  C   UNL     1       4.697  -7.068   1.013  0.00  0.00    +0.193 A 
ATOM     10  C   UNL     1       3.349  -7.390   0.962  0.00  0.00    +0.162 A 
ATOM     11  C   UNL     1       2.396  -6.390   0.995  0.00  0.00    +0.054 A 
ATOM     12  F   UNL     1       2.966  -8.683   0.885  0.00  0.00    -0.202 F 
ATOM     13  F   UNL     1       5.625  -8.049   0.987  0.00  0.00    -0.199 F 
ATOM     14  F   UNL     1       6.410  -5.433   1.141  0.00  0.00    -0.202 F 
ENDBRANCH   3   6
BRANCH   1  15
ATOM     15  C   UNL     1       0.742  -0.511   1.242  0.00  0.00    -0.009 C 
ATOM     16  C   UNL     1      -0.042  -0.124   2.497  0.00  0.00    -0.003 C 
BRANCH  15  17
ATOM     17  N   UNL     1       2.080   0.093   1.294  0.00  0.00    +0.386 N 
ATOM     18  H   UNL     1       1.995   1.097   1.341  0.00  0.00    -0.089 HD
ATOM     19  H   UNL     1       2.568  -0.241   2.111  0.00  0.00    -0.089 HD
ATOM     20  H   UNL     1       2.597  -0.163   0.466  0.00  0.00    -0.089 HD
ENDBRANCH  15  17
BRANCH  15  22
ATOM     21  C   UNL     1      -0.019   1.526   0.010  0.00  0.00    +0.003 C 
ATOM     22  C   UNL     1       0.002  -0.004   0.002  0.00  0.00    -0.009 C 
ENDBRANCH  15  22
ENDBRANCH   1  15
TORSDOF 4
