REMARK  Name = ZINC66977494
REMARK  8 active torsions:
REMARK  status: ('A' for Active; 'I' for Inactive)
REMARK    1  A    between atoms: C_1  and  C_2
REMARK    2  A    between atoms: C_5  and  C_7
REMARK    3  A    between atoms: C_7  and  C_9
REMARK    4  A    between atoms: C_7  and  N_10
REMARK    5  A    between atoms: N_13  and  C_14
REMARK    6  A    between atoms: N_13  and  C_15
REMARK    7  A    between atoms: C_15  and  C_17
REMARK    8  A    between atoms: C_15  and  C_24
REMARK                            x       y       z     vdW  Elec       q    Type
REMARK                         _______ _______ _______ _____ _____    ______ ____
ROOT
ATOM      1  N   UNL     1       1.919  -4.412  -0.960  0.00  0.00    -0.292 N 
ATOM      2  C   UNL     1       2.400  -5.490  -1.611  0.00  0.00    +0.303 C 
ATOM      3  O   UNL     1       1.776  -6.534  -1.602  0.00  0.00    -0.253 OA
ATOM      4  N   UNL     1       3.571  -5.411  -2.272  0.00  0.00    -0.275 N 
ATOM      5  C   UNL     1       4.323  -4.154  -2.282  0.00  0.00    +0.134 C 
ATOM      6  H   UNL     1       2.417  -3.580  -0.967  0.00  0.00    +0.151 HD
ENDROOT
BRANCH   1   7
ATOM      7  C   UNL     1       0.645  -4.498  -0.241  0.00  0.00    +0.108 C 
ATOM      8  C   UNL     1       0.888  -5.055   1.163  0.00  0.00    +0.033 C 
BRANCH   7  13
ATOM      9  C   UNL     1      -0.728   0.970   0.315  0.00  0.00    +0.051 C 
ATOM     10  C   UNL     1      -0.620  -0.521   0.127  0.00  0.00    -0.013 A 
ATOM     11  C   UNL     1      -1.600  -1.422  -0.129  0.00  0.00    +0.011 A 
ATOM     12  C   UNL     1      -1.265  -2.756  -0.265  0.00  0.00    +0.013 A 
ATOM     13  C   UNL     1       0.034  -3.124  -0.138  0.00  0.00    +0.010 A 
ATOM     14  S   UNL     1       0.832  -1.559   0.178  0.00  0.00    -0.097 S 
ENDBRANCH   7  13
ENDBRANCH   1   7
BRANCH   4  15
ATOM     15  C   UNL     1       4.093  -6.583  -2.979  0.00  0.00    +0.175 C 
BRANCH  15  16
ATOM     16  C   UNL     1       5.454  -6.935  -2.434  0.00  0.00    -0.019 A 
ATOM     17  C   UNL     1       6.468  -5.996  -2.450  0.00  0.00    +0.009 A 
ATOM     18  C   UNL     1       7.716  -6.317  -1.949  0.00  0.00    +0.038 A 
ATOM     19  C   UNL     1       7.949  -7.580  -1.431  0.00  0.00    +0.123 A 
ATOM     20  C   UNL     1       6.932  -8.519  -1.416  0.00  0.00    +0.038 A 
ATOM     21  C   UNL     1       5.684  -8.194  -1.912  0.00  0.00    +0.009 A 
ATOM     22  F   UNL     1       9.168  -7.895  -0.942  0.00  0.00    -0.205 F 
ENDBRANCH  15  16
BRANCH  15  23
ATOM     23  C   UNL     1       4.207  -6.272  -4.450  0.00  0.00    +0.154 A 
ATOM     24  N   UNL     1       4.734  -5.124  -4.824  0.00  0.00    -0.238 NA
ATOM     25  C   UNL     1       4.850  -4.816  -6.106  0.00  0.00    +0.114 A 
ATOM     26  C   UNL     1       4.409  -5.721  -7.058  0.00  0.00    +0.039 A 
ATOM     27  C   UNL     1       3.860  -6.918  -6.626  0.00  0.00    +0.114 A 
ATOM     28  N   UNL     1       3.782  -7.159  -5.327  0.00  0.00    -0.238 NA
ENDBRANCH  15  23
ENDBRANCH   4  15
TORSDOF 5
