REMARK  Name = ZINC20884168
REMARK  12 active torsions:
REMARK  status: ('A' for Active; 'I' for Inactive)
REMARK    1  A    between atoms: C_1  and  C_2
REMARK    2  A    between atoms: C_2  and  C_3
REMARK    3  A    between atoms: C_3  and  C_5
REMARK    4  A    between atoms: C_3  and  O_6
REMARK    5  A    between atoms: O_6  and  C_7
REMARK    6  A    between atoms: C_10  and  C_13
REMARK    7  A    between atoms: C_18  and  C_23
REMARK    8  A    between atoms: C_26  and  O_31
REMARK    9  A    between atoms: C_27  and  O_29
REMARK   10  A    between atoms: O_29  and  C_30
REMARK   11  A    between atoms: O_31  and  C_32
REMARK   12  A    between atoms: C_32  and  C_33
REMARK                            x       y       z     vdW  Elec       q    Type
REMARK                         _______ _______ _______ _____ _____    ______ ____
ROOT
ATOM      1  C   UNL     1      -1.883   1.955   2.200  0.00  0.00    +0.136 C 
ATOM      2  C   UNL     1      -0.992   1.371   1.129  0.00  0.00    +0.036 C 
ATOM      3  C   UNL     1      -1.380   1.001  -0.102  0.00  0.00    +0.017 C 
ATOM      4  C   UNL     1      -0.378   0.403  -1.077  0.00  0.00    +0.059 C 
ATOM      5  C   UNL     1       1.003   1.013  -0.843  0.00  0.00    +0.032 C 
ATOM      6  C   UNL     1       1.414   0.699   0.601  0.00  0.00    +0.088 C 
ATOM      7  C   UNL     1       0.362   1.231   1.527  0.00  0.00    +0.163 C 
ATOM      8  O   UNL     1       0.683   1.552   2.655  0.00  0.00    -0.292 OA
ATOM      9  N   UNL     1      -2.643   1.112  -0.586  0.00  0.00    -0.316 N 
ATOM     10  C   UNL     1      -3.789   0.722   0.097  0.00  0.00    +0.052 A 
ATOM     11  C   UNL     1      -4.631  -0.268  -0.381  0.00  0.00    +0.025 A 
ATOM     12  C   UNL     1      -5.813  -0.534   0.289  0.00  0.00    +0.002 A 
ATOM     13  C   UNL     1      -6.148   0.182   1.424  0.00  0.00    +0.002 A 
ATOM     14  C   UNL     1      -5.297   1.157   1.914  0.00  0.00    +0.025 A 
ATOM     15  C   UNL     1      -4.105   1.414   1.256  0.00  0.00    +0.049 A 
ATOM     16  N   UNL     1      -3.195   2.354   1.737  0.00  0.00    -0.331 N 
ATOM     17  H   UNL     1      -2.814   1.536  -1.586  0.00  0.00    +0.152 HD
ATOM     18  H   UNL     1      -3.488   3.414   1.761  0.00  0.00    +0.147 HD
ENDROOT
BRANCH   1  22
ATOM     19  C   UNL     1      -2.374  -0.957   5.290  0.00  0.00    +0.121 A 
ATOM     20  C   UNL     1      -1.720   0.236   5.558  0.00  0.00    +0.046 A 
ATOM     21  C   UNL     1      -1.562   1.176   4.557  0.00  0.00    +0.009 A 
ATOM     22  C   UNL     1      -2.056   0.928   3.290  0.00  0.00    -0.023 A 
ATOM     23  C   UNL     1      -2.714  -0.258   3.022  0.00  0.00    +0.009 A 
ATOM     24  C   UNL     1      -2.869  -1.204   4.017  0.00  0.00    +0.046 A 
BRANCH  19  25
ATOM     25  O   UNL     1      -2.531  -1.883   6.272  0.00  0.00    -0.489 OA
BRANCH  25  26
ATOM     26  C   UNL     1      -3.318  -3.034   5.959  0.00  0.00    +0.170 C 
ATOM     27  C   UNL     1      -2.440  -4.077   5.265  0.00  0.00    +0.052 C 
BRANCH  26  29
ATOM     28  C   UNL     1      -4.866  -2.629   7.878  0.00  0.00    +0.007 C 
ATOM     29  C   UNL     1      -3.891  -3.626   7.248  0.00  0.00    +0.041 C 
ENDBRANCH  26  29
ENDBRANCH  25  26
ENDBRANCH  19  25
ENDBRANCH   1  22
BRANCH   5  30
ATOM     30  C   UNL     1       1.998   0.410  -1.800  0.00  0.00    -0.040 A 
ATOM     31  C   UNL     1       2.208  -0.956  -1.807  0.00  0.00    +0.008 A 
ATOM     32  C   UNL     1       3.119  -1.515  -2.684  0.00  0.00    +0.050 A 
ATOM     33  C   UNL     1       3.825  -0.704  -3.558  0.00  0.00    +0.162 A 
ATOM     34  C   UNL     1       3.615   0.671  -3.551  0.00  0.00    +0.162 A 
ATOM     35  C   UNL     1       2.696   1.224  -2.673  0.00  0.00    +0.053 A 
BRANCH  34  36
ATOM     36  O   UNL     1       4.306   1.471  -4.407  0.00  0.00    -0.491 OA
ATOM     37  C   UNL     1       4.038   2.873  -4.343  0.00  0.00    +0.277 C 
ENDBRANCH  34  36
BRANCH  33  38
ATOM     38  O   UNL     1       4.722  -1.252  -4.422  0.00  0.00    -0.489 OA
BRANCH  38  39
ATOM     39  C   UNL     1       4.885  -2.671  -4.374  0.00  0.00    +0.226 C 
ATOM     40  C   UNL     1       5.927  -3.099  -5.409  0.00  0.00    +0.048 C 
ENDBRANCH  38  39
ENDBRANCH  33  38
ENDBRANCH   5  30
TORSDOF 8
