REMARK  Name = ZINC33122317
REMARK  11 active torsions:
REMARK  status: ('A' for Active; 'I' for Inactive)
REMARK    1  A    between atoms: C_1  and  C_2
REMARK    2  A    between atoms: C_2  and  C_3
REMARK    3  A    between atoms: C_4  and  C_32
REMARK    4  A    between atoms: C_11  and  S_12
REMARK    5  A    between atoms: S_12  and  C_13
REMARK    6  A    between atoms: C_16  and  N_19
REMARK    7  A    between atoms: N_19  and  S_20
REMARK    8  A    between atoms: S_20  and  C_23
REMARK    9  A    between atoms: C_25  and  C_31
REMARK   10  A    between atoms: C_27  and  C_30
REMARK   11  A    between atoms: C_28  and  C_29
REMARK                            x       y       z     vdW  Elec       q    Type
REMARK                         _______ _______ _______ _____ _____    ______ ____
ROOT
ATOM      1  C   UNL     1       1.721  -5.050   2.016  0.00  0.00    +0.014 A 
ATOM      2  C   UNL     1       3.094  -5.076   2.222  0.00  0.00    +0.017 A 
ATOM      3  C   UNL     1       3.847  -3.941   1.997  0.00  0.00    +0.025 A 
ATOM      4  C   UNL     1       3.232  -2.773   1.564  0.00  0.00    +0.048 A 
ATOM      5  C   UNL     1       1.857  -2.746   1.365  0.00  0.00    +0.025 A 
ATOM      6  C   UNL     1       1.105  -3.882   1.585  0.00  0.00    +0.017 A 
ENDROOT
BRANCH   4   7
ATOM      7  N   UNL     1       3.995  -1.623   1.336  0.00  0.00    -0.216 N 
ATOM      8  H   UNL     1       4.746  -1.306   2.075  0.00  0.00    +0.174 HD
BRANCH   7   9
ATOM      9  S   UNL     1       3.769  -0.740  -0.047  0.00  0.00    +0.073 S 
ATOM     10  O   UNL     1       4.754   0.284  -0.040  0.00  0.00    -0.150 OA
ATOM     11  O   UNL     1       2.378  -0.459  -0.126  0.00  0.00    -0.150 OA
BRANCH   9  12
ATOM     12  C   UNL     1       4.147  -1.795  -1.406  0.00  0.00    +0.112 A 
ATOM     13  C   UNL     1       3.157  -2.147  -2.305  0.00  0.00    +0.032 A 
ATOM     14  C   UNL     1       3.454  -2.975  -3.371  0.00  0.00    -0.048 A 
ATOM     15  C   UNL     1       4.741  -3.450  -3.540  0.00  0.00    +0.007 A 
ATOM     16  C   UNL     1       5.731  -3.098  -2.642  0.00  0.00    -0.045 A 
ATOM     17  C   UNL     1       5.434  -2.270  -1.575  0.00  0.00    -0.021 A 
ATOM     18  C   UNL     1       6.513  -1.886  -0.596  0.00  0.00    +0.046 C 
ATOM     19  C   UNL     1       7.134  -3.616  -2.825  0.00  0.00    +0.044 C 
ATOM     20  C   UNL     1       2.374  -3.359  -4.350  0.00  0.00    +0.044 C 
ENDBRANCH   9  12
ENDBRANCH   7   9
ENDBRANCH   4   7
BRANCH   1  21
ATOM     21  S   UNL     1       0.759  -6.498   2.303  0.00  0.00    -0.069 S 
BRANCH  21  30
ATOM     22  C   UNL     1      -1.362  -6.068   0.625  0.00  0.00    +0.006 A 
ATOM     23  C   UNL     1      -2.631  -5.573   0.339  0.00  0.00    +0.048 A 
ATOM     24  N   UNL     1      -3.325  -4.943   1.263  0.00  0.00    -0.216 NA
ATOM     25  C   UNL     1      -2.837  -4.762   2.495  0.00  0.00    +0.254 A 
ATOM     26  N   UNL     1      -3.332  -4.172   3.578  0.00  0.00    -0.197 NA
ATOM     27  C   UNL     1      -2.455  -4.249   4.572  0.00  0.00    +0.247 A 
ATOM     28  N   UNL     1      -1.383  -4.883   4.164  0.00  0.00    -0.151 NA
ATOM     29  N   UNL     1      -1.598  -5.234   2.825  0.00  0.00    -0.190 N 
ATOM     30  C   UNL     1      -0.842  -5.889   1.893  0.00  0.00    +0.112 A 
ATOM     31  C   UNL     1      -3.214  -5.760  -1.038  0.00  0.00    +0.066 C 
BRANCH  22  33
ATOM     32  C   UNL     1      -0.878  -8.286  -0.375  0.00  0.00    +0.009 C 
ATOM     33  C   UNL     1      -0.566  -6.789  -0.433  0.00  0.00    +0.036 C 
ENDBRANCH  22  33
ENDBRANCH  21  30
ENDBRANCH   1  21
TORSDOF 6
