REMARK  Name = ZINC63172474
REMARK  8 active torsions:
REMARK  status: ('A' for Active; 'I' for Inactive)
REMARK    1  A    between atoms: C_1  and  O_2
REMARK    2  A    between atoms: O_2  and  C_3
REMARK    3  A    between atoms: C_10  and  C_18
REMARK    4  A    between atoms: C_21  and  O_33
REMARK    5  A    between atoms: C_22  and  C_24
REMARK    6  A    between atoms: C_24  and  O_25
REMARK    7  A    between atoms: O_25  and  C_26
REMARK    8  A    between atoms: O_33  and  C_34
REMARK                            x       y       z     vdW  Elec       q    Type
REMARK                         _______ _______ _______ _____ _____    ______ ____
ROOT
ATOM      1  C   UNL     1      -1.200  -0.637   0.010  0.00  0.00    +0.121 A 
ATOM      2  C   UNL     1      -2.375   0.136   0.020  0.00  0.00    +0.047 A 
ATOM      3  C   UNL     1      -3.606  -0.417   0.033  0.00  0.00    +0.029 A 
ATOM      4  C   UNL     1      -3.753  -1.875   0.037  0.00  0.00    +0.043 A 
ATOM      5  N   UNL     1      -4.814  -2.649   0.026  0.00  0.00    -0.376 N 
ATOM      6  C   UNL     1      -4.374  -4.036   0.129  0.00  0.00    +0.128 C 
ATOM      7  C   UNL     1      -4.890  -4.905  -1.021  0.00  0.00    +0.111 C 
ATOM      8  N   UNL     1      -4.169  -6.187  -0.992  0.00  0.00    -0.307 NA
ATOM      9  C   UNL     1      -2.743  -6.055  -1.306  0.00  0.00    +0.086 C 
ATOM     10  C   UNL     1      -2.035  -5.237  -0.210  0.00  0.00    +0.048 C 
ATOM     11  C   UNL     1      -2.859  -3.987   0.008  0.00  0.00    -0.035 C 
ATOM     12  C   UNL     1      -2.514  -2.694   0.017  0.00  0.00    +0.003 A 
ATOM     13  C   UNL     1      -1.226  -1.991   0.003  0.00  0.00    +0.055 A 
ATOM     14  H   UNL     1      -4.303  -6.658  -0.110  0.00  0.00    +0.123 HD
ATOM     15  H   UNL     1      -5.734  -2.349  -0.039  0.00  0.00    +0.160 HD
ENDROOT
BRANCH   7  16
ATOM     16  C   UNL     1      -6.367  -5.149  -0.849  0.00  0.00    -0.028 A 
ATOM     17  C   UNL     1      -6.809  -6.115   0.038  0.00  0.00    +0.009 A 
ATOM     18  C   UNL     1      -8.162  -6.341   0.197  0.00  0.00    +0.046 A 
ATOM     19  C   UNL     1      -9.079  -5.598  -0.533  0.00  0.00    +0.126 A 
ATOM     20  C   UNL     1      -8.634  -4.630  -1.421  0.00  0.00    +0.032 A 
ATOM     21  C   UNL     1      -7.279  -4.404  -1.573  0.00  0.00    +0.015 A 
BRANCH  19  22
ATOM     22  O   UNL     1     -10.411  -5.818  -0.379  0.00  0.00    -0.495 OA
ATOM     23  C   UNL     1     -10.797  -6.831   0.552  0.00  0.00    +0.277 C 
ENDBRANCH  19  22
BRANCH  20  24
ATOM     24  C   UNL     1      -9.627  -3.821  -2.216  0.00  0.00    +0.268 C 
BRANCH  24  25
ATOM     25  O   UNL     1      -8.928  -2.897  -3.053  0.00  0.00    -0.484 OA
BRANCH  25  26
ATOM     26  C   UNL     1      -9.682  -2.086  -3.841  0.00  0.00    +0.156 A 
ATOM     27  C   UNL     1     -11.065  -2.173  -3.805  0.00  0.00    +0.048 A 
ATOM     28  C   UNL     1     -11.830  -1.347  -4.607  0.00  0.00    +0.004 A 
ATOM     29  C   UNL     1     -11.217  -0.434  -5.446  0.00  0.00    +0.003 A 
ATOM     30  C   UNL     1      -9.838  -0.345  -5.485  0.00  0.00    +0.042 A 
ATOM     31  C   UNL     1      -9.068  -1.164  -4.679  0.00  0.00    +0.165 A 
ATOM     32  F   UNL     1      -7.720  -1.072  -4.713  0.00  0.00    -0.202 F 
ENDBRANCH  25  26
ENDBRANCH  24  25
ENDBRANCH  20  24
ENDBRANCH   7  16
BRANCH   1  34
ATOM     33  C   UNL     1      -0.017   1.425   0.010  0.00  0.00    +0.277 C 
ATOM     34  O   UNL     1       0.002  -0.004   0.002  0.00  0.00    -0.495 OA
ENDBRANCH   1  34
TORSDOF 6
