REMARK  Name = ZINC13500061
REMARK  15 active torsions:
REMARK  status: ('A' for Active; 'I' for Inactive)
REMARK    1  A    between atoms: C_1  and  C_2
REMARK    2  A    between atoms: C_2  and  C_3
REMARK    3  A    between atoms: C_3  and  C_4
REMARK    4  A    between atoms: C_4  and  C_6
REMARK    5  A    between atoms: C_4  and  N_74
REMARK    6  A    between atoms: N_10  and  C_11
REMARK    7  A    between atoms: C_11  and  C_12
REMARK    8  A    between atoms: C_11  and  C_13
REMARK    9  A    between atoms: C_11  and  C_14
REMARK   10  A    between atoms: C_14  and  C_15
REMARK   11  A    between atoms: C_16  and  C_17
REMARK   12  A    between atoms: C_16  and  N_74
REMARK   13  A    between atoms: C_21  and  C_30
REMARK   14  A    between atoms: C_23  and  C_29
REMARK   15  A    between atoms: C_31  and  N_74
REMARK                            x       y       z     vdW  Elec       q    Type
REMARK                         _______ _______ _______ _____ _____    ______ ____
ROOT
ATOM      1  N   UNL     1      -2.614   8.094  -1.111  0.00  0.00    +0.391 N 
ATOM      2  H   UNL     1      -1.886   7.370  -1.151  0.00  0.00    -0.080 HD
ENDROOT
BRANCH   1   3
ATOM      3  C   UNL     1      -3.667   7.771  -2.096  0.00  0.00    -0.067 C 
ATOM      4  C   UNL     1      -3.741   6.240  -2.273  0.00  0.00    -0.015 C 
ATOM      5  C   UNL     1      -4.018   6.046  -3.785  0.00  0.00    -0.002 C 
ATOM      6  C   UNL     1      -3.162   7.161  -4.436  0.00  0.00    -0.002 C 
ATOM      7  C   UNL     1      -3.300   8.356  -3.471  0.00  0.00    -0.015 C 
ENDBRANCH   1   3
BRANCH   1   8
ATOM      8  C   UNL     1      -2.006   9.403  -1.433  0.00  0.00    +0.003 C 
BRANCH   8   9
ATOM      9  C   UNL     1      -3.075  10.418  -1.746  0.00  0.00    +0.139 A 
ATOM     10  N   UNL     1      -4.291  10.449  -1.259  0.00  0.00    -0.115 NA
ATOM     11  N   UNL     1      -4.897  11.466  -1.767  0.00  0.00    -0.023 NA
ATOM     12  N   UNL     1      -4.099  12.085  -2.566  0.00  0.00    -0.043 NA
ATOM     13  N   UNL     1      -2.964  11.472  -2.575  0.00  0.00    -0.225 N 
BRANCH  13  14
ATOM     14  C   UNL     1      -1.777  11.850  -3.347  0.00  0.00    +0.061 C 
ATOM     15  C   UNL     1      -0.571  11.950  -2.412  0.00  0.00    +0.036 C 
ATOM     16  C   UNL     1      -1.506  10.792  -4.418  0.00  0.00    +0.036 C 
BRANCH  14  17
ATOM     17  C   UNL     1      -2.016  13.205  -4.018  0.00  0.00    +0.026 C 
ATOM     18  C   UNL     1      -0.777  13.600  -4.824  0.00  0.00    +0.006 C 
ENDBRANCH  14  17
ENDBRANCH  13  14
ENDBRANCH   8   9
BRANCH   8  19
ATOM     19  C   UNL     1      -1.182   9.882  -0.236  0.00  0.00    -0.008 C 
BRANCH  19  21
ATOM     20  C   UNL     1       0.744   9.335   1.259  0.00  0.00    +0.004 C 
ATOM     21  C   UNL     1      -0.006   8.929  -0.011  0.00  0.00    -0.005 C 
ENDBRANCH  19  21
ENDBRANCH   8  19
ENDBRANCH   1   8
BRANCH   1  22
ATOM     22  C   UNL     1      -3.187   8.124   0.251  0.00  0.00    -0.036 C 
BRANCH  22  23
ATOM     23  C   UNL     1      -3.688   6.746   0.599  0.00  0.00    +0.001 A 
ATOM     24  C   UNL     1      -2.871   5.871   1.235  0.00  0.00    +0.017 A 
ATOM     25  C   UNL     1      -3.388   4.540   1.559  0.00  0.00    -0.001 A 
ATOM     26  C   UNL     1      -2.592   3.594   2.213  0.00  0.00    +0.013 A 
ATOM     27  C   UNL     1      -3.104   2.361   2.502  0.00  0.00    -0.050 A 
ATOM     28  C   UNL     1      -4.408   2.038   2.151  0.00  0.00    +0.008 A 
ATOM     29  C   UNL     1      -5.209   2.953   1.501  0.00  0.00    -0.026 A 
ATOM     30  C   UNL     1      -4.711   4.217   1.202  0.00  0.00    +0.052 A 
ATOM     31  N   UNL     1      -5.491   5.152   0.557  0.00  0.00    -0.322 N 
ATOM     32  H   UNL     1      -6.402   4.928   0.312  0.00  0.00    +0.169 HD
ATOM     33  C   UNL     1      -5.007   6.372   0.263  0.00  0.00    +0.251 A 
ATOM     34  O   UNL     1      -5.725   7.174  -0.307  0.00  0.00    -0.268 OA
ATOM     35  C   UNL     1      -6.620   2.587   1.121  0.00  0.00    +0.046 C 
ATOM     36  C   UNL     1      -2.247   1.342   3.207  0.00  0.00    +0.044 C 
ENDBRANCH  22  23
ENDBRANCH   1  22
TORSDOF 9
