REMARK  Name = ZINC08582576
REMARK  14 active torsions:
REMARK  status: ('A' for Active; 'I' for Inactive)
REMARK    1  A    between atoms: C_1  and  C_2
REMARK    2  A    between atoms: C_2  and  C_3
REMARK    3  A    between atoms: C_3  and  C_5
REMARK    4  A    between atoms: C_3  and  N_69
REMARK    5  A    between atoms: N_9  and  C_10
REMARK    6  A    between atoms: C_10  and  C_11
REMARK    7  A    between atoms: C_11  and  C_12
REMARK    8  A    between atoms: C_18  and  C_19
REMARK    9  A    between atoms: C_18  and  N_69
REMARK   10  A    between atoms: C_24  and  C_25
REMARK   11  A    between atoms: C_24  and  N_69
REMARK   12  A    between atoms: C_28  and  C_37
REMARK   13  A    between atoms: C_31  and  C_36
REMARK   14  A    between atoms: C_34  and  O_35
REMARK                            x       y       z     vdW  Elec       q    Type
REMARK                         _______ _______ _______ _____ _____    ______ ____
ROOT
ATOM      1  N   UNL     1       3.588   1.806  -1.251  0.00  0.00    +0.394 N 
ATOM      2  H   UNL     1       3.269   1.841  -2.226  0.00  0.00    -0.080 HD
ENDROOT
BRANCH   1   3
ATOM      3  C   UNL     1       3.062   0.578  -0.617  0.00  0.00    +0.003 C 
BRANCH   3   4
ATOM      4  C   UNL     1       3.649   0.401   0.759  0.00  0.00    +0.138 A 
ATOM      5  N   UNL     1       4.906   0.547   1.099  0.00  0.00    -0.115 NA
ATOM      6  N   UNL     1       5.008   0.310   2.361  0.00  0.00    -0.023 NA
ATOM      7  N   UNL     1       3.848   0.016   2.836  0.00  0.00    -0.044 NA
ATOM      8  N   UNL     1       2.983   0.062   1.879  0.00  0.00    -0.231 N 
BRANCH   8   9
ATOM      9  C   UNL     1       1.547  -0.206   1.990  0.00  0.00    +0.152 C 
BRANCH   9  10
ATOM     10  C   UNL     1       0.809   1.095   2.310  0.00  0.00    +0.058 C 
BRANCH  10  11
ATOM     11  C   UNL     1      -0.668   0.820   2.424  0.00  0.00    -0.046 A 
ATOM     12  C   UNL     1      -1.477   0.912   1.307  0.00  0.00    +0.004 A 
ATOM     13  C   UNL     1      -2.831   0.654   1.411  0.00  0.00    +0.000 A 
ATOM     14  C   UNL     1      -3.378   0.314   2.635  0.00  0.00    +0.000 A 
ATOM     15  C   UNL     1      -2.570   0.227   3.753  0.00  0.00    +0.000 A 
ATOM     16  C   UNL     1      -1.215   0.480   3.648  0.00  0.00    +0.004 A 
ENDBRANCH  10  11
ENDBRANCH   9  10
ENDBRANCH   8   9
ENDBRANCH   3   4
BRANCH   3  18
ATOM     17  C   UNL     1       2.676  -0.545  -2.816  0.00  0.00    +0.002 C 
ATOM     18  C   UNL     1       3.432  -0.625  -1.488  0.00  0.00    -0.011 C 
ENDBRANCH   3  18
ENDBRANCH   1   3
BRANCH   1  19
ATOM     19  C   UNL     1       3.084   2.998  -0.537  0.00  0.00    -0.002 C 
BRANCH  19  20
ATOM     20  C   UNL     1       3.254   4.202  -1.428  0.00  0.00    +0.089 A 
ATOM     21  C   UNL     1       2.431   4.562  -2.429  0.00  0.00    +0.042 A 
ATOM     22  C   UNL     1       2.966   5.743  -2.994  0.00  0.00    +0.041 A 
ATOM     23  C   UNL     1       4.084   6.033  -2.304  0.00  0.00    +0.195 A 
ATOM     24  O   UNL     1       4.251   5.099  -1.353  0.00  0.00    -0.470 OA
ENDBRANCH  19  20
ENDBRANCH   1  19
BRANCH   1  25
ATOM     25  C   UNL     1       5.066   1.791  -1.230  0.00  0.00    -0.036 C 
BRANCH  25  26
ATOM     26  C   UNL     1       5.574   2.848  -2.176  0.00  0.00    -0.002 A 
ATOM     27  C   UNL     1       6.409   3.826  -1.723  0.00  0.00    +0.017 A 
ATOM     28  C   UNL     1       6.865   4.792  -2.642  0.00  0.00    +0.004 A 
ATOM     29  C   UNL     1       7.730   5.824  -2.246  0.00  0.00    -0.041 A 
ATOM     30  C   UNL     1       8.145   6.744  -3.160  0.00  0.00    +0.004 A 
ATOM     31  C   UNL     1       7.722   6.675  -4.486  0.00  0.00    +0.006 A 
ATOM     32  C   UNL     1       6.883   5.687  -4.904  0.00  0.00    -0.024 A 
ATOM     33  C   UNL     1       6.434   4.720  -3.989  0.00  0.00    +0.078 A 
ATOM     34  N   UNL     1       5.609   3.739  -4.373  0.00  0.00    -0.213 NA
ATOM     35  C   UNL     1       5.184   2.831  -3.521  0.00  0.00    +0.214 A 
ATOM     36  C   UNL     1       6.439   5.632  -6.343  0.00  0.00    +0.046 C 
ATOM     37  C   UNL     1       8.198   5.914  -0.816  0.00  0.00    +0.044 C 
BRANCH  35  38
ATOM     38  O   UNL     1       4.349   1.856  -3.955  0.00  0.00    -0.492 OA
ATOM     39  H   UNL     1       3.411   2.082  -3.886  0.00  0.00    +0.294 HD
ENDBRANCH  35  38
ENDBRANCH  25  26
ENDBRANCH   1  25
TORSDOF 11
