REMARK  Name = ZINC20854885
REMARK  6 active torsions:
REMARK  status: ('A' for Active; 'I' for Inactive)
REMARK    1  A    between atoms: C_1  and  C_2
REMARK    2  A    between atoms: C_11  and  C_38
REMARK    3  A    between atoms: N_13  and  C_17
REMARK    4  A    between atoms: C_21  and  C_23
REMARK    5  A    between atoms: N_28  and  C_31
REMARK    6  A    between atoms: C_31  and  C_32
REMARK                            x       y       z     vdW  Elec       q    Type
REMARK                         _______ _______ _______ _____ _____    ______ ____
ROOT
ATOM      1  C   UNL     1       3.256  -0.146   1.760  0.00  0.00    +0.042 A 
ATOM      2  C   UNL     1       3.145  -1.138   2.727  0.00  0.00    +0.024 A 
ATOM      3  C   UNL     1       4.202  -1.401   3.578  0.00  0.00    +0.003 A 
ATOM      4  C   UNL     1       5.374  -0.681   3.473  0.00  0.00    +0.013 A 
ATOM      5  C   UNL     1       5.495   0.318   2.506  0.00  0.00    +0.039 A 
ATOM      6  C   UNL     1       4.431   0.580   1.643  0.00  0.00    +0.036 A 
ENDROOT
BRANCH   1  18
ATOM      7  C   UNL     1      -4.254  -1.802   0.897  0.00  0.00    +0.044 C 
ATOM      8  C   UNL     1      -2.765  -1.821   0.663  0.00  0.00    -0.050 A 
ATOM      9  C   UNL     1      -2.029  -2.948   0.981  0.00  0.00    +0.007 A 
ATOM     10  C   UNL     1      -0.666  -2.967   0.765  0.00  0.00    +0.046 A 
ATOM     11  C   UNL     1      -0.028  -1.854   0.227  0.00  0.00    +0.128 A 
ATOM     12  C   UNL     1      -0.768  -0.728  -0.085  0.00  0.00    +0.015 A 
ATOM     13  C   UNL     1      -2.134  -0.713   0.132  0.00  0.00    +0.012 A 
ATOM     14  C   UNL     1      -0.105   0.502  -0.663  0.00  0.00    +0.114 C 
ATOM     15  C   UNL     1       1.206   0.070  -1.340  0.00  0.00    +0.096 C 
ATOM     16  C   UNL     1       2.012  -0.710  -0.291  0.00  0.00    +0.185 C 
ATOM     17  O   UNL     1       1.313  -1.912   0.021  0.00  0.00    -0.468 OA
ATOM     18  N   UNL     1       2.183   0.117   0.900  0.00  0.00    -0.216 N 
ATOM     19  C   UNL     1       1.343   1.121   1.196  0.00  0.00    +0.310 C 
ATOM     20  O   UNL     1       1.583   1.819   2.162  0.00  0.00    -0.252 OA
ATOM     21  N   UNL     1       0.247   1.382   0.465  0.00  0.00    -0.292 N 
ATOM     22  C   UNL     1       3.385  -1.063  -0.865  0.00  0.00    +0.079 C 
ATOM     23  H   UNL     1      -0.387   2.248   0.705  0.00  0.00    +0.151 HD
ENDBRANCH   1  18
BRANCH   5  24
ATOM     24  C   UNL     1       6.750   1.092   2.392  0.00  0.00    +0.247 C 
ATOM     25  O   UNL     1       6.710   2.299   2.257  0.00  0.00    -0.270 OA
ATOM     26  N   UNL     1       7.939   0.458   2.438  0.00  0.00    -0.295 N 
ATOM     27  C   UNL     1       8.014  -0.989   2.687  0.00  0.00    +0.123 C 
ATOM     28  C   UNL     1       8.889  -1.621   1.593  0.00  0.00    +0.103 C 
ATOM     29  N   UNL     1      10.185  -0.931   1.550  0.00  0.00    -0.295 NA
ATOM     30  C   UNL     1      10.025   0.481   1.177  0.00  0.00    +0.103 C 
ATOM     31  C   UNL     1       9.196   1.198   2.248  0.00  0.00    +0.123 C 
BRANCH  29  32
ATOM     32  C   UNL     1      11.116  -1.613   0.641  0.00  0.00    +0.119 C 
BRANCH  32  33
ATOM     33  C   UNL     1      11.445  -2.977   1.191  0.00  0.00    -0.033 A 
ATOM     34  C   UNL     1      12.526  -3.139   2.037  0.00  0.00    +0.005 A 
ATOM     35  C   UNL     1      12.826  -4.389   2.545  0.00  0.00    +0.000 A 
ATOM     36  C   UNL     1      12.050  -5.480   2.199  0.00  0.00    +0.000 A 
ATOM     37  C   UNL     1      10.973  -5.319   1.348  0.00  0.00    +0.000 A 
ATOM     38  C   UNL     1      10.670  -4.068   0.844  0.00  0.00    +0.005 A 
ENDBRANCH  32  33
ENDBRANCH  29  32
ENDBRANCH   5  24
TORSDOF 4
