REMARK  Name = ZINC01631526
REMARK  12 active torsions:
REMARK  status: ('A' for Active; 'I' for Inactive)
REMARK    1  A    between atoms: C_1  and  O_2
REMARK    2  A    between atoms: O_2  and  C_3
REMARK    3  A    between atoms: C_7  and  O_11
REMARK    4  A    between atoms: C_8  and  O_9
REMARK    5  A    between atoms: O_9  and  C_10
REMARK    6  A    between atoms: O_11  and  C_12
REMARK    7  A    between atoms: C_16  and  S_34
REMARK    8  A    between atoms: C_21  and  N_62
REMARK    9  A    between atoms: C_25  and  C_26
REMARK   10  A    between atoms: C_25  and  N_62
REMARK   11  A    between atoms: C_29  and  C_32
REMARK   12  A    between atoms: S_34  and  C_35
REMARK                            x       y       z     vdW  Elec       q    Type
REMARK                         _______ _______ _______ _____ _____    ______ ____
ROOT
ATOM      1  C   UNL     1      -1.508   2.126  -5.641  0.00  0.00    +0.165 A 
ATOM      2  C   UNL     1      -2.128   1.429  -4.612  0.00  0.00    +0.054 A 
ATOM      3  C   UNL     1      -2.274   2.014  -3.371  0.00  0.00    -0.033 A 
ATOM      4  C   UNL     1      -1.793   3.300  -3.148  0.00  0.00    +0.031 A 
ATOM      5  C   UNL     1      -1.173   4.010  -4.181  0.00  0.00    +0.173 A 
ATOM      6  C   UNL     1      -1.033   3.416  -5.429  0.00  0.00    +0.204 A 
ATOM      7  C   UNL     1      -1.922   3.922  -1.797  0.00  0.00    -0.012 A 
ATOM      8  C   UNL     1      -2.423   5.199  -1.751  0.00  0.00    +0.010 A 
ATOM      9  C   UNL     1      -2.704   6.033  -0.735  0.00  0.00    +0.019 A 
ATOM     10  C   UNL     1      -2.591   5.814   0.607  0.00  0.00    +0.054 A 
ATOM     11  C   UNL     1      -2.136   4.636   1.195  0.00  0.00    +0.192 A 
ATOM     12  O   UNL     1      -2.179   4.601   2.418  0.00  0.00    -0.287 OA
ATOM     13  C   UNL     1      -1.649   3.516   0.587  0.00  0.00    +0.054 A 
ATOM     14  C   UNL     1      -1.516   3.158  -0.703  0.00  0.00    -0.050 A 
ATOM     15  C   UNL     1      -0.877   1.809  -0.964  0.00  0.00    -0.039 C 
ATOM     16  C   UNL     1      -1.912   0.745  -1.272  0.00  0.00    -0.007 C 
ATOM     17  C   UNL     1      -2.956   1.264  -2.256  0.00  0.00    +0.035 C 
ENDROOT
BRANCH  15  18
ATOM     18  N   UNL     1      -0.117   1.397   0.231  0.00  0.00    +0.386 N 
ATOM     19  H   UNL     1      -0.010   0.376   0.230  0.00  0.00    -0.085 HD
ATOM     20  H   UNL     1      -0.627   1.687   1.074  0.00  0.00    -0.085 HD
BRANCH  18  21
ATOM     21  C   UNL     1       1.218   2.026   0.231  0.00  0.00    -0.046 C 
BRANCH  21  22
ATOM     22  C   UNL     1       1.970   1.588   1.461  0.00  0.00    -0.064 A 
ATOM     23  C   UNL     1       1.877   2.329   2.625  0.00  0.00    +0.003 A 
ATOM     24  C   UNL     1       2.559   1.932   3.757  0.00  0.00    +0.019 A 
ATOM     25  C   UNL     1       3.354   0.784   3.721  0.00  0.00    +0.052 A 
ATOM     26  C   UNL     1       3.448   0.044   2.541  0.00  0.00    +0.019 A 
ATOM     27  C   UNL     1       2.756   0.450   1.419  0.00  0.00    +0.003 A 
BRANCH  25  28
ATOM     28  C   UNL     1       4.070   0.369   4.890  0.00  0.00    +0.099 C 
ATOM     29  N   UNL     1       4.638   0.040   5.817  0.00  0.00    -0.191 NA
ENDBRANCH  25  28
ENDBRANCH  21  22
ENDBRANCH  18  21
ENDBRANCH  15  18
BRANCH   1  31
ATOM     30  C   UNL     1      -1.875   0.219  -7.012  0.00  0.00    +0.277 C 
ATOM     31  O   UNL     1      -1.365   1.545  -6.861  0.00  0.00    -0.491 OA
ENDBRANCH   1  31
BRANCH   6  32
ATOM     32  O   UNL     1      -0.430   4.095  -6.443  0.00  0.00    -0.488 OA
ATOM     33  C   UNL     1      -1.270   4.898  -7.274  0.00  0.00    +0.277 C 
ENDBRANCH   6  32
BRANCH   5  34
ATOM     34  O   UNL     1      -0.711   5.269  -3.965  0.00  0.00    -0.491 OA
ATOM     35  C   UNL     1       0.668   5.403  -3.614  0.00  0.00    +0.277 C 
ENDBRANCH   5  34
BRANCH  10  36
ATOM     36  S   UNL     1      -3.060   7.127   1.683  0.00  0.00    -0.125 S 
ATOM     37  C   UNL     1      -3.555   8.371   0.465  0.00  0.00    +0.090 C 
ENDBRANCH  10  36
TORSDOF 8
