REMARK  Name = ZINC38670514
REMARK  7 active torsions:
REMARK  status: ('A' for Active; 'I' for Inactive)
REMARK    1  A    between atoms: C_1  and  N_2
REMARK    2  A    between atoms: C_10  and  C_12
REMARK    3  A    between atoms: C_12  and  C_14
REMARK    4  A    between atoms: C_12  and  N_32
REMARK    5  A    between atoms: C_14  and  N_15
REMARK    6  A    between atoms: C_16  and  C_18
REMARK    7  A    between atoms: N_23  and  C_25
REMARK                            x       y       z     vdW  Elec       q    Type
REMARK                         _______ _______ _______ _____ _____    ______ ____
ROOT
ATOM      1  C   UNL     1       4.940  -2.718  -0.550  0.00  0.00    -0.020 C 
ENDROOT
BRANCH   1  11
ATOM      2  C   UNL     1       0.050   1.571  -0.027  0.00  0.00    +0.129 C 
ATOM      3  N   UNL     1       0.040   0.116  -0.195  0.00  0.00    -0.333 N 
ATOM      4  C   UNL     1      -1.231  -0.616  -0.280  0.00  0.00    +0.105 C 
ATOM      5  C   UNL     1      -1.116  -1.861   0.610  0.00  0.00    +0.024 C 
ATOM      6  C   UNL     1      -0.015  -2.764   0.054  0.00  0.00    +0.038 C 
ATOM      7  C   UNL     1       1.253  -1.980  -0.160  0.00  0.00    -0.026 A 
ATOM      8  C   UNL     1       1.239  -0.598  -0.283  0.00  0.00    +0.033 A 
ATOM      9  C   UNL     1       2.426   0.095  -0.490  0.00  0.00    +0.023 A 
ATOM     10  C   UNL     1       3.621  -0.592  -0.577  0.00  0.00    +0.004 A 
ATOM     11  C   UNL     1       3.635  -1.969  -0.457  0.00  0.00    -0.059 A 
ATOM     12  C   UNL     1       2.455  -2.661  -0.241  0.00  0.00    +0.007 A 
ENDBRANCH   1  11
BRANCH   1  13
ATOM     13  N   UNL     1       5.987  -1.968   0.156  0.00  0.00    +0.385 N 
ATOM     14  C   UNL     1       5.702  -1.940   1.614  0.00  0.00    -0.078 C 
ATOM     15  C   UNL     1       7.089  -1.652   2.241  0.00  0.00    -0.020 C 
ATOM     16  C   UNL     1       8.051  -2.457   1.337  0.00  0.00    -0.020 C 
ATOM     17  C   UNL     1       7.290  -2.653   0.013  0.00  0.00    -0.078 C 
ATOM     18  H   UNL     1       6.046  -1.028  -0.205  0.00  0.00    -0.081 HD
ENDBRANCH   1  13
BRANCH   1  19
ATOM     19  C   UNL     1       5.332  -2.879  -2.020  0.00  0.00    +0.093 C 
BRANCH  19  20
ATOM     20  N   UNL     1       4.345  -3.723  -2.699  0.00  0.00    -0.316 N 
ATOM     21  C   UNL     1       4.427  -3.918  -4.030  0.00  0.00    +0.218 C 
ATOM     22  O   UNL     1       5.319  -3.396  -4.666  0.00  0.00    -0.275 OA
ATOM     23  H   UNL     1       3.632  -4.140  -2.191  0.00  0.00    +0.149 HD
BRANCH  21  24
ATOM     24  C   UNL     1       3.412  -4.786  -4.729  0.00  0.00    +0.101 C 
ATOM     25  C   UNL     1       3.508  -6.250  -4.242  0.00  0.00    +0.110 C 
ATOM     26  C   UNL     1       3.246  -7.072  -5.485  0.00  0.00    +0.221 C 
ATOM     27  O   UNL     1       2.955  -8.250  -5.491  0.00  0.00    -0.275 OA
ATOM     28  N   UNL     1       3.381  -6.307  -6.582  0.00  0.00    -0.271 N 
ATOM     29  C   UNL     1       3.747  -4.929  -6.230  0.00  0.00    +0.127 C 
BRANCH  28  30
ATOM     30  C   UNL     1       3.197  -6.765  -7.892  0.00  0.00    +0.036 A 
ATOM     31  C   UNL     1       2.738  -8.055  -8.120  0.00  0.00    +0.026 A 
ATOM     32  C   UNL     1       2.557  -8.505  -9.413  0.00  0.00    +0.040 A 
ATOM     33  C   UNL     1       2.834  -7.670 -10.483  0.00  0.00    +0.124 A 
ATOM     34  C   UNL     1       3.292  -6.383 -10.258  0.00  0.00    +0.040 A 
ATOM     35  C   UNL     1       3.469  -5.927  -8.966  0.00  0.00    +0.026 A 
ATOM     36  F   UNL     1       2.658  -8.112 -11.747  0.00  0.00    -0.205 F 
ENDBRANCH  28  30
ENDBRANCH  21  24
ENDBRANCH  19  20
ENDBRANCH   1  19
TORSDOF 6
