REMARK  Name = ZINC04189211
REMARK  4 active torsions:
REMARK  status: ('A' for Active; 'I' for Inactive)
REMARK    1  A    between atoms: C_1  and  C_2
REMARK    2  A    between atoms: C_5  and  C_7
REMARK    3  A    between atoms: N_8  and  N_9
REMARK    4  A    between atoms: C_12  and  C_15
REMARK                            x       y       z     vdW  Elec       q    Type
REMARK                         _______ _______ _______ _____ _____    ______ ____
ROOT
ATOM      1  N   UNL     1       1.123   5.496   0.020  0.00  0.00    -0.215 N 
ATOM      2  C   UNL     1       0.159   6.488   0.035  0.00  0.00    +0.178 A 
ATOM      3  N   UNL     1       0.309   7.801   0.040  0.00  0.00    -0.224 NA
ATOM      4  C   UNL     1      -0.738   8.613   0.054  0.00  0.00    +0.080 A 
ATOM      5  C   UNL     1      -1.997   8.082   0.064  0.00  0.00    +0.077 A 
ATOM      6  S   UNL     1      -1.622   6.334   0.043  0.00  0.00    -0.059 S 
ATOM      7  H   UNL     1       2.064   5.734   0.012  0.00  0.00    +0.176 HD
ENDROOT
BRANCH   4   8
ATOM      8  C   UNL     1      -0.544  10.083   0.060  0.00  0.00    +0.001 A 
ATOM      9  C   UNL     1      -1.649  10.933   0.069  0.00  0.00    +0.011 A 
ATOM     10  C   UNL     1      -1.464  12.301   0.078  0.00  0.00    +0.020 A 
ATOM     11  C   UNL     1      -0.184  12.828   0.069  0.00  0.00    +0.041 A 
ATOM     12  C   UNL     1       0.917  11.988   0.055  0.00  0.00    +0.020 A 
ATOM     13  C   UNL     1       0.742  10.619   0.050  0.00  0.00    +0.011 A 
ATOM     14 CL   UNL     1       0.043  14.550   0.074  0.00  0.00    -0.084 Cl
ENDBRANCH   4   8
BRANCH   1  16
ATOM     15  C   UNL     1       1.649   3.215   0.003  0.00  0.00    +0.176 C 
ATOM     16  N   UNL     1       0.742   4.148   0.017  0.00  0.00    -0.185 NA
BRANCH  15  21
ATOM     17  C   UNL     1      -1.211  -0.898   0.009  0.00  0.00    +0.086 C 
ATOM     18  C   UNL     1       0.002  -0.004   0.002  0.00  0.00    +0.103 A 
ATOM     19  C   UNL     1       1.284  -0.420  -0.013  0.00  0.00    +0.045 A 
ATOM     20  C   UNL     1       2.093   0.732  -0.014  0.00  0.00    +0.051 A 
ATOM     21  C   UNL     1       1.249   1.804  -0.000  0.00  0.00    +0.148 A 
ATOM     22  O   UNL     1      -0.016   1.339   0.009  0.00  0.00    -0.459 OA
ENDBRANCH  15  21
ENDBRANCH   1  16
TORSDOF 3
