REMARK  Name = ZINC33810300
REMARK  7 active torsions:
REMARK  status: ('A' for Active; 'I' for Inactive)
REMARK    1  A    between atoms: C_1  and  C_2
REMARK    2  A    between atoms: C_2  and  C_32
REMARK    3  A    between atoms: C_6  and  C_20
REMARK    4  A    between atoms: C_12  and  S_16
REMARK    5  A    between atoms: S_16  and  C_17
REMARK    6  A    between atoms: C_17  and  C_18
REMARK    7  A    between atoms: C_24  and  N_26
REMARK                            x       y       z     vdW  Elec       q    Type
REMARK                         _______ _______ _______ _____ _____    ______ ____
ROOT
ATOM      1  C   UNL     1      -0.019   1.526   0.010  0.00  0.00    +0.011 C 
ATOM      2  C   UNL     1       0.002  -0.004   0.002  0.00  0.00    -0.023 C 
ATOM      3  C   UNL     1       0.740  -0.501  -1.243  0.00  0.00    +0.058 C 
ATOM      4  C   UNL     1       2.167  -0.013  -1.215  0.00  0.00    +0.017 C 
ATOM      5  C   UNL     1       2.814   0.179  -0.046  0.00  0.00    +0.024 C 
ATOM      6  C   UNL     1       4.245   0.653  -0.020  0.00  0.00    +0.092 C 
ATOM      7  C   UNL     1       4.642   1.260  -1.333  0.00  0.00    +0.069 A 
ATOM      8  C   UNL     1       5.784   2.085  -1.418  0.00  0.00    +0.280 A 
ATOM      9  O   UNL     1       6.453   2.314  -0.421  0.00  0.00    -0.265 OA
ATOM     10  N   UNL     1       6.131   2.617  -2.600  0.00  0.00    -0.185 NA
ATOM     11  C   UNL     1       5.421   2.382  -3.684  0.00  0.00    +0.172 A 
ATOM     12  N   UNL     1       4.311   1.594  -3.642  0.00  0.00    -0.322 N 
ATOM     13  C   UNL     1       3.915   1.027  -2.459  0.00  0.00    +0.111 A 
ATOM     14  N   UNL     1       2.793   0.233  -2.407  0.00  0.00    -0.304 N 
ATOM     15  C   UNL     1       2.173  -0.055   1.183  0.00  0.00    +0.162 C 
ATOM     16  O   UNL     1       2.786   0.119   2.218  0.00  0.00    -0.292 OA
ATOM     17  C   UNL     1       0.743  -0.516   1.242  0.00  0.00    +0.086 C 
ATOM     18  C   UNL     1      -1.432  -0.538   0.003  0.00  0.00    +0.011 C 
ATOM     19  H   UNL     1       2.442  -0.156  -3.223  0.00  0.00    +0.153 HD
ATOM     20  H   UNL     1       3.800   1.433  -4.451  0.00  0.00    +0.169 HD
ENDROOT
BRANCH   6  21
ATOM     21  C   UNL     1       5.147  -0.517   0.275  0.00  0.00    -0.033 A 
ATOM     22  C   UNL     1       5.171  -1.604  -0.579  0.00  0.00    +0.005 A 
ATOM     23  C   UNL     1       5.998  -2.678  -0.309  0.00  0.00    +0.003 A 
ATOM     24  C   UNL     1       6.803  -2.664   0.815  0.00  0.00    +0.033 A 
ATOM     25  C   UNL     1       6.781  -1.577   1.668  0.00  0.00    +0.126 A 
ATOM     26  C   UNL     1       5.956  -0.502   1.395  0.00  0.00    +0.037 A 
BRANCH  25  27
ATOM     27  N   UNL     1       7.642  -1.563   2.871  0.00  0.00    +0.056 N 
ATOM     28  O   UNL     1       8.366  -2.503   3.108  0.00  0.00    -0.126 OA
ATOM     29  O   UNL     1       7.623  -0.613   3.618  0.00  0.00    -0.126 OA
ENDBRANCH  25  27
ENDBRANCH   6  21
BRANCH  11  30
ATOM     30  S   UNL     1       5.915   3.101  -5.215  0.00  0.00    -0.084 S 
BRANCH  30  31
ATOM     31  C   UNL     1       7.406   4.045  -4.796  0.00  0.00    +0.104 C 
BRANCH  31  32
ATOM     32  C   UNL     1       7.938   4.720  -6.034  0.00  0.00    -0.023 C 
ATOM     33  C   UNL     1       7.949   6.027  -6.114  0.00  0.00    +0.005 C 
ENDBRANCH  31  32
ENDBRANCH  30  31
ENDBRANCH  11  30
TORSDOF 5
