REMARK  Name = ZINC63055522
REMARK  6 active torsions:
REMARK  status: ('A' for Active; 'I' for Inactive)
REMARK    1  A    between atoms: C_1  and  C_2
REMARK    2  A    between atoms: C_4  and  C_9
REMARK    3  A    between atoms: C_9  and  C_11
REMARK    4  A    between atoms: C_9  and  N_21
REMARK    5  A    between atoms: C_16  and  O_17
REMARK    6  A    between atoms: O_17  and  C_18
REMARK                            x       y       z     vdW  Elec       q    Type
REMARK                         _______ _______ _______ _____ _____    ______ ____
ROOT
ATOM      1  C   UNL     1       0.037  -2.768  -2.526  0.00  0.00    -0.010 C 
ENDROOT
BRANCH   1   5
ATOM      2  C   UNL     1       0.032   1.419   0.214  0.00  0.00    +0.047 C 
ATOM      3  C   UNL     1       0.032  -0.086   0.130  0.00  0.00    -0.015 A 
ATOM      4  C   UNL     1       0.035  -0.709  -1.103  0.00  0.00    +0.008 A 
ATOM      5  C   UNL     1       0.035  -2.089  -1.180  0.00  0.00    -0.057 A 
ATOM      6  C   UNL     1       0.032  -2.847  -0.024  0.00  0.00    +0.005 A 
ATOM      7  C   UNL     1       0.029  -2.226   1.210  0.00  0.00    +0.039 A 
ATOM      8  C   UNL     1       0.035  -0.844   1.289  0.00  0.00    +0.126 A 
ATOM      9  F   UNL     1       0.037  -0.235   2.495  0.00  0.00    -0.205 F 
ENDBRANCH   1   5
BRANCH   1  10
ATOM     10  C   UNL     1       1.450  -3.130  -2.903  0.00  0.00    -0.013 A 
ATOM     11  C   UNL     1       2.442  -3.138  -1.941  0.00  0.00    +0.026 A 
ATOM     12  C   UNL     1       3.740  -3.471  -2.286  0.00  0.00    +0.042 A 
ATOM     13  C   UNL     1       4.048  -3.796  -3.596  0.00  0.00    +0.039 A 
ATOM     14  C   UNL     1       3.059  -3.788  -4.561  0.00  0.00    +0.061 A 
ATOM     15  C   UNL     1       1.755  -3.461  -4.215  0.00  0.00    +0.136 A 
ATOM     16 BR   UNL     1       3.480  -4.231  -6.351  0.00  0.00    -0.046 Br
ATOM     17 CL   UNL     1       4.984  -3.480  -1.075  0.00  0.00    -0.083 Cl
BRANCH  15  18
ATOM     18  O   UNL     1       0.780  -3.458  -5.162  0.00  0.00    -0.494 OA
ATOM     19  C   UNL     1       0.618  -2.260  -5.923  0.00  0.00    +0.277 C 
ENDBRANCH  15  18
ENDBRANCH   1  10
BRANCH   1  20
ATOM     20  N   UNL     1      -0.780  -3.987  -2.461  0.00  0.00    +0.385 N 
ATOM     21  H   UNL     1      -0.778  -4.442  -3.362  0.00  0.00    -0.089 HD
ATOM     22  H   UNL     1      -0.396  -4.612  -1.768  0.00  0.00    -0.089 HD
ATOM     23  H   UNL     1      -1.726  -3.745  -2.208  0.00  0.00    -0.089 HD
ENDBRANCH   1  20
TORSDOF 4
