REMARK  Name = ZINC09126553
REMARK  7 active torsions:
REMARK  status: ('A' for Active; 'I' for Inactive)
REMARK    1  A    between atoms: C_1  and  C_2
REMARK    2  A    between atoms: C_5  and  N_8
REMARK    3  A    between atoms: C_9  and  C_28
REMARK    4  A    between atoms: C_12  and  S_13
REMARK    5  A    between atoms: S_13  and  C_14
REMARK    6  A    between atoms: C_14  and  C_16
REMARK    7  A    between atoms: C_14  and  C_22
REMARK                            x       y       z     vdW  Elec       q    Type
REMARK                         _______ _______ _______ _____ _____    ______ ____
ROOT
ATOM      1  N   UNL     1       3.692   2.185  -4.133  0.00  0.00    -0.270 N 
ATOM      2  C   UNL     1       3.800   0.920  -4.669  0.00  0.00    +0.172 A 
ATOM      3  N   UNL     1       3.907   0.084  -3.662  0.00  0.00    -0.128 NA
ATOM      4  N   UNL     1       3.880   0.728  -2.550  0.00  0.00    -0.122 NA
ATOM      5  C   UNL     1       3.754   2.016  -2.777  0.00  0.00    +0.197 A 
ENDROOT
BRANCH   1  10
ATOM      6  C   UNL     1       3.128   7.071  -6.964  0.00  0.00    +0.044 C 
ATOM      7  C   UNL     1       3.277   5.774  -6.212  0.00  0.00    -0.050 A 
ATOM      8  C   UNL     1       4.432   5.523  -5.493  0.00  0.00    +0.005 A 
ATOM      9  C   UNL     1       4.572   4.334  -4.803  0.00  0.00    +0.026 A 
ATOM     10  C   UNL     1       3.553   3.392  -4.832  0.00  0.00    +0.051 A 
ATOM     11  C   UNL     1       2.397   3.645  -5.559  0.00  0.00    +0.026 A 
ATOM     12  C   UNL     1       2.261   4.837  -6.243  0.00  0.00    +0.005 A 
ENDBRANCH   1  10
BRANCH   2  13
ATOM     13  C   UNL     1       3.790   0.570  -6.104  0.00  0.00    +0.055 A 
ATOM     14  C   UNL     1       4.586   1.279  -7.005  0.00  0.00    +0.014 A 
ATOM     15  C   UNL     1       4.573   0.947  -8.343  0.00  0.00    +0.001 A 
ATOM     16  C   UNL     1       3.774  -0.088  -8.796  0.00  0.00    +0.003 A 
ATOM     17  C   UNL     1       2.982  -0.797  -7.911  0.00  0.00    +0.039 A 
ATOM     18  C   UNL     1       2.989  -0.478  -6.566  0.00  0.00    +0.134 A 
ATOM     19  F   UNL     1       2.219  -1.175  -5.701  0.00  0.00    -0.205 F 
ENDBRANCH   2  13
BRANCH   5  20
ATOM     20  S   UNL     1       3.672   3.288  -1.560  0.00  0.00    -0.068 S 
BRANCH  20  21
ATOM     21  C   UNL     1       3.809   2.293  -0.055  0.00  0.00    +0.170 C 
BRANCH  21  22
ATOM     22  C   UNL     1       3.884   3.203   1.144  0.00  0.00    +0.238 C 
ATOM     23  O   UNL     1       3.413   4.319   1.089  0.00  0.00    -0.274 OA
ATOM     24  N   UNL     1       4.476   2.777   2.277  0.00  0.00    -0.239 N 
ATOM     25  C   UNL     1       4.543   3.591   3.350  0.00  0.00    +0.303 C 
ATOM     26  O   UNL     1       4.071   4.710   3.294  0.00  0.00    -0.253 OA
ATOM     27  N   UNL     1       5.135   3.165   4.483  0.00  0.00    -0.313 N 
ATOM     28  H   UNL     1       4.853   1.885   2.322  0.00  0.00    +0.159 HD
ATOM     29  H   UNL     1       5.512   2.273   4.527  0.00  0.00    +0.146 HD
ATOM     30  H   UNL     1       5.184   3.751   5.255  0.00  0.00    +0.146 HD
ENDBRANCH  21  22
BRANCH  21  31
ATOM     31  C   UNL     1       2.602   1.399   0.068  0.00  0.00    -0.025 A 
ATOM     32  C   UNL     1       1.338   1.953   0.149  0.00  0.00    +0.005 A 
ATOM     33  C   UNL     1       0.230   1.133   0.261  0.00  0.00    +0.000 A 
ATOM     34  C   UNL     1       0.387  -0.240   0.294  0.00  0.00    +0.000 A 
ATOM     35  C   UNL     1       1.652  -0.793   0.214  0.00  0.00    +0.000 A 
ATOM     36  C   UNL     1       2.759   0.026   0.102  0.00  0.00    +0.005 A 
ENDBRANCH  21  31
ENDBRANCH  20  21
ENDBRANCH   5  20
TORSDOF 6
