REMARK  Name = ZINC41586333
REMARK  9 active torsions:
REMARK  status: ('A' for Active; 'I' for Inactive)
REMARK    1  A    between atoms: C_1  and  C_2
REMARK    2  A    between atoms: C_2  and  O_3
REMARK    3  A    between atoms: O_3  and  C_4
REMARK    4  A    between atoms: C_4  and  C_6
REMARK    5  A    between atoms: N_11  and  C_13
REMARK    6  A    between atoms: C_13  and  C_14
REMARK    7  A    between atoms: C_15  and  O_33
REMARK    8  A    between atoms: C_17  and  C_32
REMARK    9  A    between atoms: C_22  and  C_23
REMARK                            x       y       z     vdW  Elec       q    Type
REMARK                         _______ _______ _______ _____ _____    ______ ____
ROOT
ATOM      1  C   UNL     1      -5.450  -6.514  -0.179  0.00  0.00    +0.020 A 
ATOM      2  C   UNL     1      -6.169  -6.840   0.961  0.00  0.00    +0.122 A 
ATOM      3  C   UNL     1      -7.443  -7.392   0.861  0.00  0.00    +0.050 A 
ATOM      4  C   UNL     1      -7.998  -7.620  -0.366  0.00  0.00    -0.033 A 
ATOM      5  C   UNL     1      -7.286  -7.297  -1.522  0.00  0.00    +0.071 A 
ATOM      6  C   UNL     1      -6.003  -6.734  -1.434  0.00  0.00    +0.145 A 
ATOM      7  O   UNL     1      -5.520  -6.503  -2.675  0.00  0.00    -0.451 OA
ATOM      8  C   UNL     1      -6.402  -6.870  -3.634  0.00  0.00    +0.176 C 
ATOM      9  C   UNL     1      -6.217  -6.767  -4.974  0.00  0.00    +0.058 C 
ATOM     10  C   UNL     1      -7.592  -7.413  -2.959  0.00  0.00    +0.232 C 
ATOM     11  O   UNL     1      -8.607  -7.849  -3.474  0.00  0.00    -0.283 OA
ATOM     12  C   UNL     1      -9.377  -8.218  -0.471  0.00  0.00    +0.045 C 
ENDROOT
BRANCH   9  13
ATOM     13  C   UNL     1      -5.014  -6.108  -5.501  0.00  0.00    -0.021 A 
ATOM     14  C   UNL     1      -4.883  -5.880  -6.876  0.00  0.00    +0.009 A 
ATOM     15  C   UNL     1      -3.752  -5.261  -7.363  0.00  0.00    +0.020 A 
ATOM     16  C   UNL     1      -2.747  -4.864  -6.496  0.00  0.00    +0.041 A 
ATOM     17  C   UNL     1      -2.870  -5.087  -5.133  0.00  0.00    +0.020 A 
ATOM     18  C   UNL     1      -3.997  -5.699  -4.631  0.00  0.00    +0.009 A 
ATOM     19 CL   UNL     1      -1.326  -4.085  -7.119  0.00  0.00    -0.084 Cl
ENDBRANCH   9  13
BRANCH   2  20
ATOM     20  O   UNL     1      -5.625  -6.618   2.185  0.00  0.00    -0.506 OA
ATOM     21  H   UNL     1      -5.820  -5.743   2.549  0.00  0.00    +0.292 HD
ENDBRANCH   2  20
BRANCH   1  22
ATOM     22  C   UNL     1      -4.072  -5.917  -0.056  0.00  0.00    -0.036 C 
BRANCH  22  27
ATOM     23  C   UNL     1      -2.936  -2.340  -0.023  0.00  0.00    +0.081 C 
ATOM     24  C   UNL     1      -3.690  -1.871   1.225  0.00  0.00    +0.011 C 
ATOM     25  C   UNL     1      -5.064  -2.546   1.263  0.00  0.00    -0.018 C 
ATOM     26  C   UNL     1      -4.880  -4.065   1.234  0.00  0.00    -0.078 C 
ATOM     27  N   UNL     1      -4.177  -4.453   0.005  0.00  0.00    +0.383 N 
ATOM     28  C   UNL     1      -2.832  -3.867  -0.006  0.00  0.00    -0.064 C 
ATOM     29  H   UNL     1      -4.693  -4.121  -0.796  0.00  0.00    -0.081 HD
BRANCH  23  30
ATOM     30  C   UNL     1      -1.553  -1.741  -0.030  0.00  0.00    +0.308 C 
ATOM     31  O   UNL     1      -0.583  -2.461  -0.025  0.00  0.00    -0.251 OA
BRANCH  30  32
ATOM     32  O   UNL     1      -1.400  -0.408  -0.044  0.00  0.00    -0.465 OA
BRANCH  32  34
ATOM     33  C   UNL     1      -0.086   1.621  -0.066  0.00  0.00    +0.048 C 
ATOM     34  C   UNL     1      -0.061   0.091  -0.051  0.00  0.00    +0.229 C 
ENDBRANCH  32  34
ENDBRANCH  30  32
ENDBRANCH  23  30
ENDBRANCH  22  27
ENDBRANCH   1  22
TORSDOF 7
