REMARK  Name = ZINC12072430
REMARK  8 active torsions:
REMARK  status: ('A' for Active; 'I' for Inactive)
REMARK    1  A    between atoms: C_1  and  C_2
REMARK    2  A    between atoms: C_11  and  C_12
REMARK    3  A    between atoms: C_12  and  N_13
REMARK    4  A    between atoms: N_13  and  C_14
REMARK    5  A    between atoms: C_15  and  C_17
REMARK    6  A    between atoms: C_17  and  C_18
REMARK    7  A    between atoms: C_25  and  C_26
REMARK    8  A    between atoms: C_25  and  N_58
REMARK                            x       y       z     vdW  Elec       q    Type
REMARK                         _______ _______ _______ _____ _____    ______ ____
ROOT
ATOM      1  C   UNL     1       1.515   1.735   0.307  0.00  0.00    +0.028 C 
ATOM      2  C   UNL     1       1.660   3.163   0.752  0.00  0.00    +0.200 C 
ATOM      3  O   UNL     1       1.634   3.407   1.939  0.00  0.00    -0.278 OA
ATOM      4  N   UNL     1       1.811   4.176  -0.107  0.00  0.00    -0.318 N 
ATOM      5  C   UNL     1       1.897   3.986  -1.553  0.00  0.00    +0.085 C 
ATOM      6  C   UNL     1       1.339   2.613  -1.933  0.00  0.00    -0.058 C 
ATOM      7  H   UNL     1       1.870   5.078   0.245  0.00  0.00    +0.149 HD
ATOM      8  N   UNL     1       1.996   1.601  -1.081  0.00  0.00    +0.391 N 
ATOM      9  H   UNL     1       3.011   1.753  -1.101  0.00  0.00    -0.080 HD
ENDROOT
BRANCH   1  10
ATOM     10  C   UNL     1       2.355   0.833   1.213  0.00  0.00    +0.090 C 
BRANCH  10  13
ATOM     11  N   UNL     1       4.728   0.617   1.877  0.00  0.00    -0.299 N 
ATOM     12  C   UNL     1       4.313  -0.389   2.858  0.00  0.00    +0.132 C 
ATOM     13  C   UNL     1       3.809   1.207   1.087  0.00  0.00    +0.215 C 
ATOM     14  O   UNL     1       4.152   2.039   0.275  0.00  0.00    -0.276 OA
BRANCH  11  15
ATOM     15  C   UNL     1       6.141   0.980   1.754  0.00  0.00    +0.160 C 
BRANCH  15  26
ATOM     16  C   UNL     1       8.873   2.434   2.001  0.00  0.00    +0.046 C 
ATOM     17  C   UNL     1       7.658   2.677   2.858  0.00  0.00    -0.021 A 
ATOM     18  C   UNL     1       7.544   3.640   3.956  0.00  0.00    +0.003 A 
ATOM     19  C   UNL     1       8.419   4.565   4.529  0.00  0.00    +0.010 A 
ATOM     20  C   UNL     1       8.000   5.335   5.577  0.00  0.00    +0.001 A 
ATOM     21  C   UNL     1       6.711   5.205   6.077  0.00  0.00    +0.002 A 
ATOM     22  C   UNL     1       5.832   4.299   5.526  0.00  0.00    +0.026 A 
ATOM     23  C   UNL     1       6.237   3.505   4.458  0.00  0.00    +0.047 A 
ATOM     24  N   UNL     1       5.613   2.533   3.709  0.00  0.00    -0.356 N 
ATOM     25  H   UNL     1       4.699   2.232   3.836  0.00  0.00    +0.166 HD
ATOM     26  C   UNL     1       6.473   2.053   2.759  0.00  0.00    +0.037 A 
ENDBRANCH  15  26
ENDBRANCH  11  15
ENDBRANCH  10  13
ENDBRANCH   1  10
BRANCH   8  27
ATOM     27  C   UNL     1       1.703   0.241  -1.590  0.00  0.00    -0.039 C 
BRANCH  27  28
ATOM     28  C   UNL     1       2.516   0.001  -2.836  0.00  0.00    -0.026 A 
ATOM     29  C   UNL     1       3.742  -0.632  -2.749  0.00  0.00    +0.005 A 
ATOM     30  C   UNL     1       4.489  -0.854  -3.891  0.00  0.00    +0.003 A 
ATOM     31  C   UNL     1       4.012  -0.443  -5.122  0.00  0.00    +0.041 A 
ATOM     32  C   UNL     1       2.785   0.192  -5.211  0.00  0.00    +0.159 A 
ATOM     33  C   UNL     1       2.033   0.409  -4.066  0.00  0.00    +0.160 A 
ATOM     34  F   UNL     1       0.833   1.022  -4.152  0.00  0.00    -0.202 F 
ATOM     35  F   UNL     1       2.318   0.594  -6.413  0.00  0.00    -0.202 F 
ENDBRANCH  27  28
ENDBRANCH   8  27
TORSDOF 6
