REMARK  Name = ZINC37905143
REMARK  7 active torsions:
REMARK  status: ('A' for Active; 'I' for Inactive)
REMARK    1  A    between atoms: C_1  and  C_2
REMARK    2  A    between atoms: C_5  and  N_10
REMARK    3  A    between atoms: C_6  and  C_9
REMARK    4  A    between atoms: C_7  and  N_8
REMARK    5  A    between atoms: N_10  and  S_11
REMARK    6  A    between atoms: S_11  and  N_14
REMARK    7  A    between atoms: C_18  and  C_21
REMARK                            x       y       z     vdW  Elec       q    Type
REMARK                         _______ _______ _______ _____ _____    ______ ____
ROOT
ATOM      1  N   UNL     1       0.058  -4.172  -0.027  0.00  0.00    -0.206 N 
ATOM      2  H   UNL     1      -0.475  -4.659   0.621  0.00  0.00    +0.175 HD
ENDROOT
BRANCH   1   7
ATOM      3  C   UNL     1       0.701   1.446   0.462  0.00  0.00    +0.045 C 
ATOM      4  C   UNL     1       0.530  -0.046   0.334  0.00  0.00    -0.029 A 
ATOM      5  C   UNL     1       0.439  -0.625  -0.917  0.00  0.00    +0.007 A 
ATOM      6  C   UNL     1       0.282  -1.992  -1.039  0.00  0.00    +0.025 A 
ATOM      7  C   UNL     1       0.217  -2.790   0.097  0.00  0.00    +0.054 A 
ATOM      8  C   UNL     1       0.308  -2.212   1.355  0.00  0.00    -0.007 A 
ATOM      9  C   UNL     1       0.471  -0.839   1.474  0.00  0.00    +0.032 A 
ATOM     10  C   UNL     1       0.237  -3.074   2.589  0.00  0.00    +0.047 C 
BRANCH   9  11
ATOM     11  N   UNL     1       0.570  -0.253   2.738  0.00  0.00    -0.358 N 
ATOM     12  H   UNL     1       0.679   0.707   2.821  0.00  0.00    +0.142 HD
ATOM     13  H   UNL     1       0.528  -0.807   3.534  0.00  0.00    +0.142 HD
ENDBRANCH   9  11
ENDBRANCH   1   7
BRANCH   1  14
ATOM     14  S   UNL     1       0.780  -4.979  -1.280  0.00  0.00    +0.112 S 
ATOM     15  O   UNL     1       0.556  -6.364  -1.054  0.00  0.00    -0.138 OA
ATOM     16  O   UNL     1       0.369  -4.326  -2.474  0.00  0.00    -0.138 OA
BRANCH  14  17
ATOM     17  N   UNL     1       2.412  -4.735  -1.145  0.00  0.00    -0.164 NA
ATOM     18  C   UNL     1       3.054  -3.587  -1.799  0.00  0.00    +0.111 C 
ATOM     19  C   UNL     1       4.209  -4.096  -2.667  0.00  0.00    +0.017 C 
ATOM     20  C   UNL     1       5.154  -4.939  -1.808  0.00  0.00    +0.006 C 
ATOM     21  C   UNL     1       4.398  -6.148  -1.251  0.00  0.00    +0.002 C 
ATOM     22  C   UNL     1       3.245  -5.659  -0.363  0.00  0.00    +0.114 C 
ATOM     23  C   UNL     1       5.352  -7.009  -0.420  0.00  0.00    +0.009 C 
ENDBRANCH  14  17
ENDBRANCH   1  14
TORSDOF 4
