REMARK  Name = ZINC11015193
REMARK  13 active torsions:
REMARK  status: ('A' for Active; 'I' for Inactive)
REMARK    1  A    between atoms: C_1  and  C_2
REMARK    2  A    between atoms: C_2  and  O_3
REMARK    3  A    between atoms: O_3  and  C_4
REMARK    4  A    between atoms: C_4  and  C_6
REMARK    5  A    between atoms: C_7  and  C_19
REMARK    6  A    between atoms: C_12  and  C_14
REMARK    7  A    between atoms: C_19  and  S_20
REMARK    8  A    between atoms: S_20  and  C_21
REMARK    9  A    between atoms: C_24  and  C_26
REMARK   10  A    between atoms: C_29  and  C_32
REMARK   11  A    between atoms: C_32  and  C_33
REMARK   12  A    between atoms: C_32  and  C_34
REMARK   13  A    between atoms: C_32  and  C_35
REMARK                            x       y       z     vdW  Elec       q    Type
REMARK                         _______ _______ _______ _____ _____    ______ ____
ROOT
ATOM      1  C   UNL     1       2.180   4.572  -1.381  0.00  0.00    +0.079 C 
ATOM      2  C   UNL     1       2.367   5.881  -1.652  0.00  0.00    +0.034 C 
ATOM      3  N   UNL     1       2.351   6.816  -0.657  0.00  0.00    -0.272 N 
ATOM      4  C   UNL     1       2.153   6.523   0.634  0.00  0.00    +0.304 C 
ATOM      5  O   UNL     1       2.156   7.425   1.449  0.00  0.00    -0.252 OA
ATOM      6  N   UNL     1       1.952   5.260   1.060  0.00  0.00    -0.288 N 
ATOM      7  C   UNL     1       1.951   4.176   0.063  0.00  0.00    +0.150 C 
ATOM      8  H   UNL     1       2.490   7.745  -0.899  0.00  0.00    +0.156 HD
ATOM      9  H   UNL     1       1.810   5.070   2.001  0.00  0.00    +0.151 HD
ENDROOT
BRANCH   7  10
ATOM     10  C   UNL     1       0.623   3.469   0.146  0.00  0.00    +0.015 A 
ATOM     11  C   UNL     1       0.366   2.139   0.200  0.00  0.00    +0.013 A 
ATOM     12  C   UNL     1      -0.947   1.713   0.274  0.00  0.00    +0.008 A 
ATOM     13  C   UNL     1      -1.938   2.637   0.285  0.00  0.00    +0.045 A 
ATOM     14  S   UNL     1      -1.020   4.166   0.201  0.00  0.00    -0.099 S 
ENDBRANCH   7  10
BRANCH   1  15
ATOM     15  C   UNL     1       2.198   3.602  -2.411  0.00  0.00    +0.339 C 
ATOM     16  O   UNL     1       2.239   3.952  -3.576  0.00  0.00    -0.245 OA
BRANCH  15  17
ATOM     17  O   UNL     1       2.168   2.289  -2.102  0.00  0.00    -0.462 OA
BRANCH  17  19
ATOM     18  C   UNL     1       2.150  -0.065  -2.650  0.00  0.00    +0.048 C 
ATOM     19  C   UNL     1       2.188   1.365  -3.192  0.00  0.00    +0.229 C 
ENDBRANCH  17  19
ENDBRANCH  15  17
ENDBRANCH   1  15
BRANCH   2  20
ATOM     20  C   UNL     1       2.598   6.318  -3.076  0.00  0.00    +0.130 C 
BRANCH  20  21
ATOM     21  S   UNL     1       1.051   6.951  -3.771  0.00  0.00    -0.060 S 
BRANCH  21  22
ATOM     22  C   UNL     1       1.595   7.377  -5.392  0.00  0.00    +0.278 A 
ATOM     23  N   UNL     1       2.813   7.240  -5.864  0.00  0.00    -0.101 NA
ATOM     24  N   UNL     1       2.848   7.649  -7.083  0.00  0.00    -0.106 NA
ATOM     25  C   UNL     1       1.659   8.072  -7.435  0.00  0.00    +0.249 A 
ATOM     26  O   UNL     1       0.840   7.909  -6.372  0.00  0.00    -0.411 OA
BRANCH  25  27
ATOM     27  C   UNL     1       1.281   8.625  -8.752  0.00  0.00    +0.039 A 
ATOM     28  C   UNL     1      -0.032   9.033  -8.992  0.00  0.00    +0.013 A 
ATOM     29  C   UNL     1      -0.377   9.553 -10.222  0.00  0.00    +0.005 A 
ATOM     30  C   UNL     1       0.574   9.660 -11.222  0.00  0.00    -0.042 A 
ATOM     31  C   UNL     1       1.877   9.253 -10.993  0.00  0.00    +0.005 A 
ATOM     32  C   UNL     1       2.236   8.736  -9.765  0.00  0.00    +0.013 A 
BRANCH  30  33
ATOM     33  C   UNL     1       0.189  10.224 -12.565  0.00  0.00    -0.013 C 
ATOM     34  C   UNL     1       0.446   9.176 -13.650  0.00  0.00    +0.015 C 
ATOM     35  C   UNL     1      -1.295  10.595 -12.556  0.00  0.00    +0.015 C 
ATOM     36  C   UNL     1       1.026  11.472 -12.854  0.00  0.00    +0.015 C 
ENDBRANCH  30  33
ENDBRANCH  25  27
ENDBRANCH  21  22
ENDBRANCH  20  21
ENDBRANCH   2  20
TORSDOF 9
