REMARK  Name = ZINC39467210
REMARK  7 active torsions:
REMARK  status: ('A' for Active; 'I' for Inactive)
REMARK    1  A    between atoms: C_1  and  O_2
REMARK    2  A    between atoms: O_2  and  C_3
REMARK    3  A    between atoms: P_12  and  C_31
REMARK    4  A    between atoms: C_20  and  S_21
REMARK    5  A    between atoms: S_21  and  O_24
REMARK    6  A    between atoms: O_24  and  C_25
REMARK    7  A    between atoms: C_36  and  O_37
REMARK                            x       y       z     vdW  Elec       q    Type
REMARK                         _______ _______ _______ _____ _____    ______ ____
ROOT
ATOM      1  C   UNL     1       0.370  -0.605  -1.041  0.00  0.00    +0.144 C 
ATOM      2  C   UNL     1       0.985   0.130  -1.971  0.00  0.00    +0.024 C 
ATOM      3  C   UNL     1       1.784  -0.547  -3.052  0.00  0.00    +0.019 C 
ATOM      4  C   UNL     1       2.853   0.394  -3.590  0.00  0.00    -0.002 C 
ATOM      5  C   UNL     1       4.046  -0.389  -4.155  0.00  0.00    -0.020 C 
ATOM      6  C   UNL     1       4.656   0.511  -5.240  0.00  0.00    +0.157 C 
ATOM      7  O   UNL     1       5.809  -0.118  -5.822  0.00  0.00    -0.316 OA
ATOM      8  P   UNL     1       5.636  -1.648  -6.348  0.00  0.00    +0.291 P 
ATOM      9  O   UNL     1       6.955  -2.314  -6.439  0.00  0.00    -0.269 OA
ATOM     10  N   UNL     1       4.700  -2.383  -5.207  0.00  0.00    -0.288 NA
ATOM     11  N   UNL     1       3.631  -1.679  -4.692  0.00  0.00    +0.398 N 
ATOM     12  C   UNL     1       3.099  -2.571  -3.649  0.00  0.00    -0.046 C 
ATOM     13  C   UNL     1       2.470  -1.789  -2.486  0.00  0.00    +0.006 C 
ATOM     14  C   UNL     1       1.463  -2.645  -1.767  0.00  0.00    +0.009 C 
ATOM     15  C   UNL     1       0.475  -2.076  -1.087  0.00  0.00    +0.165 C 
ATOM     16  H   UNL     1       4.895  -3.287  -4.915  0.00  0.00    +0.111 HD
ATOM     17  H   UNL     1       2.931  -1.538  -5.405  0.00  0.00    -0.055 HD
ENDROOT
BRANCH   8  18
ATOM     18  C   UNL     1       4.806  -1.672  -7.961  0.00  0.00    +0.091 A 
ATOM     19  C   UNL     1       3.428  -1.743  -8.029  0.00  0.00    +0.018 A 
ATOM     20  C   UNL     1       2.796  -1.761  -9.258  0.00  0.00    +0.001 A 
ATOM     21  C   UNL     1       3.540  -1.708 -10.422  0.00  0.00    +0.004 A 
ATOM     22  C   UNL     1       4.918  -1.636 -10.360  0.00  0.00    +0.046 A 
ATOM     23  C   UNL     1       5.555  -1.612  -9.127  0.00  0.00    +0.131 A 
BRANCH  23  24
ATOM     24  O   UNL     1       6.910  -1.536  -9.063  0.00  0.00    -0.506 OA
ATOM     25  H   UNL     1       7.353  -2.396  -9.057  0.00  0.00    +0.292 HD
ENDBRANCH  23  24
ENDBRANCH   8  18
BRANCH  15  26
ATOM     26  S   UNL     1      -0.709  -3.075  -0.248  0.00  0.00    +0.154 S 
ATOM     27  O   UNL     1      -0.305  -4.425  -0.434  0.00  0.00    -0.131 OA
ATOM     28  O   UNL     1      -0.884  -2.502   1.040  0.00  0.00    -0.131 OA
BRANCH  26  29
ATOM     29  O   UNL     1      -2.034  -2.913  -0.980  0.00  0.00    -0.342 OA
BRANCH  29  30
ATOM     30  C   UNL     1      -2.097  -3.579  -2.163  0.00  0.00    +0.157 A 
ATOM     31  C   UNL     1      -1.654  -2.970  -3.328  0.00  0.00    +0.048 A 
ATOM     32  C   UNL     1      -1.720  -3.649  -4.529  0.00  0.00    +0.004 A 
ATOM     33  C   UNL     1      -2.226  -4.935  -4.571  0.00  0.00    +0.000 A 
ATOM     34  C   UNL     1      -2.668  -5.544  -3.411  0.00  0.00    +0.004 A 
ATOM     35  C   UNL     1      -2.599  -4.871  -2.206  0.00  0.00    +0.048 A 
ENDBRANCH  29  30
ENDBRANCH  26  29
ENDBRANCH  15  26
BRANCH   1  37
ATOM     36  C   UNL     1      -0.491   1.418  -0.136  0.00  0.00    +0.277 C 
ATOM     37  O   UNL     1      -0.345  -0.001  -0.056  0.00  0.00    -0.493 OA
ENDBRANCH   1  37
TORSDOF 6
