REMARK  Name = ZINC01750130
REMARK  8 active torsions:
REMARK  status: ('A' for Active; 'I' for Inactive)
REMARK    1  A    between atoms: C_1  and  C_2
REMARK    2  A    between atoms: C_9  and  N_14
REMARK    3  A    between atoms: C_10  and  C_11
REMARK    4  A    between atoms: C_15  and  C_17
REMARK    5  A    between atoms: C_17  and  C_34
REMARK    6  A    between atoms: C_18  and  C_19
REMARK    7  A    between atoms: C_22  and  C_24
REMARK    8  A    between atoms: C_28  and  N_30
REMARK                            x       y       z     vdW  Elec       q    Type
REMARK                         _______ _______ _______ _____ _____    ______ ____
ROOT
ATOM      1  N   UNL     1       1.178  -0.662  -0.013  0.00  0.00    -0.275 N 
ATOM      2  C   UNL     1       0.002  -0.004   0.002  0.00  0.00    +0.259 C 
ATOM      3  O   UNL     1      -1.044  -0.627   0.009  0.00  0.00    -0.269 OA
ATOM      4  H   UNL     1       2.012  -0.166  -0.018  0.00  0.00    +0.156 HD
ENDROOT
BRANCH   1  12
ATOM      5  C   UNL     1       0.852  -8.476   0.044  0.00  0.00    +0.008 C 
ATOM      6  C   UNL     1       1.303  -7.043   0.333  0.00  0.00    -0.009 C 
ATOM      7  C   UNL     1       2.535  -6.711  -0.513  0.00  0.00    +0.008 C 
ATOM      8  C   UNL     1       3.138  -5.382  -0.057  0.00  0.00    +0.037 C 
ATOM      9  C   UNL     1       2.041  -4.325  -0.040  0.00  0.00    -0.023 A 
ATOM     10  C   UNL     1       0.737  -4.677  -0.030  0.00  0.00    -0.004 A 
ATOM     11  S   UNL     1      -0.146  -3.142  -0.014  0.00  0.00    -0.077 S 
ATOM     12  C   UNL     1       1.197  -2.047  -0.020  0.00  0.00    +0.085 A 
ATOM     13  C   UNL     1       2.296  -2.895  -0.041  0.00  0.00    +0.068 A 
ATOM     14  C   UNL     1       0.175  -6.065  -0.031  0.00  0.00    +0.046 C 
BRANCH  13  15
ATOM     15  C   UNL     1       3.663  -2.366  -0.059  0.00  0.00    +0.244 C 
ATOM     16  O   UNL     1       4.247  -2.153   0.988  0.00  0.00    -0.270 OA
ATOM     17  N   UNL     1       4.274  -2.117  -1.234  0.00  0.00    -0.325 N 
ATOM     18  H   UNL     1       3.809  -2.288  -2.068  0.00  0.00    +0.145 HD
ATOM     19  H   UNL     1       5.179  -1.768  -1.246  0.00  0.00    +0.145 HD
ENDBRANCH  13  15
ENDBRANCH   1  12
BRANCH   2  20
ATOM     20  C   UNL     1      -0.018   1.463   0.010  0.00  0.00    +0.117 C 
ATOM     21  C   UNL     1      -1.230   2.141   0.019  0.00  0.00    +0.070 C 
BRANCH  21  22
ATOM     22  C   UNL     1      -1.249   3.544   0.027  0.00  0.00    +0.130 A 
ATOM     23  C   UNL     1      -2.383   4.343   0.037  0.00  0.00    +0.050 A 
ATOM     24  C   UNL     1      -1.945   5.666   0.042  0.00  0.00    +0.050 A 
ATOM     25  C   UNL     1      -0.566   5.635   0.035  0.00  0.00    +0.136 A 
ATOM     26  O   UNL     1      -0.166   4.351   0.032  0.00  0.00    -0.455 OA
BRANCH  25  27
ATOM     27  C   UNL     1       0.322   6.813   0.037  0.00  0.00    +0.020 A 
ATOM     28  C   UNL     1      -0.221   8.101   0.047  0.00  0.00    +0.013 A 
ATOM     29  C   UNL     1       0.615   9.197   0.050  0.00  0.00    +0.023 A 
ATOM     30  C   UNL     1       1.989   9.025   0.042  0.00  0.00    +0.071 A 
ATOM     31  C   UNL     1       2.534   7.752   0.033  0.00  0.00    +0.145 A 
ATOM     32  C   UNL     1       1.710   6.646   0.036  0.00  0.00    +0.045 A 
ATOM     33 CL   UNL     1       3.034  10.412   0.044  0.00  0.00    -0.081 Cl
BRANCH  31  34
ATOM     34  N   UNL     1       4.003   7.577   0.025  0.00  0.00    +0.058 N 
ATOM     35  O   UNL     1       4.484   6.458   0.017  0.00  0.00    -0.126 OA
ATOM     36  O   UNL     1       4.733   8.553   0.028  0.00  0.00    -0.126 OA
ENDBRANCH  31  34
ENDBRANCH  25  27
ENDBRANCH  21  22
BRANCH  20  37
ATOM     37  C   UNL     1       1.212   2.196   0.002  0.00  0.00    +0.104 C 
ATOM     38  N   UNL     1       2.188   2.777  -0.004  0.00  0.00    -0.191 NA
ENDBRANCH  20  37
ENDBRANCH   2  20
TORSDOF 7
