REMARK  Name = ZINC11635290
REMARK  4 active torsions:
REMARK  status: ('A' for Active; 'I' for Inactive)
REMARK    1  A    between atoms: C_1  and  C_2
REMARK    2  A    between atoms: C_7  and  S_8
REMARK    3  A    between atoms: S_8  and  O_11
REMARK    4  A    between atoms: O_11  and  C_12
REMARK                            x       y       z     vdW  Elec       q    Type
REMARK                         _______ _______ _______ _____ _____    ______ ____
ROOT
ATOM      1  C   UNL     1      -0.015   1.645   0.398  0.00  0.00    +0.046 C 
ATOM      2  C   UNL     1      -0.905   2.050   1.545  0.00  0.00    -0.020 A 
ATOM      3  C   UNL     1      -0.345   2.440   2.746  0.00  0.00    +0.033 A 
ATOM      4  C   UNL     1      -1.164   2.813   3.800  0.00  0.00    +0.067 A 
ATOM      5  C   UNL     1      -2.551   2.792   3.645  0.00  0.00    +0.069 A 
ATOM      6  C   UNL     1      -3.105   2.398   2.436  0.00  0.00    +0.058 A 
ATOM      7  C   UNL     1      -2.280   2.034   1.389  0.00  0.00    +0.133 A 
ATOM      8  N   UNL     1      -3.099   3.211   4.855  0.00  0.00    -0.306 N 
ATOM      9  H   UNL     1      -4.045   3.298   5.051  0.00  0.00    +0.170 HD
ATOM     10  C   UNL     1      -2.091   3.474   5.708  0.00  0.00    +0.325 A 
ATOM     11  O   UNL     1      -2.225   3.861   6.854  0.00  0.00    -0.247 OA
ATOM     12  N   UNL     1      -0.911   3.244   5.101  0.00  0.00    -0.306 N 
ATOM     13  H   UNL     1      -0.035   3.358   5.501  0.00  0.00    +0.170 HD
ENDROOT
BRANCH   7  14
ATOM     14  S   UNL     1      -2.983   1.540  -0.150  0.00  0.00    +0.151 S 
ATOM     15  O   UNL     1      -3.198   2.729  -0.898  0.00  0.00    -0.131 OA
ATOM     16  O   UNL     1      -2.186   0.468  -0.635  0.00  0.00    -0.131 OA
BRANCH  14  17
ATOM     17  O   UNL     1      -4.358   0.960   0.149  0.00  0.00    -0.341 OA
BRANCH  17  18
ATOM     18  C   UNL     1      -4.327  -0.296   0.667  0.00  0.00    +0.176 A 
ATOM     19  C   UNL     1      -4.266  -0.480   2.040  0.00  0.00    +0.070 A 
ATOM     20  C   UNL     1      -4.236  -1.759   2.565  0.00  0.00    +0.045 A 
ATOM     21  C   UNL     1      -4.265  -2.855   1.721  0.00  0.00    +0.021 A 
ATOM     22  C   UNL     1      -4.325  -2.675   0.352  0.00  0.00    +0.025 A 
ATOM     23  C   UNL     1      -4.362  -1.398  -0.177  0.00  0.00    +0.085 A 
ATOM     24 CL   UNL     1      -4.444  -1.172  -1.897  0.00  0.00    -0.080 Cl
ATOM     25 CL   UNL     1      -4.161  -1.990   4.284  0.00  0.00    -0.083 Cl
ENDBRANCH  17  18
ENDBRANCH  14  17
ENDBRANCH   7  14
TORSDOF 3
