REMARK  Name = ZINC25145974
REMARK  6 active torsions:
REMARK  status: ('A' for Active; 'I' for Inactive)
REMARK    1  A    between atoms: C_4  and  C_7
REMARK    2  A    between atoms: C_7  and  C_9
REMARK    3  A    between atoms: C_7  and  N_19
REMARK    4  A    between atoms: C_20  and  C_22
REMARK    5  A    between atoms: N_27  and  S_29
REMARK    6  A    between atoms: S_29  and  C_32
REMARK                            x       y       z     vdW  Elec       q    Type
REMARK                         _______ _______ _______ _____ _____    ______ ____
ROOT
ATOM      1  N   UNL     1       3.630  -1.873   0.845  0.00  0.00    -0.304 N 
ATOM      2  C   UNL     1       3.871  -1.738   2.164  0.00  0.00    +0.218 C 
ATOM      3  O   UNL     1       4.155  -0.651   2.621  0.00  0.00    -0.275 OA
ATOM      4  H   UNL     1       3.403  -2.743   0.480  0.00  0.00    +0.150 HD
ENDROOT
BRANCH   2   5
ATOM      5  C   UNL     1       3.788  -2.938   3.073  0.00  0.00    +0.091 C 
ATOM      6  C   UNL     1       4.800  -3.992   2.620  0.00  0.00    +0.015 C 
ATOM      7  C   UNL     1       4.693  -5.224   3.522  0.00  0.00    +0.018 C 
ATOM      8  C   UNL     1       5.022  -4.826   4.964  0.00  0.00    +0.109 C 
ATOM      9  N   UNL     1       4.148  -3.713   5.358  0.00  0.00    -0.175 NA
ATOM     10  C   UNL     1       4.105  -2.514   4.510  0.00  0.00    +0.122 C 
BRANCH   9  11
ATOM     11  S   UNL     1       3.228  -3.807   6.732  0.00  0.00    +0.067 S 
ATOM     12  O   UNL     1       2.139  -2.912   6.554  0.00  0.00    -0.152 OA
ATOM     13  O   UNL     1       3.042  -5.190   7.002  0.00  0.00    -0.152 OA
BRANCH  11  14
ATOM     14  C   UNL     1       4.199  -3.163   8.054  0.00  0.00    +0.143 A 
ATOM     15  C   UNL     1       4.283  -1.889   8.509  0.00  0.00    +0.036 A 
ATOM     16  C   UNL     1       5.121  -1.611   9.573  0.00  0.00    +0.010 A 
ATOM     17  C   UNL     1       5.832  -2.622  10.130  0.00  0.00    +0.047 A 
ATOM     18  S   UNL     1       5.320  -4.021   9.147  0.00  0.00    -0.077 S 
ENDBRANCH  11  14
ENDBRANCH   9  11
ENDBRANCH   2   5
BRANCH   1  19
ATOM     19  C   UNL     1       3.711  -0.707  -0.038  0.00  0.00    +0.134 C 
BRANCH  19  20
ATOM     20  C   UNL     1       4.014  -1.161  -1.442  0.00  0.00    -0.021 A 
ATOM     21  C   UNL     1       3.402  -2.299  -1.946  0.00  0.00    +0.008 A 
ATOM     22  C   UNL     1       3.663  -2.727  -3.217  0.00  0.00    +0.030 A 
ATOM     23  C   UNL     1       4.556  -2.014  -4.022  0.00  0.00    +0.089 A 
ATOM     24  C   UNL     1       5.176  -0.861  -3.512  0.00  0.00    +0.066 A 
ATOM     25  C   UNL     1       4.894  -0.438  -2.220  0.00  0.00    +0.033 A 
ATOM     26  N   UNL     1       5.986  -0.385  -4.524  0.00  0.00    -0.344 N 
ATOM     27  H   UNL     1       6.551   0.403  -4.486  0.00  0.00    +0.167 HD
ATOM     28  C   UNL     1       5.846  -1.227  -5.583  0.00  0.00    +0.197 A 
ATOM     29  N   UNL     1       5.010  -2.179  -5.291  0.00  0.00    -0.236 NA
ENDBRANCH  19  20
BRANCH  19  33
ATOM     30  C   UNL     1      -0.017   1.378   0.010  0.00  0.00    +0.000 A 
ATOM     31  C   UNL     1       1.171   2.086   0.002  0.00  0.00    +0.000 A 
ATOM     32  C   UNL     1       2.377   1.411  -0.013  0.00  0.00    +0.006 A 
ATOM     33  C   UNL     1       2.396   0.029  -0.020  0.00  0.00    -0.023 A 
ATOM     34  C   UNL     1       1.208  -0.679  -0.012  0.00  0.00    +0.006 A 
ATOM     35  C   UNL     1       0.002  -0.004   0.002  0.00  0.00    +0.000 A 
ENDBRANCH  19  33
ENDBRANCH   1  19
TORSDOF 6
