REMARK  Name = ZINC18176656
REMARK  6 active torsions:
REMARK  status: ('A' for Active; 'I' for Inactive)
REMARK    1  A    between atoms: C_1  and  C_2
REMARK    2  A    between atoms: C_2  and  C_14
REMARK    3  A    between atoms: N_3  and  N_4
REMARK    4  A    between atoms: C_5  and  C_7
REMARK    5  A    between atoms: C_12  and  O_13
REMARK    6  A    between atoms: C_17  and  N_20
REMARK                            x       y       z     vdW  Elec       q    Type
REMARK                         _______ _______ _______ _____ _____    ______ ____
ROOT
ATOM      1  C   UNL     1      -0.000  -0.734  -1.278  0.00  0.00    -0.002 A 
ATOM      2  C   UNL     1      -0.015  -0.031  -2.486  0.00  0.00    +0.011 A 
ATOM      3  C   UNL     1      -0.017  -0.717  -3.681  0.00  0.00    +0.024 A 
ATOM      4  C   UNL     1      -0.005  -2.107  -3.686  0.00  0.00    +0.044 A 
ATOM      5  C   UNL     1       0.010  -2.810  -2.487  0.00  0.00    +0.024 A 
ATOM      6  C   UNL     1       0.019  -2.132  -1.288  0.00  0.00    +0.011 A 
ENDROOT
BRANCH   4   7
ATOM      7  N   UNL     1      -0.008  -2.800  -4.903  0.00  0.00    -0.210 N 
ATOM      8  C   UNL     1      -0.017  -2.182  -6.115  0.00  0.00    +0.230 C 
ATOM      9  O   UNL     1       0.189  -1.008  -6.337  0.00  0.00    -0.275 OA
ATOM     10  C   UNL     1      -0.334  -3.246  -7.118  0.00  0.00    +0.088 C 
ATOM     11  C   UNL     1       0.273  -3.166  -8.502  0.00  0.00    +0.013 C 
ATOM     12  C   UNL     1      -0.216  -4.418  -9.258  0.00  0.00    +0.001 C 
ATOM     13  C   UNL     1       0.172  -5.705  -8.537  0.00  0.00    +0.001 C 
ATOM     14  C   UNL     1      -0.280  -5.703  -7.065  0.00  0.00    +0.013 C 
ATOM     15  C   UNL     1       0.307  -4.480  -6.415  0.00  0.00    +0.088 C 
ATOM     16  C   UNL     1       0.004  -4.158  -4.988  0.00  0.00    +0.230 C 
ATOM     17  O   UNL     1      -0.194  -4.948  -4.090  0.00  0.00    -0.275 OA
ENDBRANCH   4   7
BRANCH   1  19
ATOM     18  C   UNL     1      -0.018   1.503   0.010  0.00  0.00    +0.068 C 
ATOM     19  C   UNL     1       0.002  -0.004   0.002  0.00  0.00    +0.063 C 
ATOM     20  N   UNL     1       0.022  -0.659   1.123  0.00  0.00    -0.184 NA
BRANCH  20  21
ATOM     21  N   UNL     1       0.024   0.035   2.340  0.00  0.00    -0.203 N 
ATOM     22  C   UNL     1       0.044  -0.645   3.503  0.00  0.00    +0.267 C 
ATOM     23  O   UNL     1       0.060  -1.861   3.496  0.00  0.00    -0.268 OA
ATOM     24  H   UNL     1       0.011   1.005   2.345  0.00  0.00    +0.178 HD
BRANCH  22  25
ATOM     25  C   UNL     1       0.046   0.085   4.784  0.00  0.00    +0.080 A 
ATOM     26  C   UNL     1       0.021   1.482   4.797  0.00  0.00    +0.017 A 
ATOM     27  C   UNL     1       0.023   2.159   5.997  0.00  0.00    +0.001 A 
ATOM     28  C   UNL     1       0.050   1.460   7.193  0.00  0.00    +0.004 A 
ATOM     29  C   UNL     1       0.074   0.080   7.196  0.00  0.00    +0.046 A 
ATOM     30  C   UNL     1       0.067  -0.618   5.997  0.00  0.00    +0.129 A 
BRANCH  30  31
ATOM     31  O   UNL     1       0.086  -1.974   5.997  0.00  0.00    -0.506 OA
ATOM     32  H   UNL     1       0.974  -2.356   5.989  0.00  0.00    +0.292 HD
ENDBRANCH  30  31
ENDBRANCH  22  25
ENDBRANCH  20  21
ENDBRANCH   1  19
TORSDOF 5
