REMARK  Name = ZINC02125357
REMARK  7 active torsions:
REMARK  status: ('A' for Active; 'I' for Inactive)
REMARK    1  A    between atoms: C_1  and  C_2
REMARK    2  A    between atoms: C_12  and  C_13
REMARK    3  A    between atoms: C_13  and  C_14
REMARK    4  A    between atoms: N_16  and  C_17
REMARK    5  A    between atoms: C_17  and  C_18
REMARK    6  A    between atoms: C_21  and  C_24
REMARK    7  A    between atoms: C_28  and  C_29
REMARK                            x       y       z     vdW  Elec       q    Type
REMARK                         _______ _______ _______ _____ _____    ______ ____
ROOT
ATOM      1  C   UNL     1       3.182  10.902  -5.035  0.00  0.00    +0.045 C 
ATOM      2  C   UNL     1       2.022  11.676  -4.463  0.00  0.00    -0.029 A 
ATOM      3  C   UNL     1       2.035  13.142  -4.435  0.00  0.00    +0.022 A 
ATOM      4  C   UNL     1       3.123  13.856  -4.939  0.00  0.00    +0.024 A 
ATOM      5  C   UNL     1       3.103  15.241  -4.898  0.00  0.00    +0.029 A 
ATOM      6  C   UNL     1       1.999  15.925  -4.355  0.00  0.00    +0.139 A 
ATOM      7  C   UNL     1       0.920  15.209  -3.856  0.00  0.00    +0.093 A 
ATOM      8  C   UNL     1       0.928  13.826  -3.891  0.00  0.00    +0.143 A 
ATOM      9  O   UNL     1      -0.120  13.123  -3.407  0.00  0.00    -0.422 OA
ATOM     10  C   UNL     1      -0.139  11.782  -3.435  0.00  0.00    +0.341 A 
ATOM     11  O   UNL     1      -1.108  11.193  -2.991  0.00  0.00    -0.245 OA
ATOM     12  C   UNL     1       0.937  11.034  -3.960  0.00  0.00    +0.049 A 
ATOM     13  O   UNL     1       2.257  17.246  -4.449  0.00  0.00    -0.462 OA
ATOM     14  C   UNL     1       3.455  17.468  -5.017  0.00  0.00    +0.204 A 
ATOM     15  C   UNL     1       4.047  16.292  -5.325  0.00  0.00    +0.028 A 
ENDROOT
BRANCH  15  16
ATOM     16  C   UNL     1       5.371  16.099  -5.963  0.00  0.00    -0.014 A 
ATOM     17  C   UNL     1       6.298  15.225  -5.398  0.00  0.00    +0.011 A 
ATOM     18  C   UNL     1       7.528  15.044  -5.998  0.00  0.00    +0.039 A 
ATOM     19  C   UNL     1       7.845  15.738  -7.155  0.00  0.00    +0.123 A 
ATOM     20  C   UNL     1       6.929  16.612  -7.717  0.00  0.00    +0.039 A 
ATOM     21  C   UNL     1       5.695  16.795  -7.127  0.00  0.00    +0.011 A 
ATOM     22  F   UNL     1       9.052  15.562  -7.736  0.00  0.00    -0.205 F 
ENDBRANCH  15  16
BRANCH  12  23
ATOM     23  C   UNL     1       0.878   9.529  -3.967  0.00  0.00    +0.138 C 
BRANCH  23  24
ATOM     24  C   UNL     1       1.471   8.996  -2.688  0.00  0.00    +0.218 C 
ATOM     25  O   UNL     1       1.899   9.764  -1.853  0.00  0.00    -0.275 OA
ATOM     26  N   UNL     1       1.526   7.667  -2.473  0.00  0.00    -0.315 N 
ATOM     27  H   UNL     1       1.183   7.053  -3.141  0.00  0.00    +0.149 HD
BRANCH  26  28
ATOM     28  C   UNL     1       2.102   7.150  -1.229  0.00  0.00    +0.107 C 
BRANCH  28  29
ATOM     29  C   UNL     1       2.043   5.621  -1.237  0.00  0.00    +0.006 C 
ATOM     30  C   UNL     1       2.755   5.077   0.003  0.00  0.00    +0.006 C 
ATOM     31  C   UNL     1       2.696   3.548  -0.005  0.00  0.00    +0.015 C 
ATOM     32  C   UNL     1       1.235   3.094   0.007  0.00  0.00    +0.102 C 
ATOM     33  C   UNL     1       0.522   3.639  -1.233  0.00  0.00    +0.015 C 
ATOM     34  C   UNL     1       0.582   5.167  -1.225  0.00  0.00    +0.006 C 
BRANCH  32  35
ATOM     35  C   UNL     1       1.177   1.588  -0.001  0.00  0.00    +0.359 C 
ATOM     36  O   UNL     1       2.199   0.944  -0.014  0.00  0.00    -0.246 OA
ATOM     37  O   UNL     1      -0.011   0.963   0.007  0.00  0.00    -0.246 OA
ENDBRANCH  32  35
ENDBRANCH  28  29
ENDBRANCH  26  28
ENDBRANCH  23  24
ENDBRANCH  12  23
TORSDOF 6
