REMARK  Name = ZINC06198178
REMARK  12 active torsions:
REMARK  status: ('A' for Active; 'I' for Inactive)
REMARK    1  A    between atoms: C_1  and  C_2
REMARK    2  A    between atoms: C_2  and  C_3
REMARK    3  A    between atoms: C_10  and  C_15
REMARK    4  A    between atoms: C_15  and  C_17
REMARK    5  A    between atoms: C_15  and  N_75
REMARK    6  A    between atoms: N_21  and  C_22
REMARK    7  A    between atoms: C_22  and  C_23
REMARK    8  A    between atoms: C_22  and  C_24
REMARK    9  A    between atoms: C_22  and  C_25
REMARK   10  A    between atoms: C_25  and  C_26
REMARK   11  A    between atoms: C_29  and  C_32
REMARK   12  A    between atoms: C_32  and  C_33
REMARK                            x       y       z     vdW  Elec       q    Type
REMARK                         _______ _______ _______ _____ _____    ______ ____
ROOT
ATOM      1  C   UNL     1       6.223  -0.672  -0.106  0.00  0.00    +0.039 C 
ENDROOT
BRANCH   1   9
ATOM      2  C   UNL     1       0.252   0.867  -0.623  0.00  0.00    -0.047 A 
ATOM      3  C   UNL     1       0.455   2.233  -0.767  0.00  0.00    +0.005 A 
ATOM      4  C   UNL     1       1.728   2.760  -0.754  0.00  0.00    +0.026 A 
ATOM      5  C   UNL     1       2.823   1.916  -0.596  0.00  0.00    +0.049 A 
ATOM      6  C   UNL     1       2.613   0.531  -0.450  0.00  0.00    -0.001 A 
ATOM      7  C   UNL     1       1.311   0.019  -0.466  0.00  0.00    +0.013 A 
ATOM      8  C   UNL     1       3.771  -0.348  -0.283  0.00  0.00    +0.017 A 
ATOM      9  C   UNL     1       5.009   0.205  -0.275  0.00  0.00    +0.011 A 
ATOM     10  C   UNL     1       5.165   1.600  -0.424  0.00  0.00    +0.251 A 
ATOM     11  O   UNL     1       6.287   2.077  -0.414  0.00  0.00    -0.268 OA
ATOM     12  N   UNL     1       4.107   2.416  -0.578  0.00  0.00    -0.322 N 
ATOM     13  H   UNL     1       4.255   3.400  -0.681  0.00  0.00    +0.169 HD
BRANCH   2  15
ATOM     14  C   UNL     1      -1.543  -0.035  -2.077  0.00  0.00    +0.009 C 
ATOM     15  C   UNL     1      -1.150   0.314  -0.640  0.00  0.00    +0.032 C 
ENDBRANCH   2  15
ENDBRANCH   1   9
BRANCH   1  21
ATOM     16  C   UNL     1       8.435  -1.115  -0.982  0.00  0.00    -0.077 C 
ATOM     17  C   UNL     1       9.422  -0.739  -2.090  0.00  0.00    -0.015 C 
ATOM     18  C   UNL     1       8.848  -1.165  -3.444  0.00  0.00    -0.010 C 
ATOM     19  C   UNL     1       7.488  -0.492  -3.647  0.00  0.00    -0.015 C 
ATOM     20  C   UNL     1       6.558  -0.875  -2.495  0.00  0.00    -0.077 C 
ATOM     21  N   UNL     1       7.155  -0.416  -1.223  0.00  0.00    +0.389 N 
ATOM     22  H   UNL     1       7.333   0.594  -1.284  0.00  0.00    -0.080 HD
BRANCH  18  23
ATOM     23  C   UNL     1       9.803  -0.737  -4.561  0.00  0.00    +0.038 C 
BRANCH  23  24
ATOM     24  C   UNL     1      11.100  -1.493  -4.430  0.00  0.00    -0.047 A 
ATOM     25  C   UNL     1      12.131  -0.971  -3.672  0.00  0.00    +0.003 A 
ATOM     26  C   UNL     1      13.319  -1.667  -3.549  0.00  0.00    +0.000 A 
ATOM     27  C   UNL     1      13.480  -2.880  -4.191  0.00  0.00    +0.000 A 
ATOM     28  C   UNL     1      12.450  -3.400  -4.953  0.00  0.00    +0.000 A 
ATOM     29  C   UNL     1      11.261  -2.707  -5.073  0.00  0.00    +0.003 A 
ENDBRANCH  23  24
ENDBRANCH  18  23
ENDBRANCH   1  21
BRANCH   1  30
ATOM     30  C   UNL     1       6.908  -0.336   1.194  0.00  0.00    +0.143 A 
ATOM     31  N   UNL     1       7.547   0.773   1.477  0.00  0.00    -0.115 NA
ATOM     32  N   UNL     1       7.991   0.679   2.683  0.00  0.00    -0.023 NA
ATOM     33  N   UNL     1       7.652  -0.461   3.176  0.00  0.00    -0.043 NA
ATOM     34  N   UNL     1       6.978  -1.113   2.290  0.00  0.00    -0.225 N 
BRANCH  34  35
ATOM     35  C   UNL     1       6.401  -2.451   2.447  0.00  0.00    +0.061 C 
ATOM     36  C   UNL     1       4.893  -2.388   2.194  0.00  0.00    +0.036 C 
ATOM     37  C   UNL     1       7.048  -3.406   1.442  0.00  0.00    +0.036 C 
BRANCH  35  38
ATOM     38  C   UNL     1       6.659  -2.954   3.868  0.00  0.00    +0.026 C 
ATOM     39  C   UNL     1       6.057  -4.351   4.032  0.00  0.00    +0.006 C 
ENDBRANCH  35  38
ENDBRANCH  34  35
ENDBRANCH   1  30
TORSDOF 8
