REMARK  Name = ZINC40914207
REMARK  9 active torsions:
REMARK  status: ('A' for Active; 'I' for Inactive)
REMARK    1  A    between atoms: C_1  and  C_2
REMARK    2  A    between atoms: C_2  and  O_3
REMARK    3  A    between atoms: O_3  and  C_4
REMARK    4  A    between atoms: C_6  and  C_20
REMARK    5  A    between atoms: C_9  and  O_10
REMARK    6  A    between atoms: O_10  and  C_11
REMARK    7  A    between atoms: C_11  and  C_12
REMARK    8  A    between atoms: C_22  and  C_31
REMARK    9  A    between atoms: C_23  and  C_30
REMARK                            x       y       z     vdW  Elec       q    Type
REMARK                         _______ _______ _______ _____ _____    ______ ____
ROOT
ATOM      1  C   UNL     1      -1.270  -1.762  -0.098  0.00  0.00    +0.163 A 
ATOM      2  C   UNL     1      -0.210  -2.647   0.018  0.00  0.00    +0.055 A 
ATOM      3  C   UNL     1      -0.435  -4.008  -0.057  0.00  0.00    -0.014 A 
ATOM      4  C   UNL     1      -1.716  -4.491  -0.248  0.00  0.00    +0.025 A 
ATOM      5  C   UNL     1      -2.779  -3.614  -0.364  0.00  0.00    +0.063 A 
ATOM      6  C   UNL     1      -2.561  -2.247  -0.284  0.00  0.00    +0.176 A 
ATOM      7 BR   UNL     1      -4.530  -4.278  -0.627  0.00  0.00    -0.046 Br
ENDROOT
BRANCH   3   8
ATOM      8  C   UNL     1       0.720  -4.969   0.069  0.00  0.00    +0.177 C 
ATOM      9  C   UNL     1       0.824  -5.796  -1.185  0.00  0.00    +0.060 C 
ATOM     10  C   UNL     1       0.490  -7.093  -1.236  0.00  0.00    +0.018 C 
ATOM     11  N   UNL     1       0.035  -7.776  -0.135  0.00  0.00    -0.287 N 
ATOM     12  C   UNL     1       0.174  -7.160   1.101  0.00  0.00    +0.218 A 
ATOM     13  N   UNL     1       0.499  -5.848   1.214  0.00  0.00    -0.221 N 
ATOM     14  N   UNL     1       0.562  -5.570   2.579  0.00  0.00    -0.156 NA
ATOM     15  C   UNL     1       0.277  -6.686   3.204  0.00  0.00    +0.247 A 
ATOM     16  N   UNL     1       0.041  -7.646   2.305  0.00  0.00    -0.201 NA
ATOM     17  C   UNL     1       0.619  -7.827  -2.546  0.00  0.00    +0.061 C 
ATOM     18  H   UNL     1      -0.369  -8.654  -0.218  0.00  0.00    +0.155 HD
BRANCH   9  19
ATOM     19  C   UNL     1       1.295  -5.174  -2.365  0.00  0.00    +0.241 C 
ATOM     20  O   UNL     1       2.491  -5.025  -2.539  0.00  0.00    -0.271 OA
ATOM     21  N   UNL     1       0.421  -4.747  -3.298  0.00  0.00    -0.325 N 
ATOM     22  H   UNL     1      -0.532  -4.866  -3.160  0.00  0.00    +0.145 HD
ATOM     23  H   UNL     1       0.744  -4.321  -4.107  0.00  0.00    +0.145 HD
ENDBRANCH   9  19
ENDBRANCH   3   8
BRANCH   1  24
ATOM     24  O   UNL     1      -1.050  -0.422  -0.025  0.00  0.00    -0.489 OA
BRANCH  24  26
ATOM     25  C   UNL     1       0.349   1.533   0.224  0.00  0.00    +0.048 C 
ATOM     26  C   UNL     1       0.300   0.005   0.167  0.00  0.00    +0.226 C 
ENDBRANCH  24  26
ENDBRANCH   1  24
BRANCH   6  27
ATOM     27  O   UNL     1      -3.605  -1.382  -0.393  0.00  0.00    -0.483 OA
BRANCH  27  28
ATOM     28  C   UNL     1      -3.937  -0.928  -1.706  0.00  0.00    +0.264 C 
BRANCH  28  29
ATOM     29  C   UNL     1      -5.110   0.015  -1.630  0.00  0.00    -0.010 A 
ATOM     30  C   UNL     1      -6.399  -0.477  -1.719  0.00  0.00    +0.008 A 
ATOM     31  C   UNL     1      -7.475   0.388  -1.649  0.00  0.00    +0.020 A 
ATOM     32  C   UNL     1      -7.262   1.745  -1.491  0.00  0.00    +0.041 A 
ATOM     33  C   UNL     1      -5.972   2.237  -1.402  0.00  0.00    +0.020 A 
ATOM     34  C   UNL     1      -4.897   1.371  -1.466  0.00  0.00    +0.008 A 
ATOM     35 CL   UNL     1      -8.613   2.832  -1.404  0.00  0.00    -0.084 Cl
ENDBRANCH  28  29
ENDBRANCH  27  28
ENDBRANCH   6  27
TORSDOF 7
