REMARK  Name = ZINC58572118
REMARK  6 active torsions:
REMARK  status: ('A' for Active; 'I' for Inactive)
REMARK    1  A    between atoms: C_1  and  C_2
REMARK    2  A    between atoms: C_5  and  C_9
REMARK    3  A    between atoms: C_7  and  C_8
REMARK    4  A    between atoms: C_18  and  C_20
REMARK    5  A    between atoms: C_23  and  C_26
REMARK    6  A    between atoms: C_26  and  N_27
REMARK                            x       y       z     vdW  Elec       q    Type
REMARK                         _______ _______ _______ _____ _____    ______ ____
ROOT
ATOM      1  C   UNL     1       0.060  -4.255  -0.021  0.00  0.00    +0.004 A 
ATOM      2  C   UNL     1       0.963  -4.937   0.724  0.00  0.00    +0.056 A 
ATOM      3  S   UNL     1       0.581  -6.643   0.377  0.00  0.00    -0.076 S 
ATOM      4  C   UNL     1      -0.769  -6.404  -0.751  0.00  0.00    +0.116 A 
ATOM      5  C   UNL     1      -0.896  -5.005  -0.827  0.00  0.00    +0.080 A 
ATOM      6  C   UNL     1      -1.935  -4.519  -1.683  0.00  0.00    +0.261 A 
ATOM      7  O   UNL     1      -2.116  -3.321  -1.814  0.00  0.00    -0.267 OA
ATOM      8  N   UNL     1      -2.709  -5.402  -2.340  0.00  0.00    -0.306 N 
ATOM      9  H   UNL     1      -3.414  -5.077  -2.921  0.00  0.00    +0.170 HD
ATOM     10  C   UNL     1      -2.518  -6.749  -2.203  0.00  0.00    +0.142 A 
ATOM     11  N   UNL     1      -1.564  -7.221  -1.430  0.00  0.00    -0.222 NA
ENDROOT
BRANCH   1  16
ATOM     12  C   UNL     1      -0.018   1.503   0.010  0.00  0.00    +0.044 C 
ATOM     13  C   UNL     1       0.002  -0.004   0.002  0.00  0.00    -0.048 A 
ATOM     14  C   UNL     1       0.006  -0.686  -1.202  0.00  0.00    +0.004 A 
ATOM     15  C   UNL     1       0.024  -2.066  -1.215  0.00  0.00    +0.009 A 
ATOM     16  C   UNL     1       0.040  -2.772  -0.013  0.00  0.00    -0.016 A 
ATOM     17  C   UNL     1       0.037  -2.079   1.196  0.00  0.00    +0.012 A 
ATOM     18  C   UNL     1       0.023  -0.699   1.198  0.00  0.00    -0.047 A 
ATOM     19  C   UNL     1       0.025   0.052   2.504  0.00  0.00    +0.044 C 
ENDBRANCH   1  16
BRANCH  10  20
ATOM     20  C   UNL     1      -3.389  -7.687  -2.942  0.00  0.00    +0.017 A 
ATOM     21  C   UNL     1      -4.395  -7.199  -3.778  0.00  0.00    +0.012 A 
ATOM     22  C   UNL     1      -5.204  -8.080  -4.465  0.00  0.00    +0.006 A 
ATOM     23  C   UNL     1      -5.020  -9.445  -4.326  0.00  0.00    -0.030 A 
ATOM     24  C   UNL     1      -4.025  -9.935  -3.500  0.00  0.00    +0.006 A 
ATOM     25  C   UNL     1      -3.205  -9.065  -2.811  0.00  0.00    +0.012 A 
BRANCH  23  26
ATOM     26  C   UNL     1      -5.909 -10.402  -5.079  0.00  0.00    +0.153 C 
BRANCH  26  27
ATOM     27  N   UNL     1      -5.311 -10.700  -6.383  0.00  0.00    -0.220 N 
ATOM     28  C   UNL     1      -5.546  -9.989  -7.504  0.00  0.00    +0.240 C 
ATOM     29  O   UNL     1      -6.264  -9.020  -7.619  0.00  0.00    -0.273 OA
ATOM     30  C   UNL     1      -4.724 -10.654  -8.590  0.00  0.00    +0.202 C 
ATOM     31  N   UNL     1      -4.059 -11.766  -7.890  0.00  0.00    -0.290 N 
ATOM     32  C   UNL     1      -4.460 -11.707  -6.607  0.00  0.00    +0.309 C 
ATOM     33  O   UNL     1      -4.093 -12.485  -5.748  0.00  0.00    -0.252 OA
ATOM     34  H   UNL     1      -3.449 -12.413  -8.277  0.00  0.00    +0.151 HD
ENDBRANCH  26  27
ENDBRANCH  23  26
ENDBRANCH  10  20
TORSDOF 4
