REMARK  Name = ZINC01151491
REMARK  10 active torsions:
REMARK  status: ('A' for Active; 'I' for Inactive)
REMARK    1  A    between atoms: C_1  and  C_2
REMARK    2  A    between atoms: C_3  and  C_34
REMARK    3  A    between atoms: C_4  and  C_24
REMARK    4  A    between atoms: C_10  and  C_11
REMARK    5  A    between atoms: C_29  and  O_30
REMARK    6  A    between atoms: O_30  and  C_31
REMARK    7  A    between atoms: C_31  and  C_32
REMARK    8  A    between atoms: C_31  and  C_33
REMARK    9  A    between atoms: C_34  and  O_36
REMARK   10  A    between atoms: O_36  and  C_37
REMARK                            x       y       z     vdW  Elec       q    Type
REMARK                         _______ _______ _______ _____ _____    ______ ____
ROOT
ATOM      1  C   UNL     1     -10.875  -1.057   0.417  0.00  0.00    +0.066 C 
ATOM      2  C   UNL     1      -9.383  -1.273   0.435  0.00  0.00    +0.053 C 
ATOM      3  C   UNL     1      -8.881  -2.508   0.739  0.00  0.00    +0.085 C 
ATOM      4  C   UNL     1      -7.379  -2.684   0.747  0.00  0.00    +0.165 C 
ATOM      5  N   UNL     1      -6.554  -1.489   0.420  0.00  0.00    -0.275 N 
ATOM      6  C   UNL     1      -5.218  -1.434   0.367  0.00  0.00    +0.268 A 
ATOM      7  O   UNL     1      -4.552  -2.428   0.599  0.00  0.00    -0.266 OA
ATOM      8  C   UNL     1      -4.583  -0.205   0.042  0.00  0.00    +0.081 A 
ATOM      9  C   UNL     1      -3.256   0.080  -0.064  0.00  0.00    +0.030 C 
ATOM     10  S   UNL     1      -5.995   0.864  -0.196  0.00  0.00    -0.046 S 
ATOM     11  C   UNL     1      -7.263  -0.341   0.144  0.00  0.00    +0.178 A 
ATOM     12  N   UNL     1      -8.569  -0.263   0.156  0.00  0.00    -0.228 NA
ENDROOT
BRANCH   9  13
ATOM     13  C   UNL     1      -2.820   1.455  -0.306  0.00  0.00    +0.001 A 
ATOM     14  C   UNL     1      -3.620   2.535  -0.559  0.00  0.00    +0.091 A 
ATOM     15  N   UNL     1      -2.853   3.641  -0.732  0.00  0.00    -0.360 N 
ATOM     16  H   UNL     1      -3.197   4.528  -0.922  0.00  0.00    +0.165 HD
ATOM     17  C   UNL     1      -1.517   3.326  -0.598  0.00  0.00    +0.047 A 
ATOM     18  C   UNL     1      -1.431   1.950  -0.333  0.00  0.00    +0.007 A 
ATOM     19  C   UNL     1      -0.188   1.352  -0.143  0.00  0.00    +0.010 A 
ATOM     20  C   UNL     1       0.957   2.115  -0.228  0.00  0.00    +0.001 A 
ATOM     21  C   UNL     1       0.874   3.473  -0.496  0.00  0.00    +0.002 A 
ATOM     22  C   UNL     1      -0.350   4.079  -0.680  0.00  0.00    +0.026 A 
ENDBRANCH   9  13
BRANCH   4  23
ATOM     23  C   UNL     1      -6.976  -3.166   2.116  0.00  0.00    +0.022 A 
ATOM     24  C   UNL     1      -6.744  -4.510   2.336  0.00  0.00    +0.009 A 
ATOM     25  C   UNL     1      -6.370  -4.952   3.591  0.00  0.00    +0.001 A 
ATOM     26  C   UNL     1      -6.236  -4.052   4.633  0.00  0.00    +0.004 A 
ATOM     27  C   UNL     1      -6.472  -2.708   4.419  0.00  0.00    +0.046 A 
ATOM     28  C   UNL     1      -6.843  -2.261   3.159  0.00  0.00    +0.126 A 
BRANCH  28  29
ATOM     29  O   UNL     1      -7.076  -0.939   2.947  0.00  0.00    -0.489 OA
BRANCH  29  30
ATOM     30  C   UNL     1      -6.806  -0.050   4.033  0.00  0.00    +0.167 C 
ATOM     31  C   UNL     1      -6.516   1.349   3.486  0.00  0.00    +0.051 C 
ATOM     32  C   UNL     1      -8.021   0.006   4.960  0.00  0.00    +0.051 C 
ENDBRANCH  29  30
ENDBRANCH  28  29
ENDBRANCH   4  23
BRANCH   3  33
ATOM     33  C   UNL     1      -9.735  -3.582   1.034  0.00  0.00    +0.339 C 
ATOM     34  O   UNL     1     -10.933  -3.393   1.150  0.00  0.00    -0.245 OA
BRANCH  33  35
ATOM     35  O   UNL     1      -9.228  -4.824   1.191  0.00  0.00    -0.465 OA
ATOM     36  C   UNL     1     -10.165  -5.888   1.379  0.00  0.00    +0.280 C 
ENDBRANCH  33  35
ENDBRANCH   3  33
TORSDOF 6
