REMARK  Name = ZINC21810075
REMARK  9 active torsions:
REMARK  status: ('A' for Active; 'I' for Inactive)
REMARK    1  A    between atoms: C_1  and  C_2
REMARK    2  A    between atoms: C_2  and  C_3
REMARK    3  A    between atoms: C_12  and  C_25
REMARK    4  A    between atoms: C_12  and  C_26
REMARK    5  A    between atoms: N_13  and  C_16
REMARK    6  A    between atoms: C_16  and  C_17
REMARK    7  A    between atoms: C_17  and  N_18
REMARK    8  A    between atoms: N_21  and  C_24
REMARK    9  A    between atoms: N_28  and  C_29
REMARK                            x       y       z     vdW  Elec       q    Type
REMARK                         _______ _______ _______ _____ _____    ______ ____
ROOT
ATOM      1  C   UNL     1      -4.262  -4.222   0.218  0.00  0.00    -0.008 A 
ATOM      2  C   UNL     1      -3.624  -3.034   0.162  0.00  0.00    +0.037 A 
ATOM      3  C   UNL     1      -2.275  -2.974  -0.218  0.00  0.00    +0.057 A 
ATOM      4  C   UNL     1      -1.675  -4.206  -0.520  0.00  0.00    +0.038 A 
ATOM      5  S   UNL     1      -2.988  -5.373  -0.270  0.00  0.00    -0.092 S 
ATOM      6  C   UNL     1      -0.347  -4.002  -0.874  0.00  0.00    +0.048 A 
ATOM      7  C   UNL     1      -0.111  -2.662  -0.794  0.00  0.00    +0.106 A 
ATOM      8  N   UNL     1      -1.285  -2.027  -0.404  0.00  0.00    -0.333 N 
ATOM      9  C   UNL     1      -1.366  -0.572  -0.255  0.00  0.00    +0.157 C 
ATOM     10  C   UNL     1       0.010  -0.032   0.134  0.00  0.00    +0.129 C 
ATOM     11  N   UNL     1       1.083  -0.585  -0.684  0.00  0.00    -0.279 N 
ATOM     12  C   UNL     1       1.113  -1.890  -1.042  0.00  0.00    +0.264 C 
ATOM     13  O   UNL     1       2.100  -2.396  -1.543  0.00  0.00    -0.268 OA
ATOM     14  C   UNL     1       0.278  -0.378   1.600  0.00  0.00    +0.043 C 
ENDROOT
BRANCH  10  15
ATOM     15  C   UNL     1       0.006   1.467  -0.018  0.00  0.00    +0.238 C 
ATOM     16  O   UNL     1      -0.074   2.176   0.963  0.00  0.00    -0.273 OA
ATOM     17  N   UNL     1       0.086   2.021  -1.244  0.00  0.00    -0.311 N 
ATOM     18  H   UNL     1       0.075   1.380  -2.138  0.00  0.00    +0.149 HD
BRANCH  17  19
ATOM     19  C   UNL     1       0.187   3.475  -1.387  0.00  0.00    +0.073 C 
ATOM     20  C   UNL     1      -1.214   4.089  -1.362  0.00  0.00    +0.022 C 
ATOM     21  C   UNL     1      -1.108   5.608  -1.510  0.00  0.00    +0.002 C 
ATOM     22  C   UNL     1      -0.428   5.944  -2.839  0.00  0.00    +0.000 C 
ATOM     23  C   UNL     1       0.974   5.330  -2.864  0.00  0.00    +0.002 C 
ATOM     24  C   UNL     1       0.868   3.811  -2.715  0.00  0.00    +0.022 C 
ENDBRANCH  17  19
ENDBRANCH  10  15
BRANCH   1  26
ATOM     25  C   UNL     1      -6.572  -4.454  -0.653  0.00  0.00    +0.009 C 
ATOM     26  C   UNL     1      -5.692  -4.506   0.598  0.00  0.00    +0.039 C 
ENDBRANCH   1  26
BRANCH  11  27
ATOM     27  C   UNL     1       2.162   0.299  -1.132  0.00  0.00    +0.124 C 
BRANCH  27  28
ATOM     28  C   UNL     1       3.341   0.197  -0.162  0.00  0.00    +0.103 C 
BRANCH  28  29
ATOM     29  N   UNL     1       4.423   1.084  -0.611  0.00  0.00    -0.304 NA
ATOM     30  C   UNL     1       4.985   0.623  -1.888  0.00  0.00    +0.066 C 
ATOM     31  C   UNL     1       6.051   1.614  -2.360  0.00  0.00    -0.064 C 
ATOM     32  N   UNL     1       7.099   1.726  -1.337  0.00  0.00    +0.379 N 
ATOM     33  C   UNL     1       6.537   2.187  -0.059  0.00  0.00    -0.064 C 
ATOM     34  C   UNL     1       5.471   1.196   0.413  0.00  0.00    +0.066 C 
ATOM     35  C   UNL     1       8.181   2.613  -1.786  0.00  0.00    -0.096 C 
ATOM     36  H   UNL     1       7.528   0.726  -1.178  0.00  0.00    -0.082 HD
ENDBRANCH  28  29
ENDBRANCH  27  28
ENDBRANCH  11  27
TORSDOF 6
