REMARK  Name = ZINC04183527
REMARK  8 active torsions:
REMARK  status: ('A' for Active; 'I' for Inactive)
REMARK    1  A    between atoms: C_1  and  C_2
REMARK    2  A    between atoms: C_10  and  C_11
REMARK    3  A    between atoms: N_13  and  C_14
REMARK    4  A    between atoms: N_13  and  C_24
REMARK    5  A    between atoms: C_14  and  C_15
REMARK    6  A    between atoms: C_18  and  C_21
REMARK    7  A    between atoms: C_21  and  C_22
REMARK    8  A    between atoms: C_21  and  C_23
REMARK                            x       y       z     vdW  Elec       q    Type
REMARK                         _______ _______ _______ _____ _____    ______ ____
ROOT
ATOM      1  C   UNL     1      -0.130   1.117  -0.317  0.00  0.00    +0.283 C 
ATOM      2  O   UNL     1       0.998   1.535  -0.501  0.00  0.00    -0.267 OA
ATOM      3  N   UNL     1      -1.145   1.982  -0.121  0.00  0.00    -0.286 N 
ENDROOT
BRANCH   1  13
ATOM      4  C   UNL     1       1.979  -1.074  -0.967  0.00  0.00    +0.048 C 
ATOM      5  C   UNL     1       0.536  -1.288  -0.587  0.00  0.00    +0.008 A 
ATOM      6  C   UNL     1      -0.155  -2.568  -0.446  0.00  0.00    +0.024 A 
ATOM      7  C   UNL     1       0.227  -3.904  -0.596  0.00  0.00    +0.012 A 
ATOM      8  C   UNL     1      -0.688  -4.897  -0.391  0.00  0.00    +0.001 A 
ATOM      9  C   UNL     1      -1.994  -4.589  -0.034  0.00  0.00    +0.004 A 
ATOM     10  C   UNL     1      -2.391  -3.278   0.120  0.00  0.00    +0.047 A 
ATOM     11  C   UNL     1      -1.478  -2.250  -0.084  0.00  0.00    +0.136 A 
ATOM     12  O   UNL     1      -1.568  -0.908  -0.011  0.00  0.00    -0.450 OA
ATOM     13  C   UNL     1      -0.384  -0.330  -0.302  0.00  0.00    +0.194 A 
ENDBRANCH   1  13
BRANCH   3  14
ATOM     14  C   UNL     1      -0.911   3.424  -0.233  0.00  0.00    +0.099 C 
ATOM     15  C   UNL     1      -0.334   3.750  -1.620  0.00  0.00    +0.047 C 
ATOM     16  C   UNL     1       0.211   5.199  -1.637  0.00  0.00    +0.168 C 
ATOM     17  S   UNL     1       0.680   5.475   0.120  0.00  0.00    -0.029 S 
ATOM     18  O   UNL     1      -0.117   6.524   0.652  0.00  0.00    -0.174 OA
ATOM     19  O   UNL     1       2.095   5.556   0.214  0.00  0.00    -0.174 OA
ATOM     20  C   UNL     1       0.121   3.873   0.840  0.00  0.00    +0.188 C 
ENDBRANCH   3  14
BRANCH   3  21
ATOM     21  C   UNL     1      -2.482   1.480   0.204  0.00  0.00    +0.143 C 
BRANCH  21  22
ATOM     22  C   UNL     1      -2.639   1.401   1.701  0.00  0.00    -0.030 A 
ATOM     23  C   UNL     1      -2.212   0.278   2.383  0.00  0.00    +0.005 A 
ATOM     24  C   UNL     1      -2.352   0.208   3.757  0.00  0.00    +0.004 A 
ATOM     25  C   UNL     1      -2.928   1.258   4.447  0.00  0.00    -0.045 A 
ATOM     26  C   UNL     1      -3.360   2.379   3.764  0.00  0.00    +0.004 A 
ATOM     27  C   UNL     1      -3.216   2.451   2.391  0.00  0.00    +0.005 A 
BRANCH  25  28
ATOM     28  C   UNL     1      -3.086   1.180   5.944  0.00  0.00    +0.013 C 
ATOM     29  C   UNL     1      -3.961  -0.023   6.303  0.00  0.00    +0.012 C 
ATOM     30  C   UNL     1      -1.709   1.021   6.593  0.00  0.00    +0.012 C 
ENDBRANCH  25  28
ENDBRANCH  21  22
ENDBRANCH   3  21
TORSDOF 5
