REMARK  Name = ZINC38700848
REMARK  13 active torsions:
REMARK  status: ('A' for Active; 'I' for Inactive)
REMARK    1  A    between atoms: C_1  and  C_2
REMARK    2  A    between atoms: C_2  and  C_3
REMARK    3  A    between atoms: C_3  and  C_4
REMARK    4  A    between atoms: C_4  and  O_5
REMARK    5  A    between atoms: O_5  and  C_6
REMARK    6  A    between atoms: C_11  and  C_12
REMARK    7  A    between atoms: C_17  and  O_26
REMARK    8  A    between atoms: C_21  and  N_25
REMARK    9  A    between atoms: C_22  and  C_23
REMARK   10  A    between atoms: O_26  and  C_27
REMARK   11  A    between atoms: C_27  and  C_29
REMARK   12  A    between atoms: C_30  and  C_39
REMARK   13  A    between atoms: C_33  and  C_38
REMARK                            x       y       z     vdW  Elec       q    Type
REMARK                         _______ _______ _______ _____ _____    ______ ____
ROOT
ATOM      1  C   UNL     1      -5.421  -3.609   0.061  0.00  0.00    +0.101 C 
ATOM      2  C   UNL     1      -6.246  -3.856  -1.174  0.00  0.00    +0.008 A 
ATOM      3  C   UNL     1      -5.878  -3.262  -2.368  0.00  0.00    +0.012 A 
ATOM      4  C   UNL     1      -6.622  -3.476  -3.511  0.00  0.00    +0.047 A 
ATOM      5  C   UNL     1      -7.745  -4.292  -3.465  0.00  0.00    +0.136 A 
ATOM      6  C   UNL     1      -8.115  -4.890  -2.271  0.00  0.00    +0.093 A 
ATOM      7  C   UNL     1      -7.365  -4.673  -1.122  0.00  0.00    +0.138 A 
ATOM      8  O   UNL     1      -7.741  -5.264   0.038  0.00  0.00    -0.441 OA
ATOM      9  C   UNL     1      -7.294  -4.785   1.211  0.00  0.00    +0.199 C 
ATOM     10  C   UNL     1      -6.199  -3.996   1.288  0.00  0.00    +0.098 C 
ENDROOT
BRANCH   1  16
ATOM     11  C   UNL     1      -2.922  -3.802   0.005  0.00  0.00    +0.125 A 
ATOM     12  C   UNL     1      -1.762  -4.560  -0.054  0.00  0.00    +0.046 A 
ATOM     13  C   UNL     1      -1.841  -5.937  -0.131  0.00  0.00    +0.004 A 
ATOM     14  C   UNL     1      -3.075  -6.560  -0.149  0.00  0.00    +0.001 A 
ATOM     15  C   UNL     1      -4.233  -5.806  -0.091  0.00  0.00    +0.008 A 
ATOM     16  C   UNL     1      -4.159  -4.429  -0.008  0.00  0.00    +0.007 A 
BRANCH  11  17
ATOM     17  O   UNL     1      -2.847  -2.447   0.081  0.00  0.00    -0.492 OA
BRANCH  17  18
ATOM     18  C   UNL     1      -1.540  -1.870   0.090  0.00  0.00    +0.229 C 
BRANCH  18  19
ATOM     19  C   UNL     1      -1.656  -0.347   0.180  0.00  0.00    +0.041 C 
BRANCH  19  21
ATOM     20  C   UNL     1      -0.372   1.795   0.279  0.00  0.00    +0.004 C 
ATOM     21  C   UNL     1      -0.256   0.272   0.189  0.00  0.00    -0.000 C 
ENDBRANCH  19  21
ENDBRANCH  18  19
ENDBRANCH  17  18
ENDBRANCH  11  17
ENDBRANCH   1  16
BRANCH   9  22
ATOM     22  N   UNL     1      -7.967  -5.106   2.363  0.00  0.00    -0.328 N 
ATOM     23  H   UNL     1      -8.754  -5.672   2.322  0.00  0.00    +0.145 HD
ATOM     24  H   UNL     1      -7.656  -4.768   3.217  0.00  0.00    +0.145 HD
ENDBRANCH   9  22
BRANCH  10  25
ATOM     25  C   UNL     1      -5.773  -3.519   2.569  0.00  0.00    +0.101 C 
ATOM     26  N   UNL     1      -5.435  -3.140   3.585  0.00  0.00    -0.191 NA
ENDBRANCH  10  25
BRANCH   5  27
ATOM     27  O   UNL     1      -8.479  -4.504  -4.588  0.00  0.00    -0.420 OA
BRANCH  27  28
ATOM     28  C   UNL     1      -9.714  -3.967  -4.648  0.00  0.00    +0.380 C 
ATOM     29  O   UNL     1     -10.101  -3.231  -3.761  0.00  0.00    -0.241 OA
BRANCH  28  30
ATOM     30  C   UNL     1     -10.593  -4.272  -5.784  0.00  0.00    +0.216 A 
ATOM     31  C   UNL     1     -11.851  -3.786  -5.952  0.00  0.00    +0.010 A 
ATOM     32  C   UNL     1     -12.339  -4.351  -7.209  0.00  0.00    +0.024 A 
ATOM     33  C   UNL     1     -13.533  -4.244  -7.927  0.00  0.00    +0.015 A 
ATOM     34  C   UNL     1     -13.678  -4.921  -9.104  0.00  0.00    -0.050 A 
ATOM     35  C   UNL     1     -12.648  -5.714  -9.592  0.00  0.00    +0.007 A 
ATOM     36  C   UNL     1     -11.463  -5.834  -8.899  0.00  0.00    +0.047 A 
ATOM     37  C   UNL     1     -11.291  -5.154  -7.698  0.00  0.00    +0.136 A 
ATOM     38  O   UNL     1     -10.272  -5.072  -6.822  0.00  0.00    -0.448 OA
ATOM     39  C   UNL     1     -14.965  -4.806  -9.880  0.00  0.00    +0.044 C 
ATOM     40  C   UNL     1     -12.593  -2.853  -5.030  0.00  0.00    +0.048 C 
ENDBRANCH  28  30
ENDBRANCH  27  28
ENDBRANCH   5  27
TORSDOF 10
