REMARK  Name = ZINC04633476
REMARK  11 active torsions:
REMARK  status: ('A' for Active; 'I' for Inactive)
REMARK    1  A    between atoms: C_1  and  C_2
REMARK    2  A    between atoms: C_2  and  C_4
REMARK    3  A    between atoms: C_2  and  N_10
REMARK    4  A    between atoms: C_11  and  C_13
REMARK    5  A    between atoms: C_13  and  C_15
REMARK    6  A    between atoms: C_13  and  O_16
REMARK    7  A    between atoms: O_16  and  C_17
REMARK    8  A    between atoms: C_17  and  C_19
REMARK    9  A    between atoms: C_24  and  N_25
REMARK   10  A    between atoms: N_25  and  S_26
REMARK   11  A    between atoms: S_26  and  C_29
REMARK                            x       y       z     vdW  Elec       q    Type
REMARK                         _______ _______ _______ _____ _____    ______ ____
ROOT
ATOM      1  C   UNL     1       4.054  -0.020  -3.799  0.00  0.00    +0.081 A 
ATOM      2  C   UNL     1       4.238   1.090  -4.629  0.00  0.00    +0.017 A 
ATOM      3  C   UNL     1       4.882   2.208  -4.147  0.00  0.00    +0.001 A 
ATOM      4  C   UNL     1       5.345   2.242  -2.841  0.00  0.00    +0.002 A 
ATOM      5  C   UNL     1       5.166   1.157  -2.008  0.00  0.00    +0.025 A 
ATOM      6  C   UNL     1       4.519   0.020  -2.475  0.00  0.00    +0.062 A 
ENDROOT
BRANCH   1   7
ATOM      7  C   UNL     1       3.372  -1.222  -4.309  0.00  0.00    +0.342 C 
ATOM      8  O   UNL     1       3.211  -2.183  -3.584  0.00  0.00    -0.245 OA
BRANCH   7   9
ATOM      9  O   UNL     1       2.928  -1.256  -5.581  0.00  0.00    -0.449 OA
BRANCH   9  10
ATOM     10  C   UNL     1       2.265  -2.472  -6.016  0.00  0.00    +0.259 C 
ATOM     11  C   UNL     1       3.300  -3.437  -6.598  0.00  0.00    +0.062 C 
BRANCH  10  13
ATOM     12  N   UNL     1       0.430  -3.100  -7.551  0.00  0.00    -0.306 N 
ATOM     13  C   UNL     1       1.242  -2.138  -7.070  0.00  0.00    +0.254 C 
ATOM     14  O   UNL     1       1.148  -1.002  -7.486  0.00  0.00    -0.272 OA
ATOM     15  H   UNL     1       0.504  -4.008  -7.218  0.00  0.00    +0.149 HD
BRANCH  12  17
ATOM     16  C   UNL     1      -1.834  -2.245  -7.905  0.00  0.00    +0.033 C 
ATOM     17  C   UNL     1      -0.565  -2.775  -8.576  0.00  0.00    +0.100 C 
BRANCH  17  18
ATOM     18  C   UNL     1      -0.895  -4.015  -9.367  0.00  0.00    -0.027 A 
ATOM     19  C   UNL     1      -1.016  -5.232  -8.724  0.00  0.00    +0.005 A 
ATOM     20  C   UNL     1      -1.324  -6.369  -9.449  0.00  0.00    +0.000 A 
ATOM     21  C   UNL     1      -1.500  -6.289 -10.818  0.00  0.00    +0.000 A 
ATOM     22  C   UNL     1      -1.374  -5.072 -11.461  0.00  0.00    +0.000 A 
ATOM     23  C   UNL     1      -1.071  -3.935 -10.736  0.00  0.00    +0.005 A 
ENDBRANCH  17  18
ENDBRANCH  12  17
ENDBRANCH  10  13
ENDBRANCH   9  10
ENDBRANCH   7   9
ENDBRANCH   1   7
BRANCH   6  24
ATOM     24  N   UNL     1       4.338  -1.074  -1.639  0.00  0.00    -0.215 N 
ATOM     25  H   UNL     1       4.390  -1.973  -1.998  0.00  0.00    +0.174 HD
BRANCH  24  26
ATOM     26  S   UNL     1       4.036  -0.842  -0.027  0.00  0.00    +0.072 S 
ATOM     27  O   UNL     1       5.072  -0.003   0.464  0.00  0.00    -0.150 OA
ATOM     28  O   UNL     1       3.769  -2.124   0.524  0.00  0.00    -0.150 OA
BRANCH  26  29
ATOM     29  C   UNL     1       2.539   0.080   0.095  0.00  0.00    +0.112 A 
ATOM     30  C   UNL     1       1.327  -0.580   0.172  0.00  0.00    +0.032 A 
ATOM     31  C   UNL     1       0.151   0.140   0.267  0.00  0.00    +0.051 A 
ATOM     32  C   UNL     1       0.184   1.527   0.285  0.00  0.00    +0.162 A 
ATOM     33  C   UNL     1       1.404   2.190   0.210  0.00  0.00    +0.164 A 
ATOM     34  C   UNL     1       2.580   1.461   0.114  0.00  0.00    +0.078 A 
ATOM     35  O   UNL     1       1.460   3.549   0.235  0.00  0.00    -0.485 OA
ATOM     36  C   UNL     1       0.242   4.249  -0.044  0.00  0.00    +0.270 C 
ATOM     37  C   UNL     1      -0.885   3.595   0.767  0.00  0.00    +0.270 C 
ATOM     38  O   UNL     1      -0.982   2.222   0.370  0.00  0.00    -0.485 OA
ENDBRANCH  26  29
ENDBRANCH  24  26
ENDBRANCH   6  24
TORSDOF 9
