REMARK  Name = ZINC57058973
REMARK  8 active torsions:
REMARK  status: ('A' for Active; 'I' for Inactive)
REMARK    1  A    between atoms: C_1  and  C_2
REMARK    2  A    between atoms: N_13  and  C_19
REMARK    3  A    between atoms: C_19  and  C_20
REMARK    4  A    between atoms: N_22  and  N_23
REMARK    5  A    between atoms: C_24  and  C_26
REMARK    6  A    between atoms: C_26  and  C_27
REMARK    7  A    between atoms: C_26  and  C_28
REMARK    8  A    between atoms: C_26  and  C_29
REMARK                            x       y       z     vdW  Elec       q    Type
REMARK                         _______ _______ _______ _____ _____    ______ ____
ROOT
ATOM      1  C   UNL     1      -0.018   1.503   0.010  0.00  0.00    +0.044 C 
ATOM      2  C   UNL     1       0.002  -0.004   0.002  0.00  0.00    -0.050 A 
ATOM      3  C   UNL     1       0.005  -0.668  -1.214  0.00  0.00    +0.005 A 
ATOM      4  C   UNL     1       0.022  -2.049  -1.299  0.00  0.00    +0.026 A 
ATOM      5  C   UNL     1       0.038  -2.761  -0.102  0.00  0.00    +0.050 A 
ATOM      6  C   UNL     1       0.037  -2.073   1.149  0.00  0.00    +0.004 A 
ATOM      7  C   UNL     1       0.022  -0.675   1.199  0.00  0.00    +0.013 A 
ATOM      8  C   UNL     1       0.060  -3.091   2.163  0.00  0.00    -0.017 A 
ATOM      9  C   UNL     1       0.095  -4.274   1.518  0.00  0.00    +0.040 A 
ATOM     10  N   UNL     1       0.051  -4.097   0.164  0.00  0.00    -0.341 N 
ATOM     11  C   UNL     1       0.008  -5.246  -0.754  0.00  0.00    +0.137 C 
ATOM     12  C   UNL     1       0.429  -6.497   0.028  0.00  0.00    +0.107 C 
ATOM     13  N   UNL     1      -0.314  -6.611   1.291  0.00  0.00    -0.284 NA
ATOM     14  C   UNL     1       0.138  -5.590   2.260  0.00  0.00    +0.104 C 
ATOM     15  C   UNL     1      -0.825  -5.505   3.434  0.00  0.00    +0.025 C 
ATOM     16  C   UNL     1      -0.874  -4.188   4.166  0.00  0.00    +0.007 C 
ATOM     17  C   UNL     1       0.045  -3.083   3.667  0.00  0.00    +0.037 C 
ENDROOT
BRANCH  13  18
ATOM     18  C   UNL     1      -0.191  -7.962   1.854  0.00  0.00    +0.182 C 
BRANCH  18  19
ATOM     19  C   UNL     1      -0.876  -8.949   0.945  0.00  0.00    +0.243 C 
ATOM     20  O   UNL     1      -1.414  -8.565  -0.072  0.00  0.00    -0.273 OA
ATOM     21  N   UNL     1      -0.892 -10.259   1.261  0.00  0.00    -0.233 N 
ATOM     22  H   UNL     1      -0.462 -10.566   2.074  0.00  0.00    +0.173 HD
BRANCH  21  23
ATOM     23  N   UNL     1      -1.529 -11.177   0.416  0.00  0.00    -0.234 N 
ATOM     24  C   UNL     1      -1.544 -12.486   0.732  0.00  0.00    +0.234 C 
ATOM     25  O   UNL     1      -1.007 -12.871   1.749  0.00  0.00    -0.274 OA
ATOM     26  H   UNL     1      -1.959 -10.869  -0.397  0.00  0.00    +0.173 HD
BRANCH  24  27
ATOM     27  C   UNL     1      -2.230 -13.473  -0.177  0.00  0.00    +0.040 C 
ATOM     28  C   UNL     1      -2.102 -14.881   0.409  0.00  0.00    +0.020 C 
ATOM     29  C   UNL     1      -3.710 -13.107  -0.305  0.00  0.00    +0.020 C 
ATOM     30  C   UNL     1      -1.574 -13.435  -1.559  0.00  0.00    +0.020 C 
ENDBRANCH  24  27
ENDBRANCH  21  23
ENDBRANCH  18  19
ENDBRANCH  13  18
TORSDOF 4
