REMARK  Name = ZINC21227809
REMARK  8 active torsions:
REMARK  status: ('A' for Active; 'I' for Inactive)
REMARK    1  A    between atoms: C_1  and  C_2
REMARK    2  A    between atoms: C_2  and  C_4
REMARK    3  A    between atoms: C_2  and  O_16
REMARK    4  A    between atoms: N_6  and  C_7
REMARK    5  A    between atoms: C_10  and  C_13
REMARK    6  A    between atoms: O_16  and  C_17
REMARK    7  A    between atoms: C_17  and  C_19
REMARK    8  A    between atoms: C_33  and  C_34
REMARK                            x       y       z     vdW  Elec       q    Type
REMARK                         _______ _______ _______ _____ _____    ______ ____
ROOT
ATOM      1  C   UNL     1      -1.406  -0.874  -1.004  0.00  0.00    +0.341 C 
ATOM      2  O   UNL     1      -2.399  -1.235  -1.603  0.00  0.00    -0.245 OA
ENDROOT
BRANCH   1   3
ATOM      3  C   UNL     1      -0.290  -0.240  -1.738  0.00  0.00    +0.073 A 
ATOM      4  C   UNL     1       0.800  -1.041  -2.296  0.00  0.00    +0.015 A 
ATOM      5  C   UNL     1       0.830  -2.433  -2.160  0.00  0.00    +0.011 A 
ATOM      6  C   UNL     1       1.865  -3.140  -2.697  0.00  0.00    +0.001 A 
ATOM      7  C   UNL     1       2.893  -2.494  -3.379  0.00  0.00    +0.002 A 
ATOM      8  C   UNL     1       2.896  -1.142  -3.529  0.00  0.00    +0.028 A 
ATOM      9  C   UNL     1       1.844  -0.378  -2.988  0.00  0.00    +0.072 A 
ATOM     10  N   UNL     1       1.819   0.948  -3.118  0.00  0.00    -0.247 NA
ATOM     11  C   UNL     1       0.846   1.695  -2.621  0.00  0.00    +0.072 A 
ATOM     12  C   UNL     1      -0.240   1.135  -1.922  0.00  0.00    -0.007 A 
ATOM     13  C   UNL     1      -1.353   1.981  -1.372  0.00  0.00    +0.038 C 
ATOM     14  C   UNL     1      -0.902   3.425  -1.168  0.00  0.00    +0.009 C 
ATOM     15  C   UNL     1      -0.328   3.967  -2.483  0.00  0.00    +0.038 C 
ATOM     16  C   UNL     1       0.911   3.159  -2.807  0.00  0.00    -0.018 C 
ATOM     17  C   UNL     1       2.037   3.757  -3.249  0.00  0.00    +0.052 C 
BRANCH  17  18
ATOM     18  C   UNL     1       2.023   5.178  -3.599  0.00  0.00    +0.128 A 
ATOM     19  C   UNL     1       3.111   5.933  -3.939  0.00  0.00    +0.049 A 
ATOM     20  C   UNL     1       2.637   7.230  -4.197  0.00  0.00    +0.042 A 
ATOM     21  C   UNL     1       1.302   7.213  -3.998  0.00  0.00    +0.195 A 
ATOM     22  O   UNL     1       0.935   5.973  -3.638  0.00  0.00    -0.464 OA
ENDBRANCH  17  18
ENDBRANCH   1   3
BRANCH   1  23
ATOM     23  O   UNL     1      -1.322  -1.050   0.329  0.00  0.00    -0.449 OA
BRANCH  23  25
ATOM     24  C   UNL     1      -2.256  -3.195   1.004  0.00  0.00    +0.062 C 
ATOM     25  C   UNL     1      -2.455  -1.678   0.984  0.00  0.00    +0.259 C 
BRANCH  25  26
ATOM     26  C   UNL     1      -2.566  -1.167   2.397  0.00  0.00    +0.258 C 
ATOM     27  O   UNL     1      -1.768  -0.353   2.812  0.00  0.00    -0.271 OA
ATOM     28  N   UNL     1      -3.552  -1.614   3.200  0.00  0.00    -0.282 N 
ATOM     29  H   UNL     1      -4.329  -2.280   2.798  0.00  0.00    +0.155 HD
BRANCH  28  30
ATOM     30  C   UNL     1      -3.586  -1.232   4.541  0.00  0.00    +0.034 A 
ATOM     31  C   UNL     1      -2.400  -1.097   5.255  0.00  0.00    +0.024 A 
ATOM     32  C   UNL     1      -2.430  -0.715   6.577  0.00  0.00    +0.015 A 
ATOM     33  C   UNL     1      -3.654  -0.473   7.205  0.00  0.00    +0.037 A 
ATOM     34  C   UNL     1      -4.845  -0.615   6.487  0.00  0.00    +0.015 A 
ATOM     35  C   UNL     1      -4.807  -0.992   5.163  0.00  0.00    +0.024 A 
BRANCH  33  36
ATOM     36  C   UNL     1      -3.691  -0.069   8.624  0.00  0.00    +0.242 C 
ATOM     37  O   UNL     1      -4.757   0.142   9.169  0.00  0.00    -0.270 OA
ATOM     38  N   UNL     1      -2.542   0.067   9.316  0.00  0.00    -0.325 N 
ATOM     39  H   UNL     1      -2.569   0.368  10.373  0.00  0.00    +0.145 HD
ATOM     40  H   UNL     1      -1.577  -0.123   8.822  0.00  0.00    +0.145 HD
ENDBRANCH  33  36
ENDBRANCH  28  30
ENDBRANCH  25  26
ENDBRANCH  23  25
ENDBRANCH   1  23
TORSDOF 7
