REMARK  Name = ZINC04213749
REMARK  9 active torsions:
REMARK  status: ('A' for Active; 'I' for Inactive)
REMARK    1  A    between atoms: C_1  and  C_2
REMARK    2  A    between atoms: C_5  and  N_8
REMARK    3  A    between atoms: C_9  and  C_11
REMARK    4  A    between atoms: C_11  and  S_12
REMARK    5  A    between atoms: S_12  and  C_13
REMARK    6  A    between atoms: C_23  and  C_27
REMARK    7  A    between atoms: C_27  and  C_28
REMARK    8  A    between atoms: C_27  and  C_29
REMARK    9  A    between atoms: C_27  and  C_30
REMARK                            x       y       z     vdW  Elec       q    Type
REMARK                         _______ _______ _______ _____ _____    ______ ____
ROOT
ATOM      1  C   UNL     1       3.319  -3.530  -4.758  0.00  0.00    +0.109 A 
ATOM      2  C   UNL     1       3.479  -2.357  -3.963  0.00  0.00    +0.043 A 
ATOM      3  C   UNL     1       2.559  -1.844  -2.962  0.00  0.00    -0.025 A 
ATOM      4  C   UNL     1       2.923  -0.705  -2.330  0.00  0.00    -0.004 A 
ATOM      5  S   UNL     1       4.494  -0.264  -3.031  0.00  0.00    -0.073 S 
ATOM      6  C   UNL     1       4.661  -1.603  -4.167  0.00  0.00    +0.113 A 
ATOM      7  N   UNL     1       5.593  -1.936  -5.038  0.00  0.00    -0.228 NA
ATOM      8  C   UNL     1       5.383  -3.040  -5.746  0.00  0.00    +0.223 A 
ATOM      9  N   UNL     1       4.308  -3.791  -5.612  0.00  0.00    -0.229 NA
ATOM     10  C   UNL     1       2.163   0.025  -1.267  0.00  0.00    +0.046 C 
ATOM     11  C   UNL     1       0.722  -0.503  -1.249  0.00  0.00    -0.000 C 
ATOM     12  C   UNL     1       0.758  -2.034  -1.257  0.00  0.00    +0.009 C 
ATOM     13  C   UNL     1       1.242  -2.535  -2.617  0.00  0.00    +0.037 C 
ENDROOT
BRANCH  11  14
ATOM     14  C   UNL     1       0.011  -0.014   0.015  0.00  0.00    -0.035 C 
ATOM     15  C   UNL     1      -0.016   1.516   0.024  0.00  0.00    +0.011 C 
ATOM     16  C   UNL     1       0.761  -0.518   1.250  0.00  0.00    +0.011 C 
ATOM     17  C   UNL     1      -1.422  -0.549   0.034  0.00  0.00    +0.011 C 
ENDBRANCH  11  14
BRANCH   1  18
ATOM     18  S   UNL     1       1.903  -4.569  -4.620  0.00  0.00    -0.096 S 
BRANCH  18  19
ATOM     19  C   UNL     1       2.313  -5.826  -5.856  0.00  0.00    +0.171 C 
BRANCH  19  21
ATOM     20  N   UNL     1       1.301  -7.889  -6.770  0.00  0.00    -0.285 N 
ATOM     21  C   UNL     1       1.211  -6.852  -5.915  0.00  0.00    +0.227 C 
ATOM     22  O   UNL     1       0.243  -6.743  -5.192  0.00  0.00    -0.275 OA
ATOM     23  H   UNL     1       2.041  -7.940  -7.395  0.00  0.00    +0.155 HD
BRANCH  20  28
ATOM     24  C   UNL     1      -2.653 -11.958  -6.720  0.00  0.00    +0.044 C 
ATOM     25  C   UNL     1      -1.603 -10.877  -6.733  0.00  0.00    -0.050 A 
ATOM     26  C   UNL     1      -1.959  -9.566  -6.479  0.00  0.00    +0.005 A 
ATOM     27  C   UNL     1      -0.999  -8.573  -6.491  0.00  0.00    +0.023 A 
ATOM     28  C   UNL     1       0.326  -8.893  -6.757  0.00  0.00    +0.033 A 
ATOM     29  C   UNL     1       0.680 -10.210  -7.017  0.00  0.00    +0.023 A 
ATOM     30  C   UNL     1      -0.284 -11.199  -6.999  0.00  0.00    +0.005 A 
ENDBRANCH  20  28
ENDBRANCH  19  21
ENDBRANCH  18  19
ENDBRANCH   1  18
TORSDOF 5
