REMARK  Name = ZINC12157868
REMARK  14 active torsions:
REMARK  status: ('A' for Active; 'I' for Inactive)
REMARK    1  A    between atoms: C_1  and  C_2
REMARK    2  A    between atoms: C_2  and  C_3
REMARK    3  A    between atoms: C_3  and  C_5
REMARK    4  A    between atoms: C_3  and  C_6
REMARK    5  A    between atoms: C_11  and  C_14
REMARK    6  A    between atoms: C_14  and  C_26
REMARK    7  A    between atoms: N_17  and  C_21
REMARK    8  A    between atoms: C_21  and  C_22
REMARK    9  A    between atoms: C_22  and  C_23
REMARK   10  A    between atoms: C_23  and  N_73
REMARK   11  A    between atoms: C_24  and  N_73
REMARK   12  A    between atoms: C_25  and  N_73
REMARK   13  A    between atoms: C_26  and  C_27
REMARK   14  A    between atoms: C_32  and  C_33
REMARK                            x       y       z     vdW  Elec       q    Type
REMARK                         _______ _______ _______ _____ _____    ______ ____
ROOT
ATOM      1  C   UNL     1      -2.654   4.080   2.026  0.00  0.00    +0.119 C 
ATOM      2  C   UNL     1      -2.715   2.681   2.606  0.00  0.00    +0.247 C 
ATOM      3  O   UNL     1      -3.236   1.704   2.110  0.00  0.00    -0.273 OA
ATOM      4  N   UNL     1      -2.071   2.748   3.787  0.00  0.00    -0.224 N 
ATOM      5  C   UNL     1      -1.615   3.981   4.032  0.00  0.00    +0.309 C 
ATOM      6  O   UNL     1      -1.001   4.289   5.035  0.00  0.00    -0.252 OA
ATOM      7  N   UNL     1      -1.914   4.848   3.042  0.00  0.00    -0.284 N 
ATOM      8  H   UNL     1      -1.686   5.790   3.005  0.00  0.00    +0.151 HD
ENDROOT
BRANCH   1  14
ATOM      9  C   UNL     1      -6.753   7.564   2.907  0.00  0.00    +0.218 C 
ATOM     10  O   UNL     1      -7.458   7.418   3.883  0.00  0.00    -0.275 OA
ATOM     11  N   UNL     1      -6.139   6.499   2.354  0.00  0.00    -0.301 N 
ATOM     12  C   UNL     1      -6.217   5.176   2.989  0.00  0.00    +0.108 C 
ATOM     13  C   UNL     1      -4.796   4.639   3.184  0.00  0.00    +0.025 C 
ATOM     14  C   UNL     1      -4.062   4.649   1.841  0.00  0.00    +0.025 C 
ATOM     15  C   UNL     1      -3.968   6.084   1.320  0.00  0.00    +0.025 C 
ATOM     16  C   UNL     1      -5.380   6.638   1.104  0.00  0.00    +0.108 C 
BRANCH   9  17
ATOM     17  C   UNL     1      -6.563   8.935   2.313  0.00  0.00    +0.072 C 
ATOM     18  C   UNL     1      -7.352   9.039   1.006  0.00  0.00    +0.017 C 
BRANCH  17  20
ATOM     19  C   UNL     1      -6.762  11.387   2.749  0.00  0.00    +0.004 C 
ATOM     20  C   UNL     1      -7.068   9.992   3.298  0.00  0.00    +0.009 C 
ENDBRANCH  17  20
ENDBRANCH   9  17
ENDBRANCH   1  14
BRANCH   4  21
ATOM     21  C   UNL     1      -1.891   1.610   4.692  0.00  0.00    +0.116 C 
BRANCH  21  22
ATOM     22  C   UNL     1      -0.588   0.885   4.349  0.00  0.00    +0.001 C 
BRANCH  22  23
ATOM     23  C   UNL     1      -0.401  -0.303   5.294  0.00  0.00    -0.078 C 
BRANCH  23  26
ATOM     24  C   UNL     1       1.185  -1.995   5.991  0.00  0.00    -0.097 C 
ATOM     25  C   UNL     1       0.773  -1.619   3.635  0.00  0.00    -0.097 C 
ATOM     26  N   UNL     1       0.871  -0.980   4.964  0.00  0.00    +0.376 N 
ATOM     27  H   UNL     1       1.624  -0.282   4.944  0.00  0.00    -0.083 HD
ENDBRANCH  23  26
ENDBRANCH  22  23
ENDBRANCH  21  22
ENDBRANCH   4  21
BRANCH   1  28
ATOM     28  C   UNL     1      -1.897   4.078   0.696  0.00  0.00    +0.071 C 
BRANCH  28  29
ATOM     29  C   UNL     1      -0.472   3.649   0.929  0.00  0.00    -0.042 A 
ATOM     30  C   UNL     1       0.459   4.562   1.388  0.00  0.00    +0.004 A 
ATOM     31  C   UNL     1       1.766   4.168   1.603  0.00  0.00    +0.000 A 
ATOM     32  C   UNL     1       2.143   2.861   1.358  0.00  0.00    +0.000 A 
ATOM     33  C   UNL     1       1.213   1.948   0.898  0.00  0.00    +0.003 A 
ATOM     34  C   UNL     1      -0.094   2.343   0.678  0.00  0.00    -0.047 A 
ATOM     35  C   UNL     1      -1.107   1.349   0.171  0.00  0.00    +0.044 C 
ENDBRANCH  28  29
ENDBRANCH   1  28
TORSDOF 9
