REMARK  Name = ZINC00888839
REMARK  13 active torsions:
REMARK  status: ('A' for Active; 'I' for Inactive)
REMARK    1  A    between atoms: C_1  and  C_2
REMARK    2  A    between atoms: C_4  and  O_33
REMARK    3  A    between atoms: C_8  and  C_21
REMARK    4  A    between atoms: C_14  and  C_19
REMARK    5  A    between atoms: C_14  and  C_20
REMARK    6  A    between atoms: C_23  and  O_31
REMARK    7  A    between atoms: C_24  and  O_29
REMARK    8  A    between atoms: C_25  and  O_27
REMARK    9  A    between atoms: O_27  and  C_28
REMARK   10  A    between atoms: O_29  and  C_30
REMARK   11  A    between atoms: O_31  and  C_32
REMARK   12  A    between atoms: O_33  and  C_34
REMARK   13  A    between atoms: C_34  and  C_36
REMARK                            x       y       z     vdW  Elec       q    Type
REMARK                         _______ _______ _______ _____ _____    ______ ____
ROOT
ATOM      1  C   UNL     1      -0.926  -2.291   1.316  0.00  0.00    +0.044 C 
ATOM      2  C   UNL     1       0.258  -1.435   1.684  0.00  0.00    -0.040 A 
ATOM      3  C   UNL     1       1.051  -1.785   2.759  0.00  0.00    +0.050 A 
ATOM      4  C   UNL     1       2.142  -0.998   3.099  0.00  0.00    +0.135 A 
ATOM      5  C   UNL     1       2.431   0.136   2.359  0.00  0.00    +0.092 A 
ATOM      6  C   UNL     1       1.631   0.488   1.278  0.00  0.00    +0.131 A 
ATOM      7  C   UNL     1       0.544  -0.300   0.941  0.00  0.00    +0.005 A 
ATOM      8  C   UNL     1      -0.346   0.042  -0.227  0.00  0.00    +0.058 C 
ATOM      9  C   UNL     1      -0.132   1.505  -0.627  0.00  0.00    +0.081 C 
ATOM     10  C   UNL     1       1.376   1.762  -0.720  0.00  0.00    +0.182 C 
ATOM     11  O   UNL     1       1.946   1.610   0.579  0.00  0.00    -0.468 OA
ATOM     12  C   UNL     1       1.621   3.184  -1.232  0.00  0.00    +0.094 C 
ATOM     13  C   UNL     1       3.129   3.380  -1.427  0.00  0.00    +0.036 C 
ATOM     14  N   UNL     1       3.638   2.333  -2.314  0.00  0.00    -0.294 N 
ATOM     15  C   UNL     1       3.060   1.124  -2.374  0.00  0.00    +0.303 C 
ATOM     16  O   UNL     1       3.533   0.286  -3.117  0.00  0.00    -0.253 OA
ATOM     17  N   UNL     1       1.980   0.803  -1.645  0.00  0.00    -0.262 N 
ATOM     18  C   UNL     1       3.389   4.752  -2.053  0.00  0.00    +0.031 C 
ATOM     19  C   UNL     1       3.836   3.293  -0.073  0.00  0.00    +0.031 C 
ATOM     20  H   UNL     1       4.410   2.518  -2.872  0.00  0.00    +0.151 HD
ATOM     21  H   UNL     1       1.593  -0.082  -1.733  0.00  0.00    +0.154 HD
ENDROOT
BRANCH   8  22
ATOM     22  C   UNL     1      -1.787  -0.166   0.163  0.00  0.00    -0.033 A 
ATOM     23  C   UNL     1      -2.289   0.444   1.297  0.00  0.00    +0.054 A 
ATOM     24  C   UNL     1      -3.616   0.260   1.656  0.00  0.00    +0.165 A 
ATOM     25  C   UNL     1      -4.438  -0.548   0.879  0.00  0.00    +0.204 A 
ATOM     26  C   UNL     1      -3.928  -1.163  -0.258  0.00  0.00    +0.165 A 
ATOM     27  C   UNL     1      -2.601  -0.970  -0.613  0.00  0.00    +0.054 A 
BRANCH  26  28
ATOM     28  O   UNL     1      -4.728  -1.954  -1.022  0.00  0.00    -0.491 OA
ATOM     29  C   UNL     1      -4.137  -2.554  -2.176  0.00  0.00    +0.277 C 
ENDBRANCH  26  28
BRANCH  25  30
ATOM     30  O   UNL     1      -5.739  -0.736   1.230  0.00  0.00    -0.488 OA
ATOM     31  C   UNL     1      -6.025  -1.836   2.096  0.00  0.00    +0.277 C 
ENDBRANCH  25  30
BRANCH  24  32
ATOM     32  O   UNL     1      -4.111   0.864   2.769  0.00  0.00    -0.491 OA
ATOM     33  C   UNL     1      -3.208   1.679   3.520  0.00  0.00    +0.277 C 
ENDBRANCH  24  32
ENDBRANCH   8  22
BRANCH   4  34
ATOM     34  O   UNL     1       2.925  -1.341   4.155  0.00  0.00    -0.426 OA
BRANCH  34  35
ATOM     35  C   UNL     1       2.767  -0.634   5.286  0.00  0.00    +0.309 C 
ATOM     36  O   UNL     1       2.021   0.317   5.305  0.00  0.00    -0.251 OA
ATOM     37  C   UNL     1       3.518  -1.026   6.532  0.00  0.00    +0.136 C 
ENDBRANCH  34  35
ENDBRANCH   4  34
TORSDOF 6
