REMARK  Name = ZINC24534902
REMARK  11 active torsions:
REMARK  status: ('A' for Active; 'I' for Inactive)
REMARK    1  A    between atoms: C_1  and  C_2
REMARK    2  A    between atoms: C_2  and  C_4
REMARK    3  A    between atoms: C_2  and  N_33
REMARK    4  A    between atoms: C_7  and  S_16
REMARK    5  A    between atoms: N_8  and  C_9
REMARK    6  A    between atoms: S_16  and  C_17
REMARK    7  A    between atoms: C_17  and  C_18
REMARK    8  A    between atoms: N_20  and  C_21
REMARK    9  A    between atoms: C_28  and  C_32
REMARK   10  A    between atoms: C_29  and  C_30
REMARK   11  A    between atoms: C_29  and  C_31
REMARK                            x       y       z     vdW  Elec       q    Type
REMARK                         _______ _______ _______ _____ _____    ______ ____
ROOT
ATOM      1  C   UNL     1       2.925   1.033  -1.183  0.00  0.00    +0.125 A 
ATOM      2  N   UNL     1       3.827   0.285  -0.614  0.00  0.00    -0.135 NA
ATOM      3  N   UNL     1       3.357  -0.232   0.465  0.00  0.00    -0.122 NA
ATOM      4  C   UNL     1       2.119   0.166   0.649  0.00  0.00    +0.197 A 
ATOM      5  N   UNL     1       1.802   0.982  -0.402  0.00  0.00    -0.275 N 
ENDROOT
BRANCH   5   6
ATOM      6  C   UNL     1       0.581   1.637  -0.628  0.00  0.00    +0.050 A 
ATOM      7  C   UNL     1      -0.567   0.898  -0.881  0.00  0.00    +0.029 A 
ATOM      8  C   UNL     1      -1.766   1.544  -1.109  0.00  0.00    +0.040 A 
ATOM      9  C   UNL     1      -1.826   2.927  -1.074  0.00  0.00    +0.124 A 
ATOM     10  C   UNL     1      -0.682   3.665  -0.822  0.00  0.00    +0.040 A 
ATOM     11  C   UNL     1       0.520   3.023  -0.599  0.00  0.00    +0.029 A 
ATOM     12  F   UNL     1      -3.001   3.557  -1.292  0.00  0.00    -0.205 F 
ENDBRANCH   5   6
BRANCH   1  14
ATOM     13  C   UNL     1       4.004   3.009  -2.221  0.00  0.00    -0.005 C 
ATOM     14  C   UNL     1       3.087   1.809  -2.465  0.00  0.00    -0.002 C 
BRANCH  14  15
ATOM     15  N   UNL     1       3.680   0.940  -3.491  0.00  0.00    +0.386 N 
ATOM     16  C   UNL     1       3.822   1.654  -4.766  0.00  0.00    -0.078 C 
ATOM     17  C   UNL     1       4.572   0.771  -5.766  0.00  0.00    -0.019 C 
ATOM     18  C   UNL     1       3.795  -0.531  -5.973  0.00  0.00    -0.004 C 
ATOM     19  C   UNL     1       3.619  -1.231  -4.622  0.00  0.00    -0.019 C 
ATOM     20  C   UNL     1       2.896  -0.290  -3.656  0.00  0.00    -0.078 C 
ATOM     21  H   UNL     1       4.687   0.654  -3.154  0.00  0.00    -0.081 HD
ENDBRANCH  14  15
ENDBRANCH   1  14
BRANCH   4  22
ATOM     22  S   UNL     1       1.066  -0.272   1.992  0.00  0.00    -0.076 S 
BRANCH  22  23
ATOM     23  C   UNL     1       2.182  -1.346   2.929  0.00  0.00    +0.173 C 
BRANCH  23  24
ATOM     24  C   UNL     1       1.475  -1.854   4.159  0.00  0.00    +0.224 C 
ATOM     25  O   UNL     1       0.329  -1.522   4.380  0.00  0.00    -0.275 OA
ATOM     26  N   UNL     1       2.115  -2.676   5.013  0.00  0.00    -0.311 N 
ATOM     27  H   UNL     1       3.154  -2.977   4.813  0.00  0.00    +0.149 HD
BRANCH  26  28
ATOM     28  C   UNL     1       1.428  -3.170   6.209  0.00  0.00    +0.080 C 
ATOM     29  C   UNL     1       2.449  -3.493   7.323  0.00  0.00    +0.027 C 
ATOM     30  C   UNL     1       2.269  -5.019   7.593  0.00  0.00    -0.003 C 
ATOM     31  C   UNL     1       2.843  -5.710   6.318  0.00  0.00    +0.005 C 
ATOM     32  C   UNL     1       1.822  -5.387   5.204  0.00  0.00    +0.009 C 
ATOM     33  C   UNL     1       0.724  -4.529   5.909  0.00  0.00    -0.008 C 
ATOM     34  C   UNL     1       0.729  -5.178   7.340  0.00  0.00    -0.025 C 
ATOM     35  C   UNL     1       0.302  -6.647   7.305  0.00  0.00    +0.012 C 
ATOM     36  C   UNL     1      -0.103  -4.369   8.337  0.00  0.00    +0.012 C 
ATOM     37  C   UNL     1      -0.625  -4.440   5.192  0.00  0.00    +0.013 C 
ENDBRANCH  26  28
ENDBRANCH  23  24
ENDBRANCH  22  23
ENDBRANCH   4  22
TORSDOF 7
