REMARK  Name = ZINC39469784
REMARK  6 active torsions:
REMARK  status: ('A' for Active; 'I' for Inactive)
REMARK    1  A    between atoms: C_1  and  C_2
REMARK    2  A    between atoms: C_2  and  O_3
REMARK    3  A    between atoms: O_3  and  C_4
REMARK    4  A    between atoms: P_13  and  S_23
REMARK    5  A    between atoms: S_23  and  O_26
REMARK    6  A    between atoms: O_26  and  C_27
REMARK                            x       y       z     vdW  Elec       q    Type
REMARK                         _______ _______ _______ _____ _____    ______ ____
ROOT
ATOM      1  C   UNL     1       0.802  -1.824   1.306  0.00  0.00    +0.130 C 
ATOM      2  C   UNL     1       0.281  -2.646   0.389  0.00  0.00    +0.024 C 
ATOM      3  C   UNL     1       0.404  -4.134   0.579  0.00  0.00    +0.025 C 
ATOM      4  C   UNL     1      -0.676  -4.868  -0.203  0.00  0.00    +0.031 C 
ATOM      5  C   UNL     1      -2.070  -4.526   0.337  0.00  0.00    +0.100 C 
ATOM      6  C   UNL     1      -3.081  -5.347  -0.473  0.00  0.00    +0.191 C 
ATOM      7  O   UNL     1      -4.415  -5.050  -0.029  0.00  0.00    -0.297 OA
ATOM      8  P   UNL     1      -4.719  -5.134   1.568  0.00  0.00    +0.458 P 
ATOM      9  O   UNL     1      -4.917  -6.542   1.979  0.00  0.00    -0.243 OA
ATOM     10  N   UNL     1      -3.377  -4.508   2.296  0.00  0.00    -0.159 NA
ATOM     11  N   UNL     1      -2.147  -4.841   1.766  0.00  0.00    -0.228 NA
ATOM     12  C   UNL     1      -1.129  -4.110   2.539  0.00  0.00    +0.111 C 
ATOM     13  C   UNL     1       0.257  -4.474   2.065  0.00  0.00    +0.035 C 
ATOM     14  C   UNL     1       1.245  -3.644   2.852  0.00  0.00    -0.003 C 
ATOM     15  C   UNL     1       1.502  -2.393   2.475  0.00  0.00    +0.056 C 
ATOM     16 BR   UNL     1       2.750  -1.347   3.435  0.00  0.00    -0.047 Br
ATOM     17  H   UNL     1      -3.451  -3.927   3.070  0.00  0.00    +0.152 HD
ENDROOT
BRANCH   8  18
ATOM     18  S   UNL     1      -6.430  -3.981   2.053  0.00  0.00    +0.211 S 
ATOM     19  O   UNL     1      -6.708  -4.223   3.425  0.00  0.00    -0.126 OA
ATOM     20  O   UNL     1      -6.199  -2.675   1.541  0.00  0.00    -0.126 OA
BRANCH  18  21
ATOM     21  O   UNL     1      -7.598  -4.555   1.264  0.00  0.00    -0.339 OA
BRANCH  21  22
ATOM     22  C   UNL     1      -8.073  -5.730   1.756  0.00  0.00    +0.157 A 
ATOM     23  C   UNL     1      -7.543  -6.933   1.314  0.00  0.00    +0.048 A 
ATOM     24  C   UNL     1      -8.027  -8.126   1.816  0.00  0.00    +0.004 A 
ATOM     25  C   UNL     1      -9.038  -8.121   2.759  0.00  0.00    +0.000 A 
ATOM     26  C   UNL     1      -9.568  -6.923   3.201  0.00  0.00    +0.004 A 
ATOM     27  C   UNL     1      -9.083  -5.728   2.707  0.00  0.00    +0.048 A 
ENDBRANCH  21  22
ENDBRANCH  18  21
ENDBRANCH   8  18
BRANCH   1  28
ATOM     28  O   UNL     1       0.693  -0.477   1.160  0.00  0.00    -0.491 OA
BRANCH  28  30
ATOM     29  C   UNL     1      -0.019   1.526   0.010  0.00  0.00    +0.048 C 
ATOM     30  C   UNL     1       0.002  -0.004   0.002  0.00  0.00    +0.226 C 
ENDBRANCH  28  30
ENDBRANCH   1  28
TORSDOF 5
