REMARK  Name = ZINC39947990
REMARK  9 active torsions:
REMARK  status: ('A' for Active; 'I' for Inactive)
REMARK    1  A    between atoms: C_1  and  N_2
REMARK    2  A    between atoms: N_2  and  C_3
REMARK    3  A    between atoms: N_2  and  C_4
REMARK    4  A    between atoms: C_13  and  C_22
REMARK    5  A    between atoms: C_16  and  C_18
REMARK    6  A    between atoms: C_26  and  C_28
REMARK    7  A    between atoms: C_28  and  N_29
REMARK    8  A    between atoms: N_29  and  C_30
REMARK    9  A    between atoms: N_29  and  C_31
REMARK                            x       y       z     vdW  Elec       q    Type
REMARK                         _______ _______ _______ _____ _____    ______ ____
ROOT
ATOM      1  C   UNL     1       0.844   3.005   3.695  0.00  0.00    +0.071 C 
ATOM      2  C   UNL     1       0.268   2.030   4.374  0.00  0.00    +0.021 C 
ATOM      3  C   UNL     1       0.532   1.697   5.824  0.00  0.00    +0.058 C 
ATOM      4  C   UNL     1      -0.383   0.496   6.123  0.00  0.00    +0.058 C 
ATOM      5  C   UNL     1      -1.103   0.230   4.821  0.00  0.00    +0.026 C 
ATOM      6  N   UNL     1      -0.677   1.155   3.874  0.00  0.00    -0.319 N 
ATOM      7  C   UNL     1      -1.998  -0.726   4.616  0.00  0.00    +0.031 C 
ATOM      8  C   UNL     1      -2.709  -1.509   5.697  0.00  0.00    +0.054 C 
ATOM      9  C   UNL     1      -3.668  -2.461   4.953  0.00  0.00    +0.031 C 
ATOM     10  C   UNL     1      -3.728  -1.859   3.532  0.00  0.00    +0.110 C 
ATOM     11  N   UNL     1      -2.441  -1.169   3.364  0.00  0.00    -0.261 N 
ATOM     12  C   UNL     1      -1.793  -0.994   2.195  0.00  0.00    +0.324 C 
ATOM     13  O   UNL     1      -0.683  -0.506   2.183  0.00  0.00    -0.265 OA
ATOM     14  H   UNL     1      -1.005   1.181   2.962  0.00  0.00    +0.152 HD
ENDROOT
BRANCH  10  15
ATOM     15  C   UNL     1      -4.883  -0.861   3.425  0.00  0.00    +0.149 C 
ATOM     16  C   UNL     1      -6.163  -1.485   3.936  0.00  0.00    +0.003 C 
ATOM     17  C   UNL     1      -7.007  -1.485   2.906  0.00  0.00    +0.022 C 
ATOM     18  C   UNL     1      -6.351  -0.895   1.738  0.00  0.00    +0.050 C 
ATOM     19  N   UNL     1      -5.141  -0.533   2.017  0.00  0.00    -0.278 NA
BRANCH  18  20
ATOM     20  C   UNL     1      -7.001  -0.729   0.388  0.00  0.00    +0.138 C 
BRANCH  20  21
ATOM     21  N   UNL     1      -6.003  -0.258  -0.581  0.00  0.00    -0.303 NA
ATOM     22  C   UNL     1      -5.334  -1.388  -1.239  0.00  0.00    +0.105 C 
ATOM     23  C   UNL     1      -6.612   0.641  -1.569  0.00  0.00    +0.105 C 
ENDBRANCH  20  21
ENDBRANCH  18  20
ENDBRANCH  10  15
BRANCH   1  25
ATOM     24  C   UNL     1      -0.168   4.623   2.339  0.00  0.00    +0.106 C 
ATOM     25  N   UNL     1       0.433   3.284   2.388  0.00  0.00    -0.402 NA
ATOM     26  C   UNL     1       1.594   3.235   1.489  0.00  0.00    +0.106 C 
ATOM     27  H   UNL     1      -0.248   2.599   2.096  0.00  0.00    +0.125 HD
ENDBRANCH   1  25
BRANCH  12  28
ATOM     28  C   UNL     1      -2.449  -1.405   0.901  0.00  0.00    +0.470 C 
ATOM     29  F   UNL     1      -1.501  -1.389  -0.128  0.00  0.00    -0.162 F 
ATOM     30  F   UNL     1      -2.972  -2.696   1.033  0.00  0.00    -0.162 F 
ATOM     31  F   UNL     1      -3.482  -0.512   0.598  0.00  0.00    -0.162 F 
ENDBRANCH  12  28
TORSDOF 5
