REMARK  Name = ZINC08876985
REMARK  6 active torsions:
REMARK  status: ('A' for Active; 'I' for Inactive)
REMARK    1  A    between atoms: C_1  and  C_2
REMARK    2  A    between atoms: C_12  and  C_13
REMARK    3  A    between atoms: C_13  and  C_14
REMARK    4  A    between atoms: N_16  and  C_17
REMARK    5  A    between atoms: C_17  and  C_18
REMARK    6  A    between atoms: C_22  and  C_26
REMARK                            x       y       z     vdW  Elec       q    Type
REMARK                         _______ _______ _______ _____ _____    ______ ____
ROOT
ATOM      1  C   UNL     1       3.186  10.913  -5.038  0.00  0.00    +0.045 C 
ATOM      2  C   UNL     1       2.022  11.679  -4.463  0.00  0.00    -0.029 A 
ATOM      3  C   UNL     1       2.022  13.143  -4.428  0.00  0.00    +0.021 A 
ATOM      4  C   UNL     1       3.103  13.875  -4.929  0.00  0.00    +0.019 A 
ATOM      5  C   UNL     1       3.088  15.242  -4.885  0.00  0.00    -0.005 A 
ATOM      6  C   UNL     1       1.996  15.913  -4.343  0.00  0.00    +0.128 A 
ATOM      7  C   UNL     1       0.913  15.199  -3.843  0.00  0.00    +0.093 A 
ATOM      8  C   UNL     1       0.913  13.813  -3.880  0.00  0.00    +0.143 A 
ATOM      9  O   UNL     1      -0.137  13.119  -3.398  0.00  0.00    -0.422 OA
ATOM     10  C   UNL     1      -0.136  11.782  -3.436  0.00  0.00    +0.341 A 
ATOM     11  O   UNL     1      -1.102  11.186  -2.996  0.00  0.00    -0.245 OA
ATOM     12  C   UNL     1       0.937  11.034  -3.960  0.00  0.00    +0.049 A 
ATOM     13  O   UNL     1       1.950  17.269  -4.286  0.00  0.00    -0.485 OA
ATOM     14  C   UNL     1       3.174  17.984  -4.444  0.00  0.00    +0.111 C 
ATOM     15  C   UNL     1       2.886  19.475  -4.621  0.00  0.00    +0.048 C 
ATOM     16  C   UNL     1       2.175  20.010  -3.376  0.00  0.00    +0.004 C 
ATOM     17  C   UNL     1       3.066  19.801  -2.150  0.00  0.00    +0.000 C 
ATOM     18  C   UNL     1       3.347  18.308  -1.973  0.00  0.00    +0.004 C 
ATOM     19  C   UNL     1       4.060  17.772  -3.216  0.00  0.00    +0.048 C 
ATOM     20  C   UNL     1       3.893  17.451  -5.689  0.00  0.00    +0.053 C 
ATOM     21  C   UNL     1       4.277  15.992  -5.432  0.00  0.00    +0.043 C 
ENDROOT
BRANCH  12  22
ATOM     22  C   UNL     1       0.878   9.529  -3.967  0.00  0.00    +0.138 C 
BRANCH  22  23
ATOM     23  C   UNL     1       1.471   8.996  -2.688  0.00  0.00    +0.218 C 
ATOM     24  O   UNL     1       1.899   9.764  -1.853  0.00  0.00    -0.275 OA
ATOM     25  N   UNL     1       1.526   7.667  -2.473  0.00  0.00    -0.315 N 
ATOM     26  H   UNL     1       1.183   7.053  -3.141  0.00  0.00    +0.149 HD
BRANCH  25  27
ATOM     27  C   UNL     1       2.102   7.150  -1.229  0.00  0.00    +0.107 C 
BRANCH  27  28
ATOM     28  C   UNL     1       2.043   5.621  -1.237  0.00  0.00    +0.006 C 
ATOM     29  C   UNL     1       2.755   5.077   0.003  0.00  0.00    +0.006 C 
ATOM     30  C   UNL     1       2.696   3.548  -0.005  0.00  0.00    +0.015 C 
ATOM     31  C   UNL     1       1.235   3.094   0.007  0.00  0.00    +0.102 C 
ATOM     32  C   UNL     1       0.522   3.639  -1.233  0.00  0.00    +0.015 C 
ATOM     33  C   UNL     1       0.582   5.167  -1.225  0.00  0.00    +0.006 C 
BRANCH  31  34
ATOM     34  C   UNL     1       1.177   1.588  -0.001  0.00  0.00    +0.359 C 
ATOM     35  O   UNL     1       2.199   0.944  -0.014  0.00  0.00    -0.246 OA
ATOM     36  O   UNL     1      -0.011   0.963   0.007  0.00  0.00    -0.246 OA
ENDBRANCH  31  34
ENDBRANCH  27  28
ENDBRANCH  25  27
ENDBRANCH  22  23
ENDBRANCH  12  22
TORSDOF 5
