REMARK  Name = ZINC39710361
REMARK  11 active torsions:
REMARK  status: ('A' for Active; 'I' for Inactive)
REMARK    1  A    between atoms: C_1  and  C_2
REMARK    2  A    between atoms: C_9  and  C_14
REMARK    3  A    between atoms: C_14  and  C_16
REMARK    4  A    between atoms: C_14  and  N_27
REMARK    5  A    between atoms: N_21  and  C_22
REMARK    6  A    between atoms: N_27  and  C_28
REMARK    7  A    between atoms: N_27  and  C_37
REMARK    8  A    between atoms: C_28  and  C_29
REMARK    9  A    between atoms: C_32  and  O_35
REMARK   10  A    between atoms: O_35  and  C_36
REMARK   11  A    between atoms: C_37  and  C_38
REMARK                            x       y       z     vdW  Elec       q    Type
REMARK                         _______ _______ _______ _____ _____    ______ ____
ROOT
ATOM      1  C   UNL     1       1.938  -4.847   2.812  0.00  0.00    -0.009 C 
ENDROOT
BRANCH   1  10
ATOM      2  C   UNL     1      -4.950  -3.364   3.981  0.00  0.00    +0.044 C 
ATOM      3  C   UNL     1      -3.541  -2.996   3.593  0.00  0.00    -0.050 A 
ATOM      4  C   UNL     1      -3.128  -1.668   3.698  0.00  0.00    +0.005 A 
ATOM      5  C   UNL     1      -1.875  -1.261   3.367  0.00  0.00    +0.024 A 
ATOM      6  C   UNL     1      -0.925  -2.186   2.896  0.00  0.00    +0.040 A 
ATOM      7  N   UNL     1       0.302  -1.776   2.575  0.00  0.00    -0.285 N 
ATOM      8  C   UNL     1       1.241  -2.591   2.126  0.00  0.00    +0.223 C 
ATOM      9  O   UNL     1       2.344  -2.158   1.849  0.00  0.00    -0.275 OA
ATOM     10  C   UNL     1       0.940  -4.063   1.958  0.00  0.00    +0.088 C 
ATOM     11  C   UNL     1      -0.454  -4.535   2.322  0.00  0.00    -0.006 C 
ATOM     12  C   UNL     1      -1.334  -3.596   2.774  0.00  0.00    -0.007 A 
ATOM     13  C   UNL     1      -2.698  -3.966   3.153  0.00  0.00    +0.012 A 
ATOM     14  H   UNL     1       0.515  -0.835   2.675  0.00  0.00    +0.155 HD
ENDBRANCH   1  10
BRANCH   1  15
ATOM     15  C   UNL     1       1.749  -4.477   4.285  0.00  0.00    +0.205 C 
ATOM     16  N   UNL     1       0.329  -4.549   4.654  0.00  0.00    -0.152 NA
ATOM     17  N   UNL     1      -0.046  -3.432   5.017  0.00  0.00    -0.070 NA
ATOM     18  N   UNL     1       0.968  -2.476   4.964  0.00  0.00    -0.179 N 
ATOM     19  N   UNL     1       2.123  -3.066   4.514  0.00  0.00    -0.185 NA
ATOM     20  H   UNL     1       0.872  -1.542   5.208  0.00  0.00    +0.191 HD
BRANCH  19  21
ATOM     21  C   UNL     1       3.195  -2.961   5.514  0.00  0.00    +0.080 C 
ATOM     22  C   UNL     1       2.703  -3.500   6.873  0.00  0.00    +0.021 C 
ATOM     23  C   UNL     1       3.361  -2.561   7.915  0.00  0.00    +0.002 C 
ATOM     24  C   UNL     1       3.288  -1.177   7.222  0.00  0.00    +0.002 C 
ATOM     25  C   UNL     1       3.566  -1.484   5.736  0.00  0.00    +0.021 C 
ENDBRANCH  19  21
ENDBRANCH   1  15
BRANCH   1  26
ATOM     26  N   UNL     1       1.709  -6.287   2.636  0.00  0.00    +0.389 N 
ATOM     27  H   UNL     1       0.803  -6.532   3.007  0.00  0.00    -0.081 HD
BRANCH  26  28
ATOM     28  C   UNL     1       2.750  -7.040   3.349  0.00  0.00    -0.042 C 
BRANCH  28  29
ATOM     29  C   UNL     1       2.405  -8.507   3.338  0.00  0.00    -0.064 A 
ATOM     30  C   UNL     1       1.532  -9.017   4.281  0.00  0.00    +0.005 A 
ATOM     31  C   UNL     1       1.215 -10.362   4.274  0.00  0.00    +0.046 A 
ATOM     32  C   UNL     1       1.773 -11.200   3.320  0.00  0.00    +0.120 A 
ATOM     33  C   UNL     1       2.648 -10.685   2.375  0.00  0.00    +0.046 A 
ATOM     34  C   UNL     1       2.958  -9.339   2.383  0.00  0.00    +0.005 A 
BRANCH  32  35
ATOM     35  O   UNL     1       1.463 -12.523   3.311  0.00  0.00    -0.495 OA
ATOM     36  C   UNL     1       2.075 -13.326   2.299  0.00  0.00    +0.277 C 
ENDBRANCH  32  35
ENDBRANCH  28  29
ENDBRANCH  26  28
BRANCH  26  37
ATOM     37  C   UNL     1       1.757  -6.619   1.206  0.00  0.00    -0.046 C 
BRANCH  37  38
ATOM     38  C   UNL     1       3.027  -6.030   0.588  0.00  0.00    +0.102 C 
ATOM     39  C   UNL     1       2.999  -6.216  -0.944  0.00  0.00    +0.032 C 
ATOM     40  C   UNL     1       4.478  -6.568  -1.260  0.00  0.00    +0.030 C 
ATOM     41  C   UNL     1       4.867  -7.371   0.007  0.00  0.00    +0.160 C 
ATOM     42  O   UNL     1       4.177  -6.721   1.089  0.00  0.00    -0.378 OA
ENDBRANCH  37  38
ENDBRANCH  26  37
ENDBRANCH   1  26
TORSDOF 9
