REMARK  Name = ZINC63570031
REMARK  7 active torsions:
REMARK  status: ('A' for Active; 'I' for Inactive)
REMARK    1  A    between atoms: C_1  and  C_2
REMARK    2  A    between atoms: C_5  and  C_9
REMARK    3  A    between atoms: C_7  and  C_8
REMARK    4  A    between atoms: C_11  and  C_15
REMARK    5  A    between atoms: N_17  and  C_18
REMARK    6  A    between atoms: C_18  and  C_19
REMARK    7  A    between atoms: C_22  and  C_24
REMARK                            x       y       z     vdW  Elec       q    Type
REMARK                         _______ _______ _______ _____ _____    ______ ____
ROOT
ATOM      1  C   UNL     1       0.061  -4.256  -0.021  0.00  0.00    +0.092 C 
ATOM      2  C   UNL     1       0.071  -5.018  -1.132  0.00  0.00    +0.040 C 
ATOM      3  C   UNL     1       0.090  -6.439  -0.597  0.00  0.00    +0.238 C 
ATOM      4  N   UNL     1       0.088  -6.249   0.863  0.00  0.00    -0.170 NA
ATOM      5  N   UNL     1       0.077  -5.037   1.090  0.00  0.00    -0.153 NA
ENDROOT
BRANCH   1  10
ATOM      6  C   UNL     1      -0.018   1.503   0.010  0.00  0.00    +0.044 C 
ATOM      7  C   UNL     1       0.002  -0.004   0.002  0.00  0.00    -0.047 A 
ATOM      8  C   UNL     1       0.006  -0.687  -1.201  0.00  0.00    +0.004 A 
ATOM      9  C   UNL     1       0.025  -2.066  -1.215  0.00  0.00    +0.010 A 
ATOM     10  C   UNL     1       0.041  -2.772  -0.013  0.00  0.00    +0.002 A 
ATOM     11  C   UNL     1       0.037  -2.080   1.196  0.00  0.00    +0.013 A 
ATOM     12  C   UNL     1       0.023  -0.699   1.197  0.00  0.00    -0.047 A 
ATOM     13  C   UNL     1       0.025   0.051   2.504  0.00  0.00    +0.044 C 
ENDBRANCH   1  10
BRANCH   3  14
ATOM     14  C   UNL     1      -1.138  -7.191  -1.041  0.00  0.00    +0.244 C 
ATOM     15  O   UNL     1      -2.072  -7.329  -0.281  0.00  0.00    -0.273 OA
ATOM     16  N   UNL     1      -1.197  -7.711  -2.283  0.00  0.00    -0.306 N 
ATOM     17  H   UNL     1      -0.450  -7.601  -2.892  0.00  0.00    +0.149 HD
BRANCH  16  18
ATOM     18  C   UNL     1      -2.391  -8.443  -2.715  0.00  0.00    +0.178 C 
BRANCH  18  19
ATOM     19  C   UNL     1      -2.205  -8.916  -4.133  0.00  0.00    +0.122 A 
ATOM     20  C   UNL     1      -1.676 -10.096  -4.506  0.00  0.00    +0.046 A 
ATOM     21  C   UNL     1      -1.692 -10.124  -5.919  0.00  0.00    +0.045 A 
ATOM     22  C   UNL     1      -2.229  -8.960  -6.326  0.00  0.00    +0.102 A 
ATOM     23  O   UNL     1      -2.544  -8.235  -5.240  0.00  0.00    -0.463 OA
ATOM     24  C   UNL     1      -2.448  -8.543  -7.758  0.00  0.00    +0.086 C 
ENDBRANCH  18  19
ENDBRANCH  16  18
ENDBRANCH   3  14
TORSDOF 4
