REMARK  Name = ZINC60452368
REMARK  8 active torsions:
REMARK  status: ('A' for Active; 'I' for Inactive)
REMARK    1  A    between atoms: C_1  and  C_2
REMARK    2  A    between atoms: C_6  and  C_8
REMARK    3  A    between atoms: C_6  and  N_24
REMARK    4  A    between atoms: C_8  and  N_9
REMARK    5  A    between atoms: C_13  and  S_16
REMARK    6  A    between atoms: S_16  and  N_19
REMARK    7  A    between atoms: N_24  and  C_25
REMARK    8  A    between atoms: N_24  and  C_26
REMARK                            x       y       z     vdW  Elec       q    Type
REMARK                         _______ _______ _______ _____ _____    ______ ____
ROOT
ATOM      1  N   UNL     1       1.137  -4.117   2.366  0.00  0.00    -0.330 N 
ATOM      2  C   UNL     1       1.600  -4.917   3.404  0.00  0.00    +0.119 A 
ATOM      3  C   UNL     1       2.288  -4.338   4.466  0.00  0.00    +0.045 A 
ATOM      4  C   UNL     1       2.744  -5.145   5.493  0.00  0.00    +0.033 A 
ATOM      5  C   UNL     1       2.495  -6.510   5.423  0.00  0.00    +0.124 A 
ATOM      6  C   UNL     1       1.806  -7.017   4.339  0.00  0.00    +0.141 A 
ATOM      7  N   UNL     1       1.379  -6.222   3.377  0.00  0.00    -0.239 NA
ATOM      8  H   UNL     1       0.653  -4.516   1.626  0.00  0.00    +0.147 HD
ENDROOT
BRANCH   5   9
ATOM      9  S   UNL     1       3.054  -7.583   6.703  0.00  0.00    +0.062 S 
ATOM     10  O   UNL     1       3.169  -8.877   6.127  0.00  0.00    -0.153 OA
ATOM     11  O   UNL     1       4.148  -6.930   7.332  0.00  0.00    -0.153 OA
BRANCH   9  12
ATOM     12  N   UNL     1       1.844  -7.673   7.830  0.00  0.00    -0.177 NA
ATOM     13  C   UNL     1       1.684  -6.780   8.988  0.00  0.00    +0.109 C 
ATOM     14  C   UNL     1       0.439  -7.258   9.765  0.00  0.00    +0.018 C 
ATOM     15  C   UNL     1       0.295  -8.736   9.318  0.00  0.00    +0.018 C 
ATOM     16  C   UNL     1       0.745  -8.655   7.835  0.00  0.00    +0.109 C 
ENDBRANCH   9  12
ENDBRANCH   5   9
BRANCH   1  17
ATOM     17  C   UNL     1       1.379  -2.672   2.390  0.00  0.00    +0.091 C 
BRANCH  17  23
ATOM     18  C   UNL     1       1.171  -2.494  -2.599  0.00  0.00    +0.007 C 
ATOM     19  C   UNL     1       0.584  -1.931  -1.304  0.00  0.00    -0.015 C 
ATOM     20  C   UNL     1      -0.916  -2.227  -1.252  0.00  0.00    +0.003 C 
ATOM     21  C   UNL     1      -1.503  -1.663   0.044  0.00  0.00    -0.001 C 
ATOM     22  C   UNL     1      -0.812  -2.316   1.243  0.00  0.00    -0.010 C 
ATOM     23  C   UNL     1       0.688  -2.020   1.191  0.00  0.00    -0.050 C 
ATOM     24  C   UNL     1       1.275  -2.583  -0.104  0.00  0.00    -0.007 C 
BRANCH  23  25
ATOM     25  N   UNL     1       0.902  -0.567   1.234  0.00  0.00    +0.381 N 
ATOM     26  C   UNL     1       0.316  -0.022   2.466  0.00  0.00    -0.096 C 
ATOM     27  C   UNL     1       2.343  -0.283   1.211  0.00  0.00    -0.096 C 
ATOM     28  H   UNL     1       0.462  -0.138   0.434  0.00  0.00    -0.082 HD
ENDBRANCH  23  25
ENDBRANCH  17  23
ENDBRANCH   1  17
TORSDOF 5
