REMARK  Name = ZINC15023105
REMARK  12 active torsions:
REMARK  status: ('A' for Active; 'I' for Inactive)
REMARK    1  A    between atoms: C_1  and  C_2
REMARK    2  A    between atoms: C_5  and  O_33
REMARK    3  A    between atoms: C_6  and  N_8
REMARK    4  A    between atoms: C_9  and  C_11
REMARK    5  A    between atoms: C_11  and  S_12
REMARK    6  A    between atoms: S_12  and  C_13
REMARK    7  A    between atoms: C_20  and  C_29
REMARK    8  A    between atoms: C_21  and  N_22
REMARK    9  A    between atoms: C_23  and  C_25
REMARK   10  A    between atoms: C_29  and  O_31
REMARK   11  A    between atoms: O_31  and  C_32
REMARK   12  A    between atoms: O_33  and  C_34
REMARK                            x       y       z     vdW  Elec       q    Type
REMARK                         _______ _______ _______ _____ _____    ______ ____
ROOT
ATOM      1  C   UNL     1      -5.046   0.151   1.190  0.00  0.00    +0.009 A 
ATOM      2  C   UNL     1      -3.942  -0.704   1.232  0.00  0.00    +0.015 A 
ATOM      3  C   UNL     1      -2.702  -0.275   0.890  0.00  0.00    +0.012 A 
ATOM      4  C   UNL     1      -2.483   1.064   0.476  0.00  0.00    +0.011 A 
ATOM      5  C   UNL     1      -3.613   1.913   0.447  0.00  0.00    +0.023 A 
ATOM      6  C   UNL     1      -4.870   1.472   0.802  0.00  0.00    +0.030 A 
ATOM      7  S   UNL     1      -2.971   3.470  -0.113  0.00  0.00    -0.080 S 
ATOM      8  C   UNL     1      -1.257   3.019  -0.297  0.00  0.00    +0.118 A 
ATOM      9  C   UNL     1      -1.234   1.692   0.076  0.00  0.00    +0.063 A 
ENDROOT
BRANCH   9  10
ATOM     10  N   UNL     1      -0.045   0.969   0.065  0.00  0.00    -0.276 N 
ATOM     11  C   UNL     1       0.184   0.036   1.010  0.00  0.00    +0.322 C 
ATOM     12  O   UNL     1      -0.608  -0.119   1.915  0.00  0.00    -0.266 OA
ATOM     13  H   UNL     1       0.620   1.139  -0.620  0.00  0.00    +0.155 HD
BRANCH  11  14
ATOM     14  C   UNL     1       1.427  -0.814   0.943  0.00  0.00    +0.470 C 
ATOM     15  F   UNL     1       1.444  -1.702   2.024  0.00  0.00    -0.162 F 
ATOM     16  F   UNL     1       1.433  -1.537  -0.255  0.00  0.00    -0.162 F 
ATOM     17  F   UNL     1       2.558   0.007   0.997  0.00  0.00    -0.162 F 
ENDBRANCH  11  14
ENDBRANCH   9  10
BRANCH   8  18
ATOM     18  C   UNL     1      -0.177   3.829  -0.725  0.00  0.00    +0.347 C 
ATOM     19  O   UNL     1       0.925   3.339  -0.884  0.00  0.00    -0.244 OA
BRANCH  18  20
ATOM     20  O   UNL     1      -0.371   5.144  -0.957  0.00  0.00    -0.464 OA
ATOM     21  C   UNL     1       0.763   5.901  -1.386  0.00  0.00    +0.280 C 
ENDBRANCH  18  20
ENDBRANCH   8  18
BRANCH   1  22
ATOM     22  S   UNL     1      -6.644  -0.438   1.640  0.00  0.00    -0.116 S 
BRANCH  22  23
ATOM     23  C   UNL     1      -6.365  -2.177   2.076  0.00  0.00    +0.170 C 
BRANCH  23  25
ATOM     24  N   UNL     1      -7.706  -4.104   2.854  0.00  0.00    -0.282 N 
ATOM     25  C   UNL     1      -7.670  -2.808   2.486  0.00  0.00    +0.227 C 
ATOM     26  O   UNL     1      -8.689  -2.150   2.484  0.00  0.00    -0.275 OA
ATOM     27  H   UNL     1      -6.908  -4.651   2.781  0.00  0.00    +0.155 HD
BRANCH  24  33
ATOM     28  C   UNL     1     -12.076  -3.514   5.028  0.00  0.00    +0.044 C 
ATOM     29  C   UNL     1     -11.031  -4.400   4.401  0.00  0.00    -0.048 A 
ATOM     30  C   UNL     1     -11.246  -5.762   4.309  0.00  0.00    +0.007 A 
ATOM     31  C   UNL     1     -10.290  -6.580   3.735  0.00  0.00    +0.048 A 
ATOM     32  C   UNL     1      -9.113  -6.034   3.250  0.00  0.00    +0.141 A 
ATOM     33  C   UNL     1      -8.895  -4.662   3.342  0.00  0.00    +0.076 A 
ATOM     34  C   UNL     1      -9.857  -3.848   3.924  0.00  0.00    +0.030 A 
BRANCH  32  35
ATOM     35  O   UNL     1      -8.171  -6.837   2.686  0.00  0.00    -0.493 OA
ATOM     36  C   UNL     1      -8.463  -8.235   2.625  0.00  0.00    +0.277 C 
ENDBRANCH  32  35
ENDBRANCH  24  33
ENDBRANCH  23  25
ENDBRANCH  22  23
ENDBRANCH   1  22
TORSDOF 9
