REMARK  Name = ZINC09347796
REMARK  3 active torsions:
REMARK  status: ('A' for Active; 'I' for Inactive)
REMARK    1  A    between atoms: C_1  and  C_2
REMARK    2  A    between atoms: C_2  and  C_3
REMARK    3  A    between atoms: N_21  and  C_24
REMARK                            x       y       z     vdW  Elec       q    Type
REMARK                         _______ _______ _______ _____ _____    ______ ____
ROOT
ATOM      1  C   UNL     1      -0.800   3.106   1.495  0.00  0.00    -0.047 A 
ATOM      2  C   UNL     1       0.202   3.820   2.127  0.00  0.00    +0.005 A 
ATOM      3  C   UNL     1       0.191   5.199   2.111  0.00  0.00    +0.024 A 
ATOM      4  C   UNL     1      -0.837   5.884   1.467  0.00  0.00    +0.036 A 
ATOM      5  C   UNL     1      -1.842   5.155   0.840  0.00  0.00    -0.027 A 
ATOM      6  C   UNL     1      -1.825   3.779   0.854  0.00  0.00    +0.008 A 
ATOM      7  C   UNL     1      -2.781   6.171   0.250  0.00  0.00    +0.053 C 
ATOM      8  C   UNL     1      -4.199   6.012   0.808  0.00  0.00    +0.089 C 
ATOM      9  C   UNL     1      -5.133   6.343  -0.387  0.00  0.00    +0.074 C 
ATOM     10  C   UNL     1      -4.188   6.670  -1.558  0.00  0.00    -0.054 C 
ATOM     11  C   UNL     1      -3.087   4.587  -1.551  0.00  0.00    -0.076 C 
ATOM     12  C   UNL     1      -3.943   4.590  -2.833  0.00  0.00    -0.020 C 
ATOM     13  C   UNL     1      -4.691   5.965  -2.831  0.00  0.00    -0.016 C 
ATOM     14  C   UNL     1      -5.827   5.008  -0.649  0.00  0.00    +0.228 C 
ATOM     15  O   UNL     1      -6.651   4.807  -1.516  0.00  0.00    -0.275 OA
ATOM     16  N   UNL     1      -5.389   4.097   0.227  0.00  0.00    -0.210 N 
ATOM     17  C   UNL     1      -4.475   4.552   1.092  0.00  0.00    +0.229 C 
ATOM     18  O   UNL     1      -3.949   3.897   1.966  0.00  0.00    -0.275 OA
ATOM     19  C   UNL     1      -2.192   7.506   0.619  0.00  0.00    +0.212 C 
ATOM     20  O   UNL     1      -2.639   8.597   0.338  0.00  0.00    -0.277 OA
ATOM     21  N   UNL     1      -1.070   7.253   1.321  0.00  0.00    -0.286 N 
ATOM     22  H   UNL     1      -0.491   7.943   1.682  0.00  0.00    +0.155 HD
ATOM     23  N   UNL     1      -2.952   6.015  -1.198  0.00  0.00    +0.395 N 
ATOM     24  H   UNL     1      -2.157   6.431  -1.697  0.00  0.00    -0.079 HD
ENDROOT
BRANCH  16  25
ATOM     25  C   UNL     1      -5.851   2.773   0.239  0.00  0.00    +0.044 A 
ATOM     26  C   UNL     1      -4.998   1.736  -0.112  0.00  0.00    +0.025 A 
ATOM     27  C   UNL     1      -5.454   0.432  -0.095  0.00  0.00    +0.022 A 
ATOM     28  C   UNL     1      -6.763   0.160   0.263  0.00  0.00    +0.041 A 
ATOM     29  C   UNL     1      -7.617   1.193   0.608  0.00  0.00    +0.022 A 
ATOM     30  C   UNL     1      -7.164   2.498   0.597  0.00  0.00    +0.025 A 
ATOM     31 CL   UNL     1      -7.335  -1.479   0.277  0.00  0.00    -0.084 Cl
ENDBRANCH  16  25
BRANCH   1  33
ATOM     32  C   UNL     1      -0.008   1.087   0.293  0.00  0.00    +0.009 C 
ATOM     33  C   UNL     1      -0.779   1.599   1.511  0.00  0.00    +0.032 C 
ENDBRANCH   1  33
TORSDOF 2
