REMARK  Name = ZINC39654346
REMARK  13 active torsions:
REMARK  status: ('A' for Active; 'I' for Inactive)
REMARK    1  A    between atoms: C_1  and  C_2
REMARK    2  A    between atoms: C_2  and  C_3
REMARK    3  A    between atoms: C_6  and  C_9
REMARK    4  A    between atoms: C_9  and  C_10
REMARK    5  A    between atoms: C_10  and  N_11
REMARK    6  A    between atoms: C_12  and  C_14
REMARK    7  A    between atoms: C_25  and  C_27
REMARK    8  A    between atoms: C_29  and  O_37
REMARK    9  A    between atoms: C_30  and  O_35
REMARK   10  A    between atoms: C_31  and  O_33
REMARK   11  A    between atoms: O_33  and  C_34
REMARK   12  A    between atoms: O_35  and  C_36
REMARK   13  A    between atoms: O_37  and  C_38
REMARK                            x       y       z     vdW  Elec       q    Type
REMARK                         _______ _______ _______ _____ _____    ______ ____
ROOT
ATOM      1  C   UNL     1       4.564  -0.605   8.876  0.00  0.00    +0.100 C 
ATOM      2  C   UNL     1       3.859  -1.541   9.884  0.00  0.00    +0.121 C 
ATOM      3  N   UNL     1       4.408  -1.151  11.204  0.00  0.00    -0.296 N 
ATOM      4  C   UNL     1       4.508   0.327  11.140  0.00  0.00    +0.115 C 
ATOM      5  C   UNL     1       4.987   0.620   9.704  0.00  0.00    -0.004 C 
ATOM      6  C   UNL     1       4.310   1.878   9.169  0.00  0.00    -0.010 C 
ATOM      7  C   UNL     1       4.792   3.091   9.971  0.00  0.00    -0.082 C 
ATOM      8  N   UNL     1       6.250   3.208   9.856  0.00  0.00    +0.379 N 
ATOM      9  C   UNL     1       6.896   2.035  10.457  0.00  0.00    -0.082 C 
ATOM     10  C   UNL     1       6.504   0.778   9.676  0.00  0.00    -0.010 C 
ATOM     11  C   UNL     1       4.742  -1.958  12.231  0.00  0.00    +0.247 C 
ATOM     12  O   UNL     1       4.725  -3.165  12.086  0.00  0.00    -0.270 OA
ATOM     13  H   UNL     1       6.505   3.269   8.882  0.00  0.00    -0.086 HD
ATOM     14  H   UNL     1       6.558   4.042  10.334  0.00  0.00    -0.086 HD
ENDROOT
BRANCH  11  15
ATOM     15  C   UNL     1       5.130  -1.376  13.531  0.00  0.00    +0.044 A 
ATOM     16  C   UNL     1       4.747  -0.072  13.856  0.00  0.00    +0.062 A 
ATOM     17  C   UNL     1       5.111   0.470  15.074  0.00  0.00    +0.166 A 
ATOM     18  C   UNL     1       5.859  -0.281  15.977  0.00  0.00    +0.204 A 
ATOM     19  C   UNL     1       6.242  -1.580  15.655  0.00  0.00    +0.166 A 
ATOM     20  C   UNL     1       5.875  -2.130  14.441  0.00  0.00    +0.062 A 
BRANCH  19  21
ATOM     21  O   UNL     1       6.972  -2.312  16.539  0.00  0.00    -0.491 OA
ATOM     22  C   UNL     1       7.331  -3.637  16.144  0.00  0.00    +0.277 C 
ENDBRANCH  19  21
BRANCH  18  23
ATOM     23  O   UNL     1       6.215   0.255  17.173  0.00  0.00    -0.488 OA
ATOM     24  C   UNL     1       5.312   0.066  18.264  0.00  0.00    +0.277 C 
ENDBRANCH  18  23
BRANCH  17  25
ATOM     25  O   UNL     1       4.739   1.740  15.391  0.00  0.00    -0.491 OA
ATOM     26  C   UNL     1       3.973   2.453  14.418  0.00  0.00    +0.277 C 
ENDBRANCH  17  25
ENDBRANCH  11  15
BRANCH   1  28
ATOM     27  N   UNL     1       4.074   0.075   6.549  0.00  0.00    -0.315 N 
ATOM     28  C   UNL     1       3.609  -0.196   7.784  0.00  0.00    +0.218 C 
ATOM     29  O   UNL     1       2.422  -0.112   8.017  0.00  0.00    -0.275 OA
ATOM     30  H   UNL     1       5.024   0.008   6.363  0.00  0.00    +0.149 HD
BRANCH  27  31
ATOM     31  C   UNL     1       3.146   0.473   5.488  0.00  0.00    +0.109 C 
BRANCH  31  32
ATOM     32  C   UNL     1       3.926   0.721   4.195  0.00  0.00    +0.054 C 
BRANCH  32  36
ATOM     33  C   UNL     1       1.222   1.881   1.098  0.00  0.00    -0.048 A 
ATOM     34  C   UNL     1       1.801   2.842   1.906  0.00  0.00    +0.004 A 
ATOM     35  C   UNL     1       2.676   2.466   2.908  0.00  0.00    +0.004 A 
ATOM     36  C   UNL     1       2.972   1.130   3.103  0.00  0.00    -0.046 A 
ATOM     37  C   UNL     1       2.392   0.169   2.296  0.00  0.00    +0.004 A 
ATOM     38  C   UNL     1       1.514   0.544   1.296  0.00  0.00    +0.004 A 
BRANCH  33  40
ATOM     39  C   UNL     1      -1.158   2.324   0.560  0.00  0.00    +0.009 C 
ATOM     40  C   UNL     1       0.268   2.290   0.006  0.00  0.00    +0.032 C 
ENDBRANCH  33  40
ENDBRANCH  32  36
ENDBRANCH  31  32
ENDBRANCH  27  31
ENDBRANCH   1  28
TORSDOF 9
