REMARK  Name = ZINC12853011
REMARK  12 active torsions:
REMARK  status: ('A' for Active; 'I' for Inactive)
REMARK    1  A    between atoms: C_1  and  C_2
REMARK    2  A    between atoms: C_2  and  C_3
REMARK    3  A    between atoms: C_3  and  N_4
REMARK    4  A    between atoms: N_4  and  C_5
REMARK    5  A    between atoms: C_5  and  C_6
REMARK    6  A    between atoms: C_19  and  C_21
REMARK    7  A    between atoms: C_22  and  C_35
REMARK    8  A    between atoms: C_24  and  C_34
REMARK    9  A    between atoms: C_26  and  C_30
REMARK   10  A    between atoms: C_30  and  C_31
REMARK   11  A    between atoms: C_30  and  C_32
REMARK   12  A    between atoms: C_30  and  C_33
REMARK                            x       y       z     vdW  Elec       q    Type
REMARK                         _______ _______ _______ _____ _____    ______ ____
ROOT
ATOM      1  N   UNL     1      -0.872  -0.362  -0.679  0.00  0.00    -0.290 N 
ATOM      2  C   UNL     1       0.418  -0.663  -0.924  0.00  0.00    +0.254 C 
ATOM      3  O   UNL     1       0.761  -1.825  -1.034  0.00  0.00    -0.269 OA
ENDROOT
BRANCH   2   4
ATOM      4  C   UNL     1       1.412   0.412  -1.057  0.00  0.00    +0.080 A 
ATOM      5  C   UNL     1       2.761   0.307  -1.185  0.00  0.00    -0.020 A 
ATOM      6  C   UNL     1       3.545   1.466  -1.300  0.00  0.00    +0.032 A 
ATOM      7  C   UNL     1       4.949   1.591  -1.442  0.00  0.00    +0.050 A 
ATOM      8  N   UNL     1       5.484   2.788  -1.534  0.00  0.00    -0.236 NA
ATOM      9  C   UNL     1       4.758   3.893  -1.500  0.00  0.00    +0.136 A 
ATOM     10  N   UNL     1       3.446   3.849  -1.371  0.00  0.00    -0.224 NA
ATOM     11  C   UNL     1       2.829   2.692  -1.272  0.00  0.00    +0.113 A 
ATOM     12  S   UNL     1       1.142   2.176  -1.090  0.00  0.00    -0.064 S 
ATOM     13  C   UNL     1       5.821   0.362  -1.485  0.00  0.00    +0.066 C 
ATOM     14  C   UNL     1       3.414  -1.051  -1.203  0.00  0.00    +0.046 C 
BRANCH   9  15
ATOM     15  C   UNL     1       5.445   5.230  -1.612  0.00  0.00    +0.022 C 
ATOM     16  C   UNL     1       4.400   6.346  -1.548  0.00  0.00    +0.019 C 
ATOM     17  C   UNL     1       6.436   5.393  -0.458  0.00  0.00    +0.019 C 
ATOM     18  C   UNL     1       6.194   5.309  -2.944  0.00  0.00    +0.019 C 
ENDBRANCH   9  15
ENDBRANCH   2   4
BRANCH   1  19
ATOM     19  C   UNL     1      -1.881  -1.424  -0.660  0.00  0.00    +0.108 C 
BRANCH  19  21
ATOM     20  C   UNL     1      -3.147  -3.009   0.799  0.00  0.00    +0.005 C 
ATOM     21  C   UNL     1      -2.093  -1.900   0.779  0.00  0.00    +0.016 C 
ENDBRANCH  19  21
ENDBRANCH   1  19
BRANCH   1  22
ATOM     22  C   UNL     1      -1.266   1.027  -0.433  0.00  0.00    +0.182 C 
BRANCH  22  23
ATOM     23  C   UNL     1      -1.507   1.722  -1.748  0.00  0.00    +0.128 A 
ATOM     24  N   UNL     1      -1.884   3.027  -1.729  0.00  0.00    -0.309 N 
ATOM     25  H   UNL     1      -1.990   3.484  -0.879  0.00  0.00    +0.170 HD
ATOM     26  C   UNL     1      -2.112   3.696  -2.883  0.00  0.00    +0.259 A 
ATOM     27  O   UNL     1      -2.450   4.866  -2.879  0.00  0.00    -0.267 OA
ATOM     28  C   UNL     1      -1.936   2.956  -4.140  0.00  0.00    +0.065 A 
ATOM     29  C   UNL     1      -2.146   3.552  -5.382  0.00  0.00    +0.017 A 
ATOM     30  C   UNL     1      -1.969   2.819  -6.523  0.00  0.00    +0.021 A 
ATOM     31  C   UNL     1      -1.581   1.486  -6.457  0.00  0.00    +0.043 A 
ATOM     32  C   UNL     1      -1.367   0.873  -5.241  0.00  0.00    +0.048 A 
ATOM     33  C   UNL     1      -1.543   1.601  -4.063  0.00  0.00    +0.080 A 
ATOM     34  N   UNL     1      -1.339   1.044  -2.843  0.00  0.00    -0.232 NA
ATOM     35 CL   UNL     1      -1.364   0.582  -7.923  0.00  0.00    -0.083 Cl
ENDBRANCH  22  23
ENDBRANCH   1  22
TORSDOF 6
