REMARK  Name = ZINC09046604
REMARK  20 active torsions:
REMARK  status: ('A' for Active; 'I' for Inactive)
REMARK    1  A    between atoms: C_1  and  C_2
REMARK    2  A    between atoms: C_2  and  N_78
REMARK    3  A    between atoms: C_3  and  C_4
REMARK    4  A    between atoms: C_3  and  N_78
REMARK    5  A    between atoms: C_5  and  C_6
REMARK    6  A    between atoms: C_5  and  N_78
REMARK    7  A    between atoms: C_6  and  C_7
REMARK    8  A    between atoms: C_7  and  N_8
REMARK    9  A    between atoms: C_9  and  C_28
REMARK   10  A    between atoms: C_12  and  C_13
REMARK   11  A    between atoms: C_12  and  O_23
REMARK   12  A    between atoms: C_16  and  O_19
REMARK   13  A    between atoms: O_19  and  C_20
REMARK   14  A    between atoms: C_20  and  C_21
REMARK   15  A    between atoms: C_20  and  C_22
REMARK   16  A    between atoms: C_31  and  O_36
REMARK   17  A    between atoms: C_32  and  O_34
REMARK   18  A    between atoms: O_34  and  C_35
REMARK   19  A    between atoms: O_36  and  C_37
REMARK   20  A    between atoms: C_37  and  C_38
REMARK                            x       y       z     vdW  Elec       q    Type
REMARK                         _______ _______ _______ _____ _____    ______ ____
ROOT
ATOM      1  N   UNL     1      -2.945  -4.601   0.882  0.00  0.00    -0.284 N 
ATOM      2  C   UNL     1      -3.218  -5.290   2.146  0.00  0.00    +0.145 C 
ATOM      3  C   UNL     1      -3.170  -6.772   1.851  0.00  0.00    +0.071 C 
ATOM      4  C   UNL     1      -3.369  -7.804   2.747  0.00  0.00    +0.133 C 
ATOM      5  C   UNL     1      -2.884  -6.888   0.482  0.00  0.00    +0.249 C 
ATOM      6  O   UNL     1      -2.764  -7.930  -0.137  0.00  0.00    -0.282 OA
ATOM      7  C   UNL     1      -2.757  -5.517  -0.083  0.00  0.00    +0.288 C 
ATOM      8  O   UNL     1      -2.517  -5.264  -1.246  0.00  0.00    -0.266 OA
ENDROOT
BRANCH   4   9
ATOM      9  C   UNL     1      -3.442  -9.192   2.266  0.00  0.00    +0.017 A 
ATOM     10  C   UNL     1      -4.300  -9.526   1.212  0.00  0.00    +0.015 A 
ATOM     11  C   UNL     1      -4.359 -10.825   0.761  0.00  0.00    +0.046 A 
ATOM     12  C   UNL     1      -3.578 -11.808   1.360  0.00  0.00    +0.121 A 
ATOM     13  C   UNL     1      -2.728 -11.482   2.412  0.00  0.00    +0.046 A 
ATOM     14  C   UNL     1      -2.657 -10.185   2.866  0.00  0.00    +0.015 A 
BRANCH  12  15
ATOM     15  O   UNL     1      -3.644 -13.088   0.916  0.00  0.00    -0.489 OA
BRANCH  15  16
ATOM     16  C   UNL     1      -2.902 -14.067   1.647  0.00  0.00    +0.167 C 
ATOM     17  C   UNL     1      -3.536 -15.445   1.442  0.00  0.00    +0.051 C 
ATOM     18  C   UNL     1      -1.457 -14.091   1.145  0.00  0.00    +0.051 C 
ENDBRANCH  15  16
ENDBRANCH  12  15
ENDBRANCH   4   9
BRANCH   2  19
ATOM     19  C   UNL     1      -2.167  -4.933   3.166  0.00  0.00    -0.019 A 
ATOM     20  C   UNL     1      -0.843  -4.827   2.784  0.00  0.00    +0.009 A 
ATOM     21  C   UNL     1       0.125  -4.499   3.715  0.00  0.00    +0.050 A 
ATOM     22  C   UNL     1      -0.232  -4.275   5.035  0.00  0.00    +0.162 A 
ATOM     23  C   UNL     1      -1.565  -4.383   5.420  0.00  0.00    +0.162 A 
ATOM     24  C   UNL     1      -2.530  -4.707   4.480  0.00  0.00    +0.055 A 
BRANCH  23  25
ATOM     25  O   UNL     1      -1.920  -4.164   6.715  0.00  0.00    -0.491 OA
ATOM     26  C   UNL     1      -3.307  -4.292   7.037  0.00  0.00    +0.277 C 
ENDBRANCH  23  25
BRANCH  22  27
ATOM     27  O   UNL     1       0.718  -3.953   5.953  0.00  0.00    -0.489 OA
BRANCH  27  28
ATOM     28  C   UNL     1       2.066  -3.861   5.486  0.00  0.00    +0.226 C 
ATOM     29  C   UNL     1       2.985  -3.491   6.652  0.00  0.00    +0.048 C 
ENDBRANCH  27  28
ENDBRANCH  22  27
ENDBRANCH   2  19
BRANCH   4  30
ATOM     30  O   UNL     1      -3.497  -7.538   4.065  0.00  0.00    -0.506 OA
ATOM     31  H   UNL     1      -3.634  -8.393   4.565  0.00  0.00    +0.292 HD
ENDBRANCH   4  30
BRANCH   1  32
ATOM     32  C   UNL     1      -2.892  -3.149   0.699  0.00  0.00    +0.107 C 
BRANCH  32  33
ATOM     33  C   UNL     1      -1.462  -2.657   0.931  0.00  0.00    +0.000 C 
BRANCH  33  34
ATOM     34  C   UNL     1      -1.406  -1.140   0.740  0.00  0.00    -0.077 C 
BRANCH  34  35
ATOM     35  N   UNL     1      -0.020  -0.683   0.971  0.00  0.00    +0.379 N 
ATOM     36  H   UNL     1       0.624  -1.294   0.456  0.00  0.00    -0.082 HD
BRANCH  35  38
ATOM     37  C   UNL     1       1.627   1.072   0.529  0.00  0.00    -0.017 C 
ATOM     38  C   UNL     1       0.142   0.704   0.485  0.00  0.00    -0.082 C 
ENDBRANCH  35  38
BRANCH  35  39
ATOM     39  C   UNL     1       0.302  -0.753   2.412  0.00  0.00    -0.082 C 
ATOM     40  C   UNL     1      -0.635   0.151   3.216  0.00  0.00    -0.017 C 
ENDBRANCH  35  39
ENDBRANCH  34  35
ENDBRANCH  33  34
ENDBRANCH  32  33
ENDBRANCH   1  32
TORSDOF 14
