REMARK  Name = ZINC38970958
REMARK  6 active torsions:
REMARK  status: ('A' for Active; 'I' for Inactive)
REMARK    1  A    between atoms: C_4  and  O_7
REMARK    2  A    between atoms: O_7  and  C_8
REMARK    3  A    between atoms: C_11  and  N_14
REMARK    4  A    between atoms: N_14  and  C_15
REMARK    5  A    between atoms: N_18  and  S_19
REMARK    6  A    between atoms: S_19  and  C_22
REMARK                            x       y       z     vdW  Elec       q    Type
REMARK                         _______ _______ _______ _____ _____    ______ ____
ROOT
ATOM      1  C   UNL     1       4.254  -6.984  -0.057  0.00  0.00    +0.237 C 
ATOM      2  C   UNL     1       3.992  -7.959   1.068  0.00  0.00    +0.192 C 
ATOM      3  N   UNL     1       3.708  -7.529   2.262  0.00  0.00    -0.110 NA
ATOM      4  N   UNL     1       4.056  -9.277   0.817  0.00  0.00    -0.226 NA
ATOM      5  C   UNL     1       4.341  -9.738  -0.383  0.00  0.00    +0.089 A 
ATOM      6  C   UNL     1       4.400 -11.136  -0.613  0.00  0.00    +0.030 A 
ATOM      7  C   UNL     1       4.692 -11.614  -1.841  0.00  0.00    +0.002 A 
ATOM      8  C   UNL     1       4.949 -10.778  -2.941  0.00  0.00    +0.002 A 
ATOM      9  C   UNL     1       4.920  -9.432  -2.832  0.00  0.00    +0.027 A 
ATOM     10  C   UNL     1       4.608  -8.831  -1.527  0.00  0.00    +0.063 A 
ATOM     11  N   UNL     1       4.569  -7.536  -1.384  0.00  0.00    -0.359 N 
ATOM     12  H   UNL     1       4.744  -6.950  -2.137  0.00  0.00    +0.162 HD
ENDROOT
BRANCH   3  13
ATOM     13  S   UNL     1       3.422  -8.607   3.485  0.00  0.00    +0.100 S 
ATOM     14  O   UNL     1       2.225  -9.294   3.150  0.00  0.00    -0.146 OA
ATOM     15  O   UNL     1       4.649  -9.285   3.723  0.00  0.00    -0.146 OA
BRANCH  13  16
ATOM     16  C   UNL     1       3.076  -7.670   4.936  0.00  0.00    +0.113 A 
ATOM     17  C   UNL     1       4.106  -7.293   5.778  0.00  0.00    +0.032 A 
ATOM     18  C   UNL     1       3.835  -6.557   6.916  0.00  0.00    +0.040 A 
ATOM     19  C   UNL     1       2.532  -6.197   7.213  0.00  0.00    +0.124 A 
ATOM     20  C   UNL     1       1.501  -6.575   6.370  0.00  0.00    +0.040 A 
ATOM     21  C   UNL     1       1.774  -7.307   5.230  0.00  0.00    +0.032 A 
ATOM     22  F   UNL     1       2.266  -5.478   8.326  0.00  0.00    -0.205 F 
ENDBRANCH  13  16
ENDBRANCH   3  13
BRANCH   1  23
ATOM     23  N   UNL     1       3.070  -6.133  -0.197  0.00  0.00    -0.318 N 
ATOM     24  H   UNL     1       2.191  -6.535  -0.280  0.00  0.00    +0.148 HD
BRANCH  23  28
ATOM     25  C   UNL     1       3.477  -1.985  -0.238  0.00  0.00    +0.129 A 
ATOM     26  C   UNL     1       4.604  -2.793  -0.285  0.00  0.00    +0.048 A 
ATOM     27  C   UNL     1       4.470  -4.167  -0.271  0.00  0.00    +0.026 A 
ATOM     28  C   UNL     1       3.206  -4.741  -0.210  0.00  0.00    +0.029 A 
ATOM     29  C   UNL     1       2.079  -3.932  -0.163  0.00  0.00    +0.026 A 
ATOM     30  C   UNL     1       2.215  -2.557  -0.171  0.00  0.00    +0.048 A 
BRANCH  25  31
ATOM     31  O   UNL     1       3.610  -0.632  -0.252  0.00  0.00    -0.456 OA
BRANCH  31  35
ATOM     32  C   UNL     1       4.383   1.201  -3.865  0.00  0.00    +0.000 A 
ATOM     33  C   UNL     1       4.321  -0.178  -3.791  0.00  0.00    +0.004 A 
ATOM     34  C   UNL     1       4.062  -0.795  -2.582  0.00  0.00    +0.046 A 
ATOM     35  C   UNL     1       3.865  -0.028  -1.442  0.00  0.00    +0.128 A 
ATOM     36  C   UNL     1       3.928   1.356  -1.520  0.00  0.00    +0.046 A 
ATOM     37  C   UNL     1       4.187   1.967  -2.731  0.00  0.00    +0.004 A 
ENDBRANCH  31  35
ENDBRANCH  25  31
ENDBRANCH  23  28
ENDBRANCH   1  23
TORSDOF 6
