REMARK  Name = ZINC17143949
REMARK  8 active torsions:
REMARK  status: ('A' for Active; 'I' for Inactive)
REMARK    1  A    between atoms: C_1  and  C_2
REMARK    2  A    between atoms: C_9  and  C_22
REMARK    3  A    between atoms: C_10  and  N_21
REMARK    4  A    between atoms: C_12  and  C_20
REMARK    5  A    between atoms: C_13  and  C_14
REMARK    6  A    between atoms: C_14  and  O_16
REMARK    7  A    between atoms: O_16  and  C_17
REMARK    8  A    between atoms: C_17  and  C_18
REMARK                            x       y       z     vdW  Elec       q    Type
REMARK                         _______ _______ _______ _____ _____    ______ ____
ROOT
ATOM      1  C   UNL     1      -1.110   4.806   1.913  0.00  0.00    +0.044 C 
ATOM      2  C   UNL     1      -0.408   4.790   3.246  0.00  0.00    -0.044 A 
ATOM      3  C   UNL     1       0.091   5.966   3.779  0.00  0.00    +0.004 A 
ATOM      4  C   UNL     1       0.736   5.947   5.002  0.00  0.00    +0.002 A 
ATOM      5  C   UNL     1       0.884   4.763   5.694  0.00  0.00    +0.023 A 
ATOM      6  C   UNL     1       0.384   3.575   5.165  0.00  0.00    +0.039 A 
ATOM      7  C   UNL     1      -0.261   3.607   3.934  0.00  0.00    +0.002 A 
ATOM      8  C   UNL     1      -0.678   2.187   3.641  0.00  0.00    +0.148 C 
ATOM      9  C   UNL     1      -2.172   2.092   3.523  0.00  0.00    +0.110 C 
ATOM     10  C   UNL     1      -2.755   1.931   2.308  0.00  0.00    +0.199 C 
ATOM     11  O   UNL     1      -2.026   1.858   1.179  0.00  0.00    -0.445 OA
ATOM     12  C   UNL     1      -0.721   1.559   1.251  0.00  0.00    +0.116 C 
ATOM     13  C   UNL     1      -0.019   1.695   2.385  0.00  0.00    +0.099 C 
ATOM     14  C   UNL     1      -0.019   1.058   0.015  0.00  0.00    +0.087 C 
ATOM     15  C   UNL     1      -0.193   1.399   4.835  0.00  0.00    +0.238 C 
ATOM     16  O   UNL     1      -0.321   0.207   5.013  0.00  0.00    -0.274 OA
ATOM     17  N   UNL     1       0.407   2.272   5.664  0.00  0.00    -0.284 N 
ATOM     18  H   UNL     1       0.810   2.025   6.511  0.00  0.00    +0.155 HD
ENDROOT
BRANCH  10  19
ATOM     19  N   UNL     1      -4.122   1.843   2.229  0.00  0.00    -0.328 N 
ATOM     20  H   UNL     1      -4.659   1.897   3.035  0.00  0.00    +0.145 HD
ATOM     21  H   UNL     1      -4.552   1.728   1.367  0.00  0.00    +0.145 HD
ENDBRANCH  10  19
BRANCH  13  22
ATOM     22  C   UNL     1       1.359   1.370   2.399  0.00  0.00    +0.340 C 
ATOM     23  O   UNL     1       1.924   1.069   1.364  0.00  0.00    -0.245 OA
BRANCH  22  24
ATOM     24  O   UNL     1       2.047   1.393   3.560  0.00  0.00    -0.457 OA
BRANCH  24  25
ATOM     25  C   UNL     1       3.434   1.054   3.499  0.00  0.00    +0.259 C 
BRANCH  25  26
ATOM     26  C   UNL     1       4.031   1.135   4.880  0.00  0.00    +0.006 C 
ATOM     27  C   UNL     1       4.821   0.182   5.309  0.00  0.00    +0.007 C 
ENDBRANCH  25  26
ENDBRANCH  24  25
ENDBRANCH  22  24
ENDBRANCH  13  22
BRANCH   9  28
ATOM     28  C   UNL     1      -2.986   2.173   4.698  0.00  0.00    +0.102 C 
ATOM     29  N   UNL     1      -3.632   2.237   5.631  0.00  0.00    -0.191 NA
ENDBRANCH   9  28
TORSDOF 6
