REMARK  Name = ZINC10723361
REMARK  9 active torsions:
REMARK  status: ('A' for Active; 'I' for Inactive)
REMARK    1  A    between atoms: C_1  and  C_2
REMARK    2  A    between atoms: C_2  and  C_4
REMARK    3  A    between atoms: C_2  and  O_17
REMARK    4  A    between atoms: N_6  and  C_7
REMARK    5  A    between atoms: C_12  and  O_13
REMARK    6  A    between atoms: O_13  and  C_14
REMARK    7  A    between atoms: O_17  and  C_18
REMARK    8  A    between atoms: C_18  and  C_20
REMARK    9  A    between atoms: C_20  and  N_21
REMARK                            x       y       z     vdW  Elec       q    Type
REMARK                         _______ _______ _______ _____ _____    ______ ____
ROOT
ATOM      1  C   UNL     1       1.685   6.217  -1.399  0.00  0.00    +0.328 C 
ATOM      2  O   UNL     1       0.984   5.850  -2.313  0.00  0.00    -0.249 OA
ENDROOT
BRANCH   1   3
ATOM      3  O   UNL     1       2.845   6.843  -1.653  0.00  0.00    -0.451 OA
BRANCH   3   5
ATOM      4  C   UNL     1       2.633   8.387  -3.524  0.00  0.00    +0.062 C 
ATOM      5  C   UNL     1       3.193   7.045  -3.048  0.00  0.00    +0.259 C 
BRANCH   5   6
ATOM      6  C   UNL     1       4.693   7.047  -3.196  0.00  0.00    +0.258 C 
ATOM      7  O   UNL     1       5.399   6.892  -2.222  0.00  0.00    -0.271 OA
ATOM      8  N   UNL     1       5.250   7.220  -4.411  0.00  0.00    -0.280 N 
ATOM      9  H   UNL     1       4.688   7.263  -5.201  0.00  0.00    +0.155 HD
BRANCH   8  10
ATOM     10  C   UNL     1       6.641   7.337  -4.534  0.00  0.00    +0.076 A 
ATOM     11  C   UNL     1       7.398   7.785  -3.462  0.00  0.00    +0.027 A 
ATOM     12  C   UNL     1       8.770   7.896  -3.584  0.00  0.00    +0.002 A 
ATOM     13  C   UNL     1       9.390   7.569  -4.776  0.00  0.00    +0.004 A 
ATOM     14  C   UNL     1       8.641   7.127  -5.851  0.00  0.00    +0.048 A 
ATOM     15  C   UNL     1       7.266   7.009  -5.735  0.00  0.00    +0.148 A 
BRANCH  15  16
ATOM     16  O   UNL     1       6.528   6.574  -6.791  0.00  0.00    -0.432 OA
BRANCH  16  17
ATOM     17  C   UNL     1       7.236   6.256  -7.990  0.00  0.00    +0.541 C 
ATOM     18  F   UNL     1       7.914   7.392  -8.447  0.00  0.00    -0.166 F 
ATOM     19  F   UNL     1       8.158   5.236  -7.731  0.00  0.00    -0.166 F 
ENDBRANCH  16  17
ENDBRANCH  15  16
ENDBRANCH   8  10
ENDBRANCH   5   6
ENDBRANCH   3   5
ENDBRANCH   1   3
BRANCH   1  20
ATOM     20  C   UNL     1       1.257   5.971   0.025  0.00  0.00    +0.242 C 
BRANCH  20  21
ATOM     21  N   UNL     1      -0.034   5.277   0.034  0.00  0.00    -0.329 N 
ATOM     22  C   UNL     1      -0.045   3.899   0.026  0.00  0.00    +0.054 A 
ATOM     23  C   UNL     1       1.155   3.191   0.009  0.00  0.00    +0.026 A 
ATOM     24  C   UNL     1       1.142   1.813   0.001  0.00  0.00    +0.002 A 
ATOM     25  C   UNL     1      -0.058   1.117   0.010  0.00  0.00    +0.001 A 
ATOM     26  C   UNL     1      -1.252   1.792   0.021  0.00  0.00    +0.014 A 
ATOM     27  C   UNL     1      -1.257   3.189   0.035  0.00  0.00    +0.046 A 
ATOM     28  C   UNL     1      -2.527   3.937   0.052  0.00  0.00    +0.197 A 
ATOM     29  O   UNL     1      -3.600   3.360   0.060  0.00  0.00    -0.287 OA
ATOM     30  C   UNL     1      -2.450   5.409   0.060  0.00  0.00    +0.046 A 
ATOM     31  C   UNL     1      -1.189   6.028   0.051  0.00  0.00    +0.054 A 
ATOM     32  C   UNL     1      -1.117   7.420   0.058  0.00  0.00    +0.026 A 
ATOM     33  C   UNL     1      -2.273   8.168   0.075  0.00  0.00    +0.002 A 
ATOM     34  C   UNL     1      -3.517   7.552   0.084  0.00  0.00    +0.001 A 
ATOM     35  C   UNL     1      -3.612   6.184   0.077  0.00  0.00    +0.014 A 
ENDBRANCH  20  21
ENDBRANCH   1  20
TORSDOF 8
