REMARK  Name = ZINC67153756
REMARK  7 active torsions:
REMARK  status: ('A' for Active; 'I' for Inactive)
REMARK    1  A    between atoms: C_1  and  C_2
REMARK    2  A    between atoms: C_2  and  C_4
REMARK    3  A    between atoms: C_2  and  N_18
REMARK    4  A    between atoms: C_4  and  C_5
REMARK    5  A    between atoms: N_11  and  C_14
REMARK    6  A    between atoms: C_14  and  C_15
REMARK    7  A    between atoms: C_19  and  C_21
REMARK                            x       y       z     vdW  Elec       q    Type
REMARK                         _______ _______ _______ _____ _____    ______ ____
ROOT
ATOM      1  C   UNL     1       1.153  -1.533  -0.899  0.00  0.00    +0.217 C 
ATOM      2  O   UNL     1       0.501  -2.147  -0.082  0.00  0.00    -0.276 OA
ATOM      3  N   UNL     1       1.607  -2.155  -2.006  0.00  0.00    -0.303 N 
ATOM      4  C   UNL     1       2.404  -1.384  -2.980  0.00  0.00    +0.106 C 
ATOM      5  C   UNL     1       3.592  -2.212  -3.502  0.00  0.00    +0.000 C 
ATOM      6  C   UNL     1       4.194  -3.003  -2.362  0.00  0.00    -0.077 C 
ATOM      7  N   UNL     1       3.591  -4.334  -2.328  0.00  0.00    +0.386 N 
ATOM      8  C   UNL     1       2.405  -4.431  -1.568  0.00  0.00    -0.059 C 
ATOM      9  C   UNL     1       1.299  -3.558  -2.193  0.00  0.00    +0.089 C 
ATOM     10  H   UNL     1       3.387  -4.615  -3.275  0.00  0.00    -0.081 HD
ENDROOT
BRANCH   1  11
ATOM     11  C   UNL     1       1.458  -0.074  -0.677  0.00  0.00    +0.118 C 
BRANCH  11  13
ATOM     12  C   UNL     1       1.035   1.890   0.808  0.00  0.00    +0.028 C 
ATOM     13  C   UNL     1       0.833   0.382   0.642  0.00  0.00    +0.079 C 
BRANCH  13  14
ATOM     14  N   UNL     1       1.474  -0.321   1.756  0.00  0.00    -0.312 N 
ATOM     15  C   UNL     1       0.812  -0.490   2.917  0.00  0.00    +0.216 C 
ATOM     16  O   UNL     1      -0.315  -0.060   3.041  0.00  0.00    -0.276 OA
ATOM     17  H   UNL     1       2.376  -0.665   1.657  0.00  0.00    +0.149 HD
BRANCH  15  18
ATOM     18  C   UNL     1       1.472  -1.214   4.063  0.00  0.00    +0.075 C 
ATOM     19  C   UNL     1       1.828  -2.638   3.629  0.00  0.00    +0.013 C 
ATOM     20  C   UNL     1       2.498  -3.373   4.792  0.00  0.00    +0.001 C 
ATOM     21  C   UNL     1       1.538  -3.427   5.982  0.00  0.00    +0.000 C 
ATOM     22  C   UNL     1       1.182  -2.003   6.415  0.00  0.00    +0.001 C 
ATOM     23  C   UNL     1       0.512  -1.268   5.253  0.00  0.00    +0.013 C 
ENDBRANCH  15  18
ENDBRANCH  13  14
ENDBRANCH  11  13
ENDBRANCH   1  11
BRANCH   7  24
ATOM     24  C   UNL     1       4.575  -5.274  -1.774  0.00  0.00    +0.018 C 
BRANCH  24  25
ATOM     25  C   UNL     1       5.734  -5.409  -2.728  0.00  0.00    +0.194 C 
ATOM     26  O   UNL     1       5.692  -4.869  -3.813  0.00  0.00    -0.278 OA
ATOM     27  N   UNL     1       6.817  -6.130  -2.375  0.00  0.00    -0.331 N 
ATOM     28  H   UNL     1       6.850  -6.562  -1.507  0.00  0.00    +0.145 HD
ATOM     29  H   UNL     1       7.562  -6.216  -2.989  0.00  0.00    +0.145 HD
ENDBRANCH  24  25
ENDBRANCH   7  24
TORSDOF 6
