REMARK  Name = ZINC17179876
REMARK  6 active torsions:
REMARK  status: ('A' for Active; 'I' for Inactive)
REMARK    1  A    between atoms: C_1  and  C_2
REMARK    2  A    between atoms: C_7  and  N_8
REMARK    3  A    between atoms: N_15  and  N_16
REMARK    4  A    between atoms: C_17  and  C_18
REMARK    5  A    between atoms: C_21  and  O_24
REMARK    6  A    between atoms: O_24  and  C_25
REMARK                            x       y       z     vdW  Elec       q    Type
REMARK                         _______ _______ _______ _____ _____    ______ ____
ROOT
ATOM      1  N   UNL     1      -2.429   1.040   0.019  0.00  0.00    -0.247 N 
ATOM      2  C   UNL     1      -3.016   0.708  -1.150  0.00  0.00    +0.264 A 
ATOM      3  O   UNL     1      -2.515   1.034  -2.214  0.00  0.00    -0.267 OA
ATOM      4  C   UNL     1      -4.210  -0.024  -1.117  0.00  0.00    +0.050 A 
ATOM      5  C   UNL     1      -4.743  -0.381   0.113  0.00  0.00    +0.084 A 
ATOM      6  N   UNL     1      -4.131  -0.001   1.239  0.00  0.00    -0.214 NA
ATOM      7  C   UNL     1      -3.008   0.687   1.203  0.00  0.00    +0.223 A 
ATOM      8  N   UNL     1      -2.409   1.055   2.379  0.00  0.00    -0.206 N 
ATOM      9  C   UNL     1      -5.996  -1.168   0.148  0.00  0.00    +0.004 A 
ATOM     10  C   UNL     1      -6.758  -1.244   1.311  0.00  0.00    +0.010 A 
ATOM     11  C   UNL     1      -7.932  -1.970   1.314  0.00  0.00    +0.001 A 
ATOM     12  C   UNL     1      -8.348  -2.619   0.165  0.00  0.00    +0.000 A 
ATOM     13  C   UNL     1      -7.590  -2.553  -0.991  0.00  0.00    +0.004 A 
ATOM     14  C   UNL     1      -6.411  -1.835  -1.004  0.00  0.00    -0.037 A 
ATOM     15  C   UNL     1      -5.573  -1.775  -2.252  0.00  0.00    +0.047 C 
ATOM     16  C   UNL     1      -4.912  -0.404  -2.393  0.00  0.00    +0.007 C 
ATOM     17  C   UNL     1      -3.892  -0.450  -3.534  0.00  0.00    +0.012 C 
ATOM     18  C   UNL     1      -4.600  -0.832  -4.835  0.00  0.00    +0.001 C 
ATOM     19  C   UNL     1      -5.672   0.211  -5.157  0.00  0.00    +0.000 C 
ATOM     20  C   UNL     1      -6.690   0.264  -4.017  0.00  0.00    +0.001 C 
ATOM     21  C   UNL     1      -5.981   0.644  -2.716  0.00  0.00    +0.012 C 
ATOM     22  H   UNL     1      -1.471   1.630   2.362  0.00  0.00    +0.177 HD
ENDROOT
BRANCH   1  29
ATOM     23  C   UNL     1      -2.551   3.883   0.048  0.00  0.00    +0.046 C 
ATOM     24  C   UNL     1      -1.239   3.143   0.031  0.00  0.00    -0.026 A 
ATOM     25  C   UNL     1      -0.049   3.845   0.023  0.00  0.00    +0.005 A 
ATOM     26  C   UNL     1       1.155   3.166   0.007  0.00  0.00    +0.000 A 
ATOM     27  C   UNL     1       1.173   1.783   0.000  0.00  0.00    +0.002 A 
ATOM     28  C   UNL     1      -0.013   1.076   0.008  0.00  0.00    +0.026 A 
ATOM     29  C   UNL     1      -1.224   1.755   0.017  0.00  0.00    +0.056 A 
ENDBRANCH   1  29
BRANCH   8  30
ATOM     30  N   UNL     1      -2.991   0.700   3.603  0.00  0.00    -0.188 NA
ATOM     31  C   UNL     1      -2.424   1.049   4.717  0.00  0.00    +0.138 C 
BRANCH  31  32
ATOM     32  C   UNL     1      -3.037   0.676   6.005  0.00  0.00    -0.005 A 
ATOM     33  C   UNL     1      -4.231  -0.049   6.029  0.00  0.00    +0.013 A 
ATOM     34  C   UNL     1      -4.798  -0.400   7.235  0.00  0.00    +0.046 A 
ATOM     35  C   UNL     1      -4.189  -0.025   8.426  0.00  0.00    +0.120 A 
ATOM     36  C   UNL     1      -3.005   0.699   8.407  0.00  0.00    +0.046 A 
ATOM     37  C   UNL     1      -2.428   1.050   7.205  0.00  0.00    +0.013 A 
BRANCH  35  38
ATOM     38  O   UNL     1      -4.755  -0.368   9.612  0.00  0.00    -0.495 OA
ATOM     39  C   UNL     1      -5.973  -1.114   9.559  0.00  0.00    +0.277 C 
ENDBRANCH  35  38
ENDBRANCH  31  32
ENDBRANCH   8  30
TORSDOF 4
