REMARK  Name = ZINC20744398
REMARK  7 active torsions:
REMARK  status: ('A' for Active; 'I' for Inactive)
REMARK    1  A    between atoms: C_1  and  O_2
REMARK    2  A    between atoms: O_2  and  C_3
REMARK    3  A    between atoms: C_3  and  C_5
REMARK    4  A    between atoms: C_5  and  C_7
REMARK    5  A    between atoms: C_5  and  N_14
REMARK    6  A    between atoms: C_7  and  C_8
REMARK    7  A    between atoms: C_26  and  C_28
REMARK                            x       y       z     vdW  Elec       q    Type
REMARK                         _______ _______ _______ _____ _____    ______ ____
ROOT
ATOM      1  N   UNL     1      -0.552  -2.333  -3.490  0.00  0.00    -0.286 N 
ATOM      2  C   UNL     1       0.762  -2.631  -3.503  0.00  0.00    +0.304 C 
ATOM      3  O   UNL     1       1.430  -2.479  -2.499  0.00  0.00    -0.253 OA
ATOM      4  N   UNL     1       1.336  -3.097  -4.630  0.00  0.00    -0.273 N 
ATOM      5  C   UNL     1       2.737  -3.544  -4.632  0.00  0.00    +0.116 C 
ATOM      6  C   UNL     1       2.785  -5.046  -4.940  0.00  0.00    +0.074 C 
ATOM      7  C   UNL     1       1.859  -5.334  -6.093  0.00  0.00    +0.040 A 
ATOM      8  C   UNL     1       0.876  -4.512  -6.517  0.00  0.00    +0.062 A 
ATOM      9  N   UNL     1       0.264  -5.095  -7.551  0.00  0.00    -0.348 N 
ATOM     10  C   UNL     1       0.832  -6.249  -7.789  0.00  0.00    +0.171 A 
ATOM     11  N   UNL     1       1.834  -6.433  -6.899  0.00  0.00    -0.349 N 
ATOM     12  H   UNL     1       2.423  -7.201  -6.844  0.00  0.00    +0.166 HD
ATOM     13  C   UNL     1       0.573  -3.177  -5.888  0.00  0.00    +0.159 C 
ATOM     14  H   UNL     1      -1.067  -2.377  -4.310  0.00  0.00    +0.151 HD
ATOM     15  H   UNL     1      -0.482  -4.722  -8.046  0.00  0.00    +0.167 HD
ENDROOT
BRANCH  13  16
ATOM     16  C   UNL     1       0.998  -2.070  -6.817  0.00  0.00    +0.017 A 
ATOM     17  C   UNL     1       1.184  -2.329  -8.162  0.00  0.00    +0.047 A 
ATOM     18  C   UNL     1       1.574  -1.311  -9.016  0.00  0.00    +0.124 A 
ATOM     19  C   UNL     1       1.778  -0.034  -8.522  0.00  0.00    +0.041 A 
ATOM     20  C   UNL     1       1.593   0.225  -7.178  0.00  0.00    +0.041 A 
ATOM     21  C   UNL     1       1.198  -0.791  -6.325  0.00  0.00    +0.129 A 
ATOM     22  F   UNL     1       1.012  -0.537  -5.011  0.00  0.00    -0.205 F 
ATOM     23  F   UNL     1       1.755  -1.564 -10.330  0.00  0.00    -0.205 F 
ENDBRANCH  13  16
BRANCH   1  24
ATOM     24  C   UNL     1      -1.203  -1.945  -2.236  0.00  0.00    +0.187 C 
BRANCH  24  25
ATOM     25  C   UNL     1      -1.622  -3.182  -1.484  0.00  0.00    +0.328 C 
ATOM     26  O   UNL     1      -1.401  -4.275  -1.947  0.00  0.00    -0.249 OA
BRANCH  25  28
ATOM     27  C   UNL     1      -2.612  -4.282   0.359  0.00  0.00    +0.280 C 
ATOM     28  O   UNL     1      -2.242  -3.068  -0.298  0.00  0.00    -0.467 OA
ENDBRANCH  25  28
ENDBRANCH  24  25
BRANCH  24  29
ATOM     29  C   UNL     1      -2.435  -1.092  -2.544  0.00  0.00    +0.069 C 
BRANCH  29  30
ATOM     30  C   UNL     1      -2.003   0.201  -3.186  0.00  0.00    -0.045 A 
ATOM     31  C   UNL     1      -1.718   1.302  -2.400  0.00  0.00    +0.004 A 
ATOM     32  C   UNL     1      -1.322   2.488  -2.990  0.00  0.00    +0.000 A 
ATOM     33  C   UNL     1      -1.212   2.573  -4.365  0.00  0.00    +0.000 A 
ATOM     34  C   UNL     1      -1.497   1.472  -5.151  0.00  0.00    +0.000 A 
ATOM     35  C   UNL     1      -1.888   0.285  -4.561  0.00  0.00    +0.004 A 
ENDBRANCH  29  30
ENDBRANCH  24  29
ENDBRANCH   1  24
TORSDOF 6
