REMARK  Name = ZINC39584339
REMARK  5 active torsions:
REMARK  status: ('A' for Active; 'I' for Inactive)
REMARK    1  A    between atoms: C_1  and  C_2
REMARK    2  A    between atoms: C_5  and  C_8
REMARK    3  A    between atoms: C_10  and  C_14
REMARK    4  A    between atoms: N_16  and  N_17
REMARK    5  A    between atoms: C_18  and  C_19
REMARK                            x       y       z     vdW  Elec       q    Type
REMARK                         _______ _______ _______ _____ _____    ______ ____
ROOT
ATOM      1  C   UNL     1      -1.137  -7.203   0.967  0.00  0.00    +0.263 C 
ATOM      2  O   UNL     1      -2.073  -7.332   0.205  0.00  0.00    -0.271 OA
ATOM      3  N   UNL     1      -1.196  -7.736   2.203  0.00  0.00    -0.205 N 
ATOM      4  H   UNL     1      -0.448  -7.632   2.812  0.00  0.00    +0.177 HD
ENDROOT
BRANCH   1   7
ATOM      5  C   UNL     1       0.061  -4.256  -0.021  0.00  0.00    +0.092 C 
ATOM      6  C   UNL     1       0.071  -5.030   1.081  0.00  0.00    +0.041 C 
ATOM      7  C   UNL     1       0.090  -6.445   0.530  0.00  0.00    +0.240 C 
ATOM      8  N   UNL     1       0.087  -6.239  -0.927  0.00  0.00    -0.170 NA
ATOM      9  N   UNL     1       0.065  -5.025  -1.142  0.00  0.00    -0.153 NA
BRANCH   5  14
ATOM     10  C   UNL     1      -0.018   1.503   0.010  0.00  0.00    +0.044 C 
ATOM     11  C   UNL     1       0.002  -0.004   0.002  0.00  0.00    -0.050 A 
ATOM     12  C   UNL     1       0.006  -0.686  -1.201  0.00  0.00    +0.004 A 
ATOM     13  C   UNL     1       0.025  -2.066  -1.215  0.00  0.00    +0.010 A 
ATOM     14  C   UNL     1       0.041  -2.772  -0.013  0.00  0.00    +0.002 A 
ATOM     15  C   UNL     1       0.037  -2.080   1.196  0.00  0.00    +0.010 A 
ATOM     16  C   UNL     1       0.023  -0.700   1.198  0.00  0.00    +0.004 A 
ENDBRANCH   5  14
ENDBRANCH   1   7
BRANCH   3  17
ATOM     17  N   UNL     1      -2.337  -8.440   2.609  0.00  0.00    -0.188 NA
ATOM     18  C   UNL     1      -2.394  -8.953   3.799  0.00  0.00    +0.141 C 
BRANCH  18  19
ATOM     19  C   UNL     1      -3.595  -9.694   4.226  0.00  0.00    +0.031 A 
ATOM     20  C   UNL     1      -3.662 -10.243   5.509  0.00  0.00    +0.027 A 
ATOM     21  C   UNL     1      -4.790 -10.935   5.902  0.00  0.00    +0.019 A 
ATOM     22  C   UNL     1      -5.854 -11.086   5.029  0.00  0.00    +0.018 A 
ATOM     23  C   UNL     1      -5.796 -10.546   3.757  0.00  0.00    +0.040 A 
ATOM     24  C   UNL     1      -4.676  -9.845   3.351  0.00  0.00    +0.132 A 
ATOM     25  F   UNL     1      -4.622  -9.313   2.110  0.00  0.00    -0.205 F 
ATOM     26 BR   UNL     1      -4.882 -11.679   7.638  0.00  0.00    -0.050 Br
ENDBRANCH  18  19
ENDBRANCH   3  17
TORSDOF 4
