REMARK  Name = ZINC24543511
REMARK  4 active torsions:
REMARK  status: ('A' for Active; 'I' for Inactive)
REMARK    1  A    between atoms: C_1  and  C_2
REMARK    2  A    between atoms: C_5  and  S_8
REMARK    3  A    between atoms: S_8  and  N_11
REMARK    4  A    between atoms: C_17  and  C_18
REMARK                            x       y       z     vdW  Elec       q    Type
REMARK                         _______ _______ _______ _____ _____    ______ ____
ROOT
ATOM      1  N   UNL     1       1.688  -5.111  -1.175  0.00  0.00    -0.106 NA
ATOM      2  C   UNL     1       1.995  -6.360  -0.962  0.00  0.00    +0.186 C 
ATOM      3  N   UNL     1       1.196  -7.477  -1.104  0.00  0.00    -0.259 N 
ATOM      4  C   UNL     1       1.673  -8.683  -0.843  0.00  0.00    +0.256 C 
ATOM      5  O   UNL     1       0.984  -9.679  -0.963  0.00  0.00    -0.269 OA
ATOM      6  C   UNL     1       3.077  -8.766  -0.399  0.00  0.00    +0.078 C 
ATOM      7  C   UNL     1       3.812  -9.857  -0.068  0.00  0.00    +0.032 C 
ATOM      8  S   UNL     1       3.554  -7.044  -0.422  0.00  0.00    -0.047 S 
ATOM      9  H   UNL     1       0.278  -7.377  -1.399  0.00  0.00    +0.157 HD
ENDROOT
BRANCH   7  10
ATOM     10  C   UNL     1       3.167 -11.173   0.035  0.00  0.00    +0.026 A 
ATOM     11  C   UNL     1       1.913 -11.297   0.645  0.00  0.00    +0.031 A 
ATOM     12  C   UNL     1       1.314 -12.535   0.737  0.00  0.00    +0.043 A 
ATOM     13  C   UNL     1       1.948 -13.658   0.228  0.00  0.00    +0.044 A 
ATOM     14  C   UNL     1       3.186 -13.550  -0.377  0.00  0.00    +0.089 A 
ATOM     15  C   UNL     1       3.802 -12.312  -0.484  0.00  0.00    +0.204 A 
ATOM     16  O   UNL     1       5.016 -12.204  -1.083  0.00  0.00    -0.286 OA
ATOM     17 CL   UNL     1       3.968 -14.965  -1.009  0.00  0.00    -0.080 Cl
ATOM     18 CL   UNL     1      -0.241 -12.688   1.494  0.00  0.00    -0.083 Cl
ENDBRANCH   7  10
BRANCH   1  19
ATOM     19  S   UNL     1       0.162  -4.708  -1.679  0.00  0.00    +0.101 S 
ATOM     20  O   UNL     1      -0.717  -5.027  -0.609  0.00  0.00    -0.146 OA
ATOM     21  O   UNL     1       0.007  -5.254  -2.982  0.00  0.00    -0.146 OA
BRANCH  19  26
ATOM     22  C   UNL     1       0.013   1.292  -2.299  0.00  0.00    +0.044 C 
ATOM     23  C   UNL     1       0.050  -0.206  -2.144  0.00  0.00    -0.050 A 
ATOM     24  C   UNL     1       0.416  -1.003  -3.213  0.00  0.00    +0.005 A 
ATOM     25  C   UNL     1       0.451  -2.377  -3.071  0.00  0.00    +0.029 A 
ATOM     26  C   UNL     1       0.119  -2.955  -1.860  0.00  0.00    +0.113 A 
ATOM     27  C   UNL     1      -0.246  -2.159  -0.791  0.00  0.00    +0.029 A 
ATOM     28  C   UNL     1      -0.276  -0.784  -0.931  0.00  0.00    +0.005 A 
ENDBRANCH  19  26
ENDBRANCH   1  19
TORSDOF 3
