REMARK  Name = ZINC23101179
REMARK  7 active torsions:
REMARK  status: ('A' for Active; 'I' for Inactive)
REMARK    1  A    between atoms: C_1  and  C_2
REMARK    2  A    between atoms: C_7  and  C_9
REMARK    3  A    between atoms: C_7  and  C_10
REMARK    4  A    between atoms: N_13  and  C_17
REMARK    5  A    between atoms: C_17  and  C_18
REMARK    6  A    between atoms: N_20  and  C_21
REMARK    7  A    between atoms: C_21  and  C_22
REMARK                            x       y       z     vdW  Elec       q    Type
REMARK                         _______ _______ _______ _____ _____    ______ ____
ROOT
ATOM      1  C   UNL     1      -4.079  -4.264  -1.458  0.00  0.00    +0.213 C 
ENDROOT
BRANCH   1  13
ATOM      2  C   UNL     1      -0.159   1.471  -0.048  0.00  0.00    +0.007 C 
ATOM      3  C   UNL     1      -0.085  -0.057  -0.027  0.00  0.00    -0.011 C 
ATOM      4  C   UNL     1      -1.501  -0.636   0.015  0.00  0.00    +0.038 C 
ATOM      5  C   UNL     1      -1.428  -2.159   0.057  0.00  0.00    +0.113 C 
ATOM      6  C   UNL     1      -0.642  -2.627   1.276  0.00  0.00    +0.041 C 
ATOM      7  C   UNL     1       0.772  -2.041   1.230  0.00  0.00    -0.032 C 
ATOM      8  C   UNL     1       0.688  -0.513   1.212  0.00  0.00    +0.009 C 
ATOM      9  C   UNL     1       1.485  -2.527  -0.033  0.00  0.00    +0.011 C 
ATOM     10  C   UNL     1       1.553  -2.495   2.465  0.00  0.00    +0.011 C 
ATOM     11  C   UNL     1      -2.817  -2.754   0.064  0.00  0.00    +0.247 C 
ATOM     12  O   UNL     1      -3.679  -2.595   0.901  0.00  0.00    -0.273 OA
ATOM     13  N   UNL     1      -2.895  -3.499  -1.058  0.00  0.00    -0.215 N 
ATOM     14  C   UNL     1      -1.756  -3.453  -1.761  0.00  0.00    +0.310 C 
ATOM     15  O   UNL     1      -1.585  -4.042  -2.810  0.00  0.00    -0.252 OA
ATOM     16  N   UNL     1      -0.823  -2.679  -1.176  0.00  0.00    -0.285 N 
ATOM     17  H   UNL     1       0.073  -2.500  -1.504  0.00  0.00    +0.151 HD
ENDBRANCH   1  13
BRANCH   1  18
ATOM     18  C   UNL     1      -4.972  -3.399  -2.310  0.00  0.00    +0.231 C 
ATOM     19  O   UNL     1      -4.651  -2.256  -2.558  0.00  0.00    -0.274 OA
ATOM     20  N   UNL     1      -6.127  -3.895  -2.795  0.00  0.00    -0.310 N 
ATOM     21  H   UNL     1      -6.383  -4.809  -2.596  0.00  0.00    +0.149 HD
BRANCH  20  22
ATOM     22  C   UNL     1      -6.995  -3.054  -3.623  0.00  0.00    +0.141 C 
BRANCH  22  23
ATOM     23  C   UNL     1      -8.213  -3.841  -4.034  0.00  0.00    -0.014 A 
ATOM     24  C   UNL     1      -8.204  -4.587  -5.206  0.00  0.00    +0.010 A 
ATOM     25  C   UNL     1      -9.342  -5.295  -5.547  0.00  0.00    +0.042 A 
ATOM     26  C   UNL     1     -10.451  -5.236  -4.710  0.00  0.00    +0.099 A 
ATOM     27  N   UNL     1     -10.421  -4.513  -3.601  0.00  0.00    -0.349 N 
ATOM     28  C   UNL     1      -9.347  -3.833  -3.247  0.00  0.00    +0.089 A 
ATOM     29  N   UNL     1     -11.602  -5.942  -5.040  0.00  0.00    -0.317 N 
ATOM     30  C   UNL     1     -11.777  -6.786  -6.231  0.00  0.00    +0.106 C 
ATOM     31  C   UNL     1     -13.215  -7.343  -6.192  0.00  0.00    +0.020 C 
ATOM     32  C   UNL     1     -13.955  -6.329  -5.279  0.00  0.00    +0.020 C 
ATOM     33  C   UNL     1     -12.847  -5.973  -4.252  0.00  0.00    +0.106 C 
ATOM     34  H   UNL     1     -11.206  -4.487  -3.032  0.00  0.00    +0.167 HD
ENDBRANCH  22  23
ENDBRANCH  20  22
ENDBRANCH   1  18
TORSDOF 4
