REMARK  Name = ZINC03764833
REMARK  15 active torsions:
REMARK  status: ('A' for Active; 'I' for Inactive)
REMARK    1  A    between atoms: C_1  and  C_2
REMARK    2  A    between atoms: C_2  and  N_70
REMARK    3  A    between atoms: C_3  and  C_4
REMARK    4  A    between atoms: C_3  and  N_70
REMARK    5  A    between atoms: C_5  and  C_6
REMARK    6  A    between atoms: C_5  and  N_70
REMARK    7  A    between atoms: N_8  and  C_9
REMARK    8  A    between atoms: N_8  and  N_16
REMARK    9  A    between atoms: C_14  and  C_15
REMARK   10  A    between atoms: C_17  and  C_19
REMARK   11  A    between atoms: C_19  and  C_20
REMARK   12  A    between atoms: C_19  and  C_27
REMARK   13  A    between atoms: C_19  and  O_34
REMARK   14  A    between atoms: C_23  and  C_26
REMARK   15  A    between atoms: C_30  and  C_33
REMARK                            x       y       z     vdW  Elec       q    Type
REMARK                         _______ _______ _______ _____ _____    ______ ____
ROOT
ATOM      1  N   UNL     1      -0.146  -2.912  -1.978  0.00  0.00    -0.224 N 
ATOM      2  C   UNL     1       0.907  -2.756  -1.151  0.00  0.00    +0.270 C 
ATOM      3  O   UNL     1       2.031  -2.965  -1.556  0.00  0.00    -0.270 OA
ATOM      4  H   UNL     1      -1.039  -2.685  -1.673  0.00  0.00    +0.174 HD
ENDROOT
BRANCH   1   7
ATOM      5  C   UNL     1      -0.011  -2.559  -4.328  0.00  0.00    +0.220 C 
ATOM      6  O   UNL     1       0.158  -2.982  -5.452  0.00  0.00    -0.276 OA
ATOM      7  N   UNL     1       0.048  -3.400  -3.276  0.00  0.00    -0.189 N 
BRANCH   7   8
ATOM      8  C   UNL     1       0.304  -4.760  -3.481  0.00  0.00    +0.059 A 
ATOM      9  C   UNL     1       1.612  -5.212  -3.599  0.00  0.00    +0.025 A 
ATOM     10  C   UNL     1       1.861  -6.556  -3.796  0.00  0.00    +0.002 A 
ATOM     11  C   UNL     1       0.810  -7.450  -3.886  0.00  0.00    +0.000 A 
ATOM     12  C   UNL     1      -0.494  -7.003  -3.774  0.00  0.00    +0.005 A 
ATOM     13  C   UNL     1      -0.749  -5.660  -3.572  0.00  0.00    -0.027 A 
ATOM     14  C   UNL     1      -2.170  -5.173  -3.451  0.00  0.00    +0.046 C 
ENDBRANCH   7   8
BRANCH   5  15
ATOM     15  C   UNL     1      -0.286  -1.094  -4.108  0.00  0.00    +0.021 C 
BRANCH  15  16
ATOM     16  N   UNL     1      -0.409  -0.432  -5.423  0.00  0.00    +0.385 N 
ATOM     17  H   UNL     1       0.317  -0.799  -6.050  0.00  0.00    -0.081 HD
BRANCH  16  19
ATOM     18  C   UNL     1      -1.756  -0.212  -7.454  0.00  0.00    -0.017 C 
ATOM     19  C   UNL     1      -1.737  -0.715  -6.009  0.00  0.00    -0.082 C 
ENDBRANCH  16  19
BRANCH  16  20
ATOM     20  C   UNL     1      -0.224   1.026  -5.274  0.00  0.00    -0.082 C 
ATOM     21  C   UNL     1       1.271   1.317  -5.121  0.00  0.00    -0.017 C 
ENDBRANCH  16  20
ENDBRANCH  15  16
ENDBRANCH   5  15
ENDBRANCH   1   7
BRANCH   2  22
ATOM     22  C   UNL     1       0.688  -2.324   0.276  0.00  0.00    +0.194 C 
BRANCH  22  23
ATOM     23  C   UNL     1       0.602  -0.820   0.337  0.00  0.00    -0.003 A 
ATOM     24  C   UNL     1       1.379  -0.049  -0.506  0.00  0.00    +0.007 A 
ATOM     25  C   UNL     1       1.300   1.330  -0.450  0.00  0.00    +0.004 A 
ATOM     26  C   UNL     1       0.444   1.938   0.449  0.00  0.00    -0.050 A 
ATOM     27  C   UNL     1      -0.333   1.166   1.293  0.00  0.00    +0.004 A 
ATOM     28  C   UNL     1      -0.254  -0.213   1.237  0.00  0.00    +0.007 A 
ATOM     29  C   UNL     1       0.358   3.441   0.510  0.00  0.00    +0.044 C 
ENDBRANCH  22  23
BRANCH  22  30
ATOM     30  C   UNL     1       1.838  -2.797   1.127  0.00  0.00    -0.003 A 
ATOM     31  C   UNL     1       2.928  -1.972   1.336  0.00  0.00    +0.007 A 
ATOM     32  C   UNL     1       3.981  -2.404   2.120  0.00  0.00    +0.004 A 
ATOM     33  C   UNL     1       3.949  -3.665   2.687  0.00  0.00    -0.050 A 
ATOM     34  C   UNL     1       2.861  -4.491   2.473  0.00  0.00    +0.004 A 
ATOM     35  C   UNL     1       1.806  -4.057   1.693  0.00  0.00    +0.007 A 
ATOM     36  C   UNL     1       5.099  -4.138   3.538  0.00  0.00    +0.044 C 
ENDBRANCH  22  30
BRANCH  22  37
ATOM     37  O   UNL     1      -0.530  -2.890   0.764  0.00  0.00    -0.371 OA
ATOM     38  H   UNL     1      -0.546  -3.857   0.753  0.00  0.00    +0.212 HD
ENDBRANCH  22  37
ENDBRANCH   2  22
TORSDOF 10
