REMARK  Name = ZINC14979284
REMARK  12 active torsions:
REMARK  status: ('A' for Active; 'I' for Inactive)
REMARK    1  A    between atoms: C_1  and  C_2
REMARK    2  A    between atoms: C_3  and  C_4
REMARK    3  A    between atoms: C_3  and  C_5
REMARK    4  A    between atoms: C_10  and  C_13
REMARK    5  A    between atoms: C_13  and  C_26
REMARK    6  A    between atoms: N_16  and  C_20
REMARK    7  A    between atoms: C_20  and  C_21
REMARK    8  A    between atoms: C_21  and  C_22
REMARK    9  A    between atoms: C_22  and  N_23
REMARK   10  A    between atoms: N_23  and  C_24
REMARK   11  A    between atoms: N_23  and  C_25
REMARK   12  A    between atoms: C_26  and  C_27
REMARK                            x       y       z     vdW  Elec       q    Type
REMARK                         _______ _______ _______ _____ _____    ______ ____
ROOT
ATOM      1  C   UNL     1       0.589  -4.271  -6.022  0.00  0.00    +0.119 C 
ATOM      2  C   UNL     1      -0.704  -3.510  -6.236  0.00  0.00    +0.247 C 
ATOM      3  O   UNL     1      -1.720  -3.591  -5.579  0.00  0.00    -0.273 OA
ATOM      4  N   UNL     1      -0.490  -2.723  -7.309  0.00  0.00    -0.224 N 
ATOM      5  C   UNL     1       0.745  -2.879  -7.797  0.00  0.00    +0.309 C 
ATOM      6  O   UNL     1       1.172  -2.277  -8.763  0.00  0.00    -0.252 OA
ATOM      7  N   UNL     1       1.463  -3.779  -7.100  0.00  0.00    -0.284 N 
ATOM      8  H   UNL     1       2.378  -4.050  -7.274  0.00  0.00    +0.151 HD
ENDROOT
BRANCH   1  14
ATOM      9  C   UNL     1       0.624  -2.138  -1.006  0.00  0.00    +0.242 C 
ATOM     10  O   UNL     1       0.694  -0.925  -0.965  0.00  0.00    -0.270 OA
ATOM     11  N   UNL     1       1.124  -2.808  -2.062  0.00  0.00    -0.298 N 
ATOM     12  C   UNL     1       1.871  -2.100  -3.112  0.00  0.00    +0.108 C 
ATOM     13  C   UNL     1       1.240  -2.425  -4.470  0.00  0.00    +0.025 C 
ATOM     14  C   UNL     1       1.186  -3.944  -4.652  0.00  0.00    +0.025 C 
ATOM     15  C   UNL     1       0.315  -4.560  -3.555  0.00  0.00    +0.025 C 
ATOM     16  C   UNL     1       0.940  -4.260  -2.184  0.00  0.00    +0.108 C 
BRANCH   9  19
ATOM     17  C   UNL     1       0.096  -4.179   2.181  0.00  0.00    +0.035 C 
ATOM     18  C   UNL     1       0.744  -3.424   1.049  0.00  0.00    -0.022 C 
ATOM     19  C   UNL     1      -0.009  -2.875   0.100  0.00  0.00    +0.007 C 
ATOM     20  C   UNL     1      -1.509  -3.008   0.156  0.00  0.00    +0.049 C 
ENDBRANCH   9  19
ENDBRANCH   1  14
BRANCH   4  21
ATOM     21  C   UNL     1      -1.488  -1.809  -7.871  0.00  0.00    +0.116 C 
BRANCH  21  22
ATOM     22  C   UNL     1      -1.360  -0.439  -7.201  0.00  0.00    +0.001 C 
BRANCH  22  23
ATOM     23  C   UNL     1      -2.402   0.515  -7.788  0.00  0.00    -0.078 C 
BRANCH  23  24
ATOM     24  N   UNL     1      -2.279   1.830  -7.144  0.00  0.00    +0.376 N 
ATOM     25  C   UNL     1      -3.196   2.778  -7.790  0.00  0.00    -0.097 C 
ATOM     26  C   UNL     1      -2.620   1.712  -5.720  0.00  0.00    -0.097 C 
ATOM     27  H   UNL     1      -1.331   2.163  -7.237  0.00  0.00    -0.083 HD
ENDBRANCH  23  24
ENDBRANCH  22  23
ENDBRANCH  21  22
ENDBRANCH   4  21
BRANCH   1  28
ATOM     28  C   UNL     1       0.359  -5.778  -6.161  0.00  0.00    +0.070 C 
BRANCH  28  29
ATOM     29  C   UNL     1      -0.113  -6.087  -7.558  0.00  0.00    -0.042 A 
ATOM     30  C   UNL     1      -1.465  -6.083  -7.848  0.00  0.00    +0.004 A 
ATOM     31  C   UNL     1      -1.899  -6.367  -9.129  0.00  0.00    +0.003 A 
ATOM     32  C   UNL     1      -0.982  -6.655 -10.122  0.00  0.00    +0.038 A 
ATOM     33  C   UNL     1       0.372  -6.660  -9.834  0.00  0.00    +0.124 A 
ATOM     34  C   UNL     1       0.806  -6.369  -8.551  0.00  0.00    +0.042 A 
ATOM     35  F   UNL     1       1.269  -6.942 -10.803  0.00  0.00    -0.205 F 
ENDBRANCH  28  29
ENDBRANCH   1  28
TORSDOF 8
