REMARK  Name = ZINC39856761
REMARK  6 active torsions:
REMARK  status: ('A' for Active; 'I' for Inactive)
REMARK    1  A    between atoms: C_4  and  N_7
REMARK    2  A    between atoms: C_8  and  C_10
REMARK    3  A    between atoms: C_10  and  C_11
REMARK    4  A    between atoms: N_17  and  N_18
REMARK    5  A    between atoms: C_19  and  C_20
REMARK    6  A    between atoms: C_23  and  C_25
REMARK                            x       y       z     vdW  Elec       q    Type
REMARK                         _______ _______ _______ _____ _____    ______ ____
ROOT
ATOM      1  C   UNL     1       4.708  -4.227   0.249  0.00  0.00    +0.149 C 
ATOM      2  C   UNL     1       6.014  -5.002   0.319  0.00  0.00    +0.233 C 
ATOM      3  O   UNL     1       6.826  -4.980  -0.582  0.00  0.00    -0.274 OA
ATOM      4  N   UNL     1       6.210  -5.701   1.423  0.00  0.00    -0.263 N 
ATOM      5  C   UNL     1       5.292  -5.732   2.452  0.00  0.00    +0.183 C 
ATOM      6  N   UNL     1       5.371  -6.385   3.593  0.00  0.00    -0.127 NA
ATOM      7  S   UNL     1       3.970  -4.677   1.874  0.00  0.00    -0.075 S 
ATOM      8  H   UNL     1       7.029  -6.213   1.513  0.00  0.00    +0.157 HD
ENDROOT
BRANCH   6   9
ATOM      9  N   UNL     1       4.412  -6.301   4.452  0.00  0.00    -0.152 NA
ATOM     10  C   UNL     1       4.491  -6.951   5.587  0.00  0.00    +0.181 C 
BRANCH  10  11
ATOM     11  C   UNL     1       3.438  -6.859   6.530  0.00  0.00    +0.148 A 
ATOM     12  C   UNL     1       3.394  -7.483   7.760  0.00  0.00    +0.051 A 
ATOM     13  C   UNL     1       2.181  -7.118   8.356  0.00  0.00    +0.050 A 
ATOM     14  C   UNL     1       1.536  -6.295   7.481  0.00  0.00    +0.136 A 
ATOM     15  O   UNL     1       2.305  -6.140   6.386  0.00  0.00    -0.454 OA
BRANCH  14  16
ATOM     16  C   UNL     1       0.216  -5.671   7.700  0.00  0.00    +0.017 A 
ATOM     17  C   UNL     1      -0.480  -5.902   8.889  0.00  0.00    +0.013 A 
ATOM     18  C   UNL     1      -1.713  -5.316   9.087  0.00  0.00    +0.021 A 
ATOM     19  C   UNL     1      -2.261  -4.501   8.111  0.00  0.00    +0.041 A 
ATOM     20  C   UNL     1      -1.576  -4.269   6.929  0.00  0.00    +0.021 A 
ATOM     21  C   UNL     1      -0.340  -4.843   6.721  0.00  0.00    +0.013 A 
ATOM     22 CL   UNL     1      -3.813  -3.768   8.368  0.00  0.00    -0.084 Cl
ENDBRANCH  14  16
ENDBRANCH  10  11
ENDBRANCH   6   9
BRANCH   1  23
ATOM     23  C   UNL     1       4.962  -2.721   0.153  0.00  0.00    +0.120 C 
BRANCH  23  25
ATOM     24  N   UNL     1       3.622  -0.651  -0.037  0.00  0.00    -0.285 N 
ATOM     25  C   UNL     1       3.645  -1.995   0.057  0.00  0.00    +0.219 C 
ATOM     26  O   UNL     1       2.606  -2.620   0.064  0.00  0.00    -0.275 OA
ATOM     27  H   UNL     1       4.452  -0.156  -0.121  0.00  0.00    +0.155 HD
BRANCH  24  31
ATOM     28  C   UNL     1      -0.015   1.381   0.029  0.00  0.00    +0.000 A 
ATOM     29  C   UNL     1       0.140   0.218   0.763  0.00  0.00    +0.002 A 
ATOM     30  C   UNL     1       1.344  -0.457   0.743  0.00  0.00    +0.023 A 
ATOM     31  C   UNL     1       2.400   0.031  -0.015  0.00  0.00    +0.033 A 
ATOM     32  C   UNL     1       2.241   1.198  -0.751  0.00  0.00    +0.023 A 
ATOM     33  C   UNL     1       1.034   1.870  -0.727  0.00  0.00    +0.002 A 
ENDBRANCH  24  31
ENDBRANCH  23  25
ENDBRANCH   1  23
TORSDOF 6
