REMARK  Name = ZINC34779783
REMARK  11 active torsions:
REMARK  status: ('A' for Active; 'I' for Inactive)
REMARK    1  A    between atoms: C_1  and  C_2
REMARK    2  A    between atoms: C_5  and  C_34
REMARK    3  A    between atoms: C_6  and  C_8
REMARK    4  A    between atoms: C_8  and  N_9
REMARK    5  A    between atoms: C_13  and  C_33
REMARK    6  A    between atoms: C_14  and  C_29
REMARK    7  A    between atoms: N_17  and  C_20
REMARK    8  A    between atoms: C_20  and  C_21
REMARK    9  A    between atoms: C_23  and  C_28
REMARK   10  A    between atoms: C_26  and  C_27
REMARK   11  A    between atoms: N_31  and  N_32
REMARK                            x       y       z     vdW  Elec       q    Type
REMARK                         _______ _______ _______ _____ _____    ______ ____
ROOT
ATOM      1  N   UNL     1       1.014  -3.460   2.929  0.00  0.00    -0.256 N 
ATOM      2  C   UNL     1       1.675  -4.532   2.460  0.00  0.00    +0.265 A 
ATOM      3  O   UNL     1       1.180  -5.231   1.596  0.00  0.00    -0.267 OA
ATOM      4  C   UNL     1       3.016  -4.852   3.007  0.00  0.00    +0.074 A 
ATOM      5  C   UNL     1       3.870  -5.908   2.667  0.00  0.00    -0.017 A 
ATOM      6  C   UNL     1       5.064  -5.981   3.325  0.00  0.00    +0.081 A 
ATOM      7  S   UNL     1       4.994  -4.576   4.419  0.00  0.00    -0.065 S 
ATOM      8  C   UNL     1       3.491  -3.980   3.998  0.00  0.00    +0.098 A 
ATOM      9  N   UNL     1       2.746  -2.913   4.414  0.00  0.00    -0.283 N 
ATOM     10  C   UNL     1       1.536  -2.666   3.878  0.00  0.00    +0.333 A 
ATOM     11  O   UNL     1       0.900  -1.705   4.266  0.00  0.00    -0.246 OA
ATOM     12  C   UNL     1       3.488  -6.921   1.618  0.00  0.00    +0.046 C 
ENDROOT
BRANCH   6  13
ATOM     13  C   UNL     1       6.135  -6.968   3.171  0.00  0.00    +0.264 C 
ATOM     14  O   UNL     1       6.017  -7.874   2.367  0.00  0.00    -0.268 OA
ATOM     15  N   UNL     1       7.252  -6.872   3.919  0.00  0.00    -0.249 N 
ATOM     16  H   UNL     1       7.347  -6.150   4.560  0.00  0.00    +0.169 HD
BRANCH  15  17
ATOM     17  N   UNL     1       8.251  -7.793   3.775  0.00  0.00    -0.254 NA
ATOM     18  H   UNL     1       8.565  -7.839   2.818  0.00  0.00    +0.140 HD
ATOM     19  H   UNL     1       9.019  -7.593   4.398  0.00  0.00    +0.140 HD
ENDBRANCH  15  17
ENDBRANCH   6  13
BRANCH   1  20
ATOM     20  C   UNL     1      -0.310  -3.145   2.387  0.00  0.00    +0.165 C 
BRANCH  20  26
ATOM     21  C   UNL     1       2.616  -1.030  -1.078  0.00  0.00    +0.044 C 
ATOM     22  C   UNL     1       1.243  -1.309  -0.523  0.00  0.00    -0.050 A 
ATOM     23  C   UNL     1       0.124  -0.810  -1.164  0.00  0.00    +0.003 A 
ATOM     24  C   UNL     1      -1.135  -1.066  -0.655  0.00  0.00    +0.004 A 
ATOM     25  C   UNL     1      -1.276  -1.822   0.495  0.00  0.00    -0.046 A 
ATOM     26  C   UNL     1      -0.157  -2.322   1.134  0.00  0.00    -0.024 A 
ATOM     27  C   UNL     1       1.103  -2.069   0.623  0.00  0.00    +0.009 A 
ATOM     28  C   UNL     1      -2.648  -2.100   1.050  0.00  0.00    +0.044 C 
ENDBRANCH  20  26
ENDBRANCH   1  20
BRANCH   9  29
ATOM     29  C   UNL     1       3.274  -2.023   5.451  0.00  0.00    +0.162 C 
BRANCH  29  30
ATOM     30  C   UNL     1       4.169  -0.989   4.818  0.00  0.00    -0.024 A 
ATOM     31  C   UNL     1       4.295  -0.932   3.442  0.00  0.00    +0.009 A 
ATOM     32  C   UNL     1       5.116   0.016   2.861  0.00  0.00    -0.050 A 
ATOM     33  C   UNL     1       5.811   0.908   3.656  0.00  0.00    +0.003 A 
ATOM     34  C   UNL     1       5.686   0.852   5.032  0.00  0.00    +0.004 A 
ATOM     35  C   UNL     1       4.861  -0.094   5.612  0.00  0.00    -0.046 A 
ATOM     36  C   UNL     1       4.720  -0.152   7.111  0.00  0.00    +0.044 C 
ATOM     37  C   UNL     1       5.253   0.077   1.362  0.00  0.00    +0.044 C 
ENDBRANCH  29  30
ENDBRANCH   9  29
TORSDOF 6
