REMARK  Name = ZINC08716727
REMARK  2 active torsions:
REMARK  status: ('A' for Active; 'I' for Inactive)
REMARK    1  A    between atoms: N_10  and  S_11
REMARK    2  A    between atoms: S_11  and  C_14
REMARK                            x       y       z     vdW  Elec       q    Type
REMARK                         _______ _______ _______ _____ _____    ______ ____
ROOT
ATOM      1  S   UNL     1      -3.243   7.705  -0.003  0.00  0.00    +0.074 S 
ATOM      2  O   UNL     1      -1.944   7.157  -0.180  0.00  0.00    -0.150 OA
ATOM      3  O   UNL     1      -3.498   9.101  -0.072  0.00  0.00    -0.150 OA
ENDROOT
BRANCH   1   4
ATOM      4  C   UNL     1      -3.805   7.168   1.579  0.00  0.00    +0.116 A 
ATOM      5  C   UNL     1      -4.320   8.061   2.478  0.00  0.00    +0.031 A 
ATOM      6  C   UNL     1      -4.785   7.694   3.740  0.00  0.00    +0.026 A 
ATOM      7  C   UNL     1      -4.728   6.371   4.139  0.00  0.00    +0.042 A 
ATOM      8  C   UNL     1      -4.197   5.476   3.217  0.00  0.00    +0.017 A 
ATOM      9  C   UNL     1      -3.729   5.814   1.947  0.00  0.00    +0.011 A 
ATOM     10  C   UNL     1      -3.224   4.773   1.149  0.00  0.00    +0.010 A 
ATOM     11  C   UNL     1      -3.216   3.499   1.650  0.00  0.00    +0.001 A 
ATOM     12  C   UNL     1      -3.688   3.177   2.922  0.00  0.00    +0.014 A 
ATOM     13  C   UNL     1      -4.193   4.173   3.739  0.00  0.00    +0.047 A 
ATOM     14  C   UNL     1      -4.773   4.321   5.079  0.00  0.00    +0.249 C 
ATOM     15  O   UNL     1      -4.955   3.425   5.882  0.00  0.00    -0.270 OA
ATOM     16  N   UNL     1      -5.071   5.634   5.266  0.00  0.00    -0.281 N 
ATOM     17  H   UNL     1      -5.466   6.003   6.071  0.00  0.00    +0.155 HD
ENDBRANCH   1   4
BRANCH   1  27
ATOM     18  C   UNL     1     -10.075   7.466  -2.657  0.00  0.00    +0.002 A 
ATOM     19  C   UNL     1     -10.355   8.310  -1.592  0.00  0.00    +0.001 A 
ATOM     20  C   UNL     1      -9.338   8.669  -0.727  0.00  0.00    +0.017 A 
ATOM     21  C   UNL     1      -8.072   8.177  -0.928  0.00  0.00    +0.041 A 
ATOM     22  C   UNL     1      -7.750   7.316  -2.001  0.00  0.00    +0.080 A 
ATOM     23  C   UNL     1      -8.813   6.974  -2.868  0.00  0.00    +0.029 A 
ATOM     24  N   UNL     1      -6.460   6.920  -2.067  0.00  0.00    -0.224 NA
ATOM     25  C   UNL     1      -5.558   7.308  -1.194  0.00  0.00    +0.179 A 
ATOM     26  S   UNL     1      -6.510   8.354  -0.101  0.00  0.00    -0.051 S 
ATOM     27  N   UNL     1      -4.216   6.989  -1.136  0.00  0.00    -0.194 N 
ATOM     28  H   UNL     1      -3.843   6.347  -1.760  0.00  0.00    +0.176 HD
ENDBRANCH   1  27
TORSDOF 2
