REMARK  Name = ZINC64052676
REMARK  9 active torsions:
REMARK  status: ('A' for Active; 'I' for Inactive)
REMARK    1  A    between atoms: C_1  and  C_2
REMARK    2  A    between atoms: C_5  and  C_8
REMARK    3  A    between atoms: C_8  and  N_9
REMARK    4  A    between atoms: C_12  and  C_16
REMARK    5  A    between atoms: C_13  and  C_15
REMARK    6  A    between atoms: C_16  and  O_18
REMARK    7  A    between atoms: O_18  and  C_19
REMARK    8  A    between atoms: C_19  and  C_20
REMARK    9  A    between atoms: C_20  and  C_22
REMARK                            x       y       z     vdW  Elec       q    Type
REMARK                         _______ _______ _______ _____ _____    ______ ____
ROOT
ATOM      1  N   UNL     1       1.451  -4.747  -0.032  0.00  0.00    -0.203 NA
ATOM      2  C   UNL     1       1.510  -6.221   0.036  0.00  0.00    +0.205 C 
ATOM      3  C   UNL     1       2.251  -6.616  -1.225  0.00  0.00    +0.087 C 
ATOM      4  C   UNL     1       2.539  -5.465  -1.869  0.00  0.00    +0.029 C 
ATOM      5  N   UNL     1       2.081  -4.386  -1.187  0.00  0.00    -0.280 N 
ATOM      6  C   UNL     1       3.277  -5.389  -3.180  0.00  0.00    +0.062 C 
ATOM      7 CL   UNL     1       2.420  -6.750   1.499  0.00  0.00    -0.098 Cl
ATOM      8  H   UNL     1       2.188  -3.469  -1.484  0.00  0.00    +0.166 HD
ENDROOT
BRANCH   3   9
ATOM      9  C   UNL     1       2.575  -7.925  -1.643  0.00  0.00    +0.340 C 
ATOM     10  O   UNL     1       3.177  -8.099  -2.686  0.00  0.00    -0.245 OA
BRANCH   9  11
ATOM     11  O   UNL     1       2.216  -8.983  -0.886  0.00  0.00    -0.453 OA
BRANCH  11  12
ATOM     12  C   UNL     1       2.577 -10.279  -1.370  0.00  0.00    +0.311 C 
BRANCH  12  13
ATOM     13  C   UNL     1       2.098 -11.328  -0.400  0.00  0.00    +0.199 C 
ATOM     14  O   UNL     1       1.505 -10.999   0.607  0.00  0.00    -0.289 OA
BRANCH  13  15
ATOM     15  C   UNL     1       2.337 -12.694  -0.663  0.00  0.00    +0.026 C 
ATOM     16  C   UNL     1       1.962 -13.774   0.116  0.00  0.00    +0.006 A 
ATOM     17  C   UNL     1       1.266 -13.880   1.343  0.00  0.00    +0.010 A 
ATOM     18  C   UNL     1       1.032 -15.094   1.891  0.00  0.00    +0.001 A 
ATOM     19  C   UNL     1       1.456 -16.288   1.286  0.00  0.00    +0.002 A 
ATOM     20  C   UNL     1       2.128 -16.297   0.115  0.00  0.00    +0.026 A 
ATOM     21  C   UNL     1       2.424 -15.017  -0.550  0.00  0.00    +0.043 A 
ATOM     22  N   UNL     1       3.042 -14.736  -1.662  0.00  0.00    -0.380 N 
ATOM     23  C   UNL     1       3.053 -13.283  -1.858  0.00  0.00    +0.152 C 
ATOM     24  H   UNL     1       3.431 -15.387  -2.267  0.00  0.00    +0.160 HD
ENDBRANCH  13  15
ENDBRANCH  12  13
ENDBRANCH  11  12
ENDBRANCH   9  11
ENDBRANCH   3   9
BRANCH   1  25
ATOM     25  C   UNL     1       0.059  -4.275  -0.021  0.00  0.00    +0.142 C 
BRANCH  25  30
ATOM     26  C   UNL     1      -0.018   1.503   0.010  0.00  0.00    +0.044 C 
ATOM     27  C   UNL     1       0.002  -0.004   0.002  0.00  0.00    -0.050 A 
ATOM     28  C   UNL     1       0.006  -0.689  -1.199  0.00  0.00    +0.003 A 
ATOM     29  C   UNL     1       0.025  -2.071  -1.206  0.00  0.00    +0.005 A 
ATOM     30  C   UNL     1       0.040  -2.768  -0.013  0.00  0.00    -0.032 A 
ATOM     31  C   UNL     1       0.037  -2.084   1.188  0.00  0.00    +0.005 A 
ATOM     32  C   UNL     1       0.023  -0.702   1.195  0.00  0.00    +0.003 A 
ENDBRANCH  25  30
ENDBRANCH   1  25
TORSDOF 7
