REMARK  Name = ZINC14472856
REMARK  8 active torsions:
REMARK  status: ('A' for Active; 'I' for Inactive)
REMARK    1  A    between atoms: C_1  and  C_2
REMARK    2  A    between atoms: C_2  and  C_3
REMARK    3  A    between atoms: C_2  and  C_4
REMARK    4  A    between atoms: C_2  and  N_5
REMARK    5  A    between atoms: N_5  and  S_6
REMARK    6  A    between atoms: S_6  and  C_9
REMARK    7  A    between atoms: C_22  and  C_25
REMARK    8  A    between atoms: C_27  and  N_32
REMARK                            x       y       z     vdW  Elec       q    Type
REMARK                         _______ _______ _______ _____ _____    ______ ____
ROOT
ATOM      1  C   UNL     1      -3.279  -1.311   1.724  0.00  0.00    +0.106 A 
ATOM      2  C   UNL     1      -3.470  -2.675   1.601  0.00  0.00    +0.030 A 
ATOM      3  C   UNL     1      -2.386  -3.528   1.580  0.00  0.00    +0.025 A 
ATOM      4  C   UNL     1      -1.095  -3.024   1.681  0.00  0.00    +0.031 A 
ATOM      5  C   UNL     1      -0.909  -1.641   1.793  0.00  0.00    -0.018 A 
ATOM      6  C   UNL     1      -1.999  -0.799   1.819  0.00  0.00    +0.034 A 
ATOM      7  C   UNL     1       0.482  -1.144   1.877  0.00  0.00    +0.049 C 
ATOM      8  C   UNL     1       0.818   0.136   2.551  0.00  0.00    -0.023 C 
ATOM      9  C   UNL     1       2.034   0.034   3.075  0.00  0.00    -0.030 C 
ATOM     10  C   UNL     1       2.599  -1.364   2.813  0.00  0.00    +0.033 C 
ATOM     11  C   UNL     1       1.317  -2.194   2.670  0.00  0.00    +0.029 C 
ATOM     12  C   UNL     1       1.381  -3.419   1.775  0.00  0.00    +0.106 C 
ATOM     13  N   UNL     1      -0.011  -3.910   1.674  0.00  0.00    -0.336 N 
ATOM     14  H   UNL     1      -0.175  -4.863   1.601  0.00  0.00    +0.147 HD
ENDROOT
BRANCH  12  15
ATOM     15  C   UNL     1       1.900  -3.041   0.411  0.00  0.00    -0.007 A 
ATOM     16  C   UNL     1       1.014  -2.763  -0.613  0.00  0.00    +0.039 A 
ATOM     17  C   UNL     1       1.490  -2.412  -1.862  0.00  0.00    +0.127 A 
ATOM     18  C   UNL     1       2.852  -2.349  -2.091  0.00  0.00    +0.034 A 
ATOM     19  C   UNL     1       3.739  -2.632  -1.069  0.00  0.00    +0.022 A 
ATOM     20  C   UNL     1       3.263  -2.978   0.183  0.00  0.00    +0.046 A 
ATOM     21 CL   UNL     1       4.376  -3.334   1.467  0.00  0.00    -0.083 Cl
BRANCH  17  22
ATOM     22  N   UNL     1       0.541  -2.108  -2.957  0.00  0.00    +0.056 N 
ATOM     23  O   UNL     1       0.960  -1.804  -4.059  0.00  0.00    -0.126 OA
ATOM     24  O   UNL     1      -0.659  -2.164  -2.755  0.00  0.00    -0.126 OA
ENDBRANCH  17  22
ENDBRANCH  12  15
BRANCH   1  25
ATOM     25  S   UNL     1      -4.667  -0.226   1.758  0.00  0.00    +0.059 S 
ATOM     26  O   UNL     1      -4.288   0.941   1.041  0.00  0.00    -0.153 OA
ATOM     27  O   UNL     1      -5.801  -1.005   1.400  0.00  0.00    -0.153 OA
BRANCH  25  28
ATOM     28  N   UNL     1      -4.889   0.236   3.332  0.00  0.00    -0.185 NA
ATOM     29  H   UNL     1      -4.744   1.159   3.592  0.00  0.00    +0.149 HD
BRANCH  28  31
ATOM     30  C   UNL     1      -4.285  -1.889   4.381  0.00  0.00    +0.029 C 
ATOM     31  C   UNL     1      -5.304  -0.750   4.333  0.00  0.00    +0.032 C 
ATOM     32  C   UNL     1      -5.384  -0.080   5.707  0.00  0.00    +0.029 C 
ATOM     33  C   UNL     1      -6.678  -1.310   3.959  0.00  0.00    +0.029 C 
ENDBRANCH  28  31
ENDBRANCH  25  28
ENDBRANCH   1  25
TORSDOF 5
