REMARK  Name = ZINC66190002
REMARK  9 active torsions:
REMARK  status: ('A' for Active; 'I' for Inactive)
REMARK    1  A    between atoms: C_1  and  C_2
REMARK    2  A    between atoms: C_2  and  C_3
REMARK    3  A    between atoms: C_3  and  N_4
REMARK    4  A    between atoms: C_7  and  N_10
REMARK    5  A    between atoms: N_10  and  C_11
REMARK    6  A    between atoms: N_14  and  C_15
REMARK    7  A    between atoms: C_15  and  C_17
REMARK    8  A    between atoms: C_15  and  C_18
REMARK    9  A    between atoms: C_22  and  N_24
REMARK                            x       y       z     vdW  Elec       q    Type
REMARK                         _______ _______ _______ _____ _____    ______ ____
ROOT
ATOM      1  N   UNL     1       1.946  -6.016   1.331  0.00  0.00    -0.286 N 
ATOM      2  C   UNL     1       0.636  -6.662   1.222  0.00  0.00    +0.134 C 
ATOM      3  C   UNL     1       3.063  -6.766   1.406  0.00  0.00    +0.303 C 
ATOM      4  O   UNL     1       4.151  -6.230   1.497  0.00  0.00    -0.253 OA
ATOM      5  N   UNL     1       2.975  -8.111   1.379  0.00  0.00    -0.293 N 
ATOM      6  H   UNL     1       2.108  -8.539   1.306  0.00  0.00    +0.151 HD
ENDROOT
BRANCH   1  10
ATOM      7  N   UNL     1       0.692  -1.993   1.290  0.00  0.00    +0.380 N 
ATOM      8  C   UNL     1       1.484  -2.449   0.142  0.00  0.00    -0.077 C 
ATOM      9  C   UNL     1       1.453  -3.977   0.070  0.00  0.00    +0.004 C 
ATOM     10  C   UNL     1       2.042  -4.555   1.361  0.00  0.00    +0.074 C 
ATOM     11  C   UNL     1       1.254  -4.014   2.557  0.00  0.00    +0.004 C 
ATOM     12  C   UNL     1       1.292  -2.484   2.536  0.00  0.00    -0.077 C 
ATOM     13  H   UNL     1      -0.249  -2.348   1.209  0.00  0.00    -0.082 HD
BRANCH   7  14
ATOM     14  C   UNL     1       0.660  -0.524   1.309  0.00  0.00    -0.079 C 
BRANCH  14  16
ATOM     15  C   UNL     1      -0.111   1.515   0.089  0.00  0.00    +0.002 C 
ATOM     16  C   UNL     1      -0.078  -0.014   0.070  0.00  0.00    -0.022 C 
ENDBRANCH  14  16
ENDBRANCH   7  14
ENDBRANCH   1  10
BRANCH   5  17
ATOM     17  C   UNL     1       4.190  -8.927   1.460  0.00  0.00    +0.102 C 
ATOM     18  C   UNL     1       4.792  -9.085   0.062  0.00  0.00    +0.033 C 
BRANCH  17  19
ATOM     19  C   UNL     1       3.847 -10.285   2.016  0.00  0.00    -0.026 A 
ATOM     20  C   UNL     1       2.684 -10.920   1.618  0.00  0.00    +0.005 A 
ATOM     21  C   UNL     1       2.366 -12.166   2.125  0.00  0.00    +0.002 A 
ATOM     22  C   UNL     1       3.209 -12.781   3.031  0.00  0.00    +0.023 A 
ATOM     23  C   UNL     1       4.377 -12.146   3.432  0.00  0.00    +0.037 A 
ATOM     24  C   UNL     1       4.696 -10.896   2.917  0.00  0.00    +0.029 A 
BRANCH  23  25
ATOM     25  N   UNL     1       5.232 -12.765   4.350  0.00  0.00    -0.271 N 
ATOM     26  C   UNL     1       6.540 -12.234   4.751  0.00  0.00    +0.114 C 
ATOM     27  C   UNL     1       6.906 -12.980   6.054  0.00  0.00    +0.029 C 
ATOM     28  C   UNL     1       6.101 -14.291   5.902  0.00  0.00    +0.098 C 
ATOM     29  C   UNL     1       4.960 -13.920   4.981  0.00  0.00    +0.220 C 
ATOM     30  O   UNL     1       3.947 -14.571   4.832  0.00  0.00    -0.275 OA
ENDBRANCH  23  25
ENDBRANCH  17  19
ENDBRANCH   5  17
TORSDOF 6
