REMARK  Name = ZINC63290960
REMARK  9 active torsions:
REMARK  status: ('A' for Active; 'I' for Inactive)
REMARK    1  A    between atoms: C_1  and  C_2
REMARK    2  A    between atoms: C_2  and  O_3
REMARK    3  A    between atoms: O_3  and  C_4
REMARK    4  A    between atoms: C_4  and  C_6
REMARK    5  A    between atoms: C_8  and  N_17
REMARK    6  A    between atoms: C_18  and  C_20
REMARK    7  A    between atoms: C_20  and  N_21
REMARK    8  A    between atoms: N_21  and  C_22
REMARK    9  A    between atoms: C_30  and  N_37
REMARK                            x       y       z     vdW  Elec       q    Type
REMARK                         _______ _______ _______ _____ _____    ______ ____
ROOT
ATOM      1  N   UNL     1      -2.075   0.620   5.113  0.00  0.00    +0.388 N 
ATOM      2  H   UNL     1      -2.057   1.415   4.493  0.00  0.00    -0.085 HD
ATOM      3  H   UNL     1      -2.999   0.520   5.506  0.00  0.00    -0.085 HD
ENDROOT
BRANCH   1   4
ATOM      4  C   UNL     1      -1.102   0.820   6.196  0.00  0.00    -0.044 C 
ATOM      5  C   UNL     1      -1.221  -0.320   7.213  0.00  0.00    -0.013 C 
ATOM      6  C   UNL     1      -0.148  -0.212   8.294  0.00  0.00    +0.003 C 
ATOM      7  C   UNL     1      -0.342   1.081   9.105  0.00  0.00    +0.033 C 
ATOM      8  C   UNL     1      -0.448   2.205   8.105  0.00  0.00    -0.040 C 
ATOM      9  C   UNL     1       0.185   3.368   8.014  0.00  0.00    +0.001 A 
ATOM     10  C   UNL     1       1.134   4.040   8.916  0.00  0.00    +0.042 A 
ATOM     11  C   UNL     1       1.616   5.239   8.493  0.00  0.00    +0.127 A 
ATOM     12  C   UNL     1       1.254   5.828   7.278  0.00  0.00    +0.035 A 
ATOM     13  C   UNL     1       0.382   5.285   6.392  0.00  0.00    +0.028 A 
ATOM     14  C   UNL     1      -0.200   4.029   6.730  0.00  0.00    +0.043 A 
ATOM     15  N   UNL     1      -1.071   3.306   6.090  0.00  0.00    -0.379 N 
ATOM     16  C   UNL     1      -1.391   2.142   6.908  0.00  0.00    +0.092 C 
ATOM     17  H   UNL     1      -1.443   3.506   5.217  0.00  0.00    +0.160 HD
BRANCH  11  18
ATOM     18  N   UNL     1       2.573   5.957   9.364  0.00  0.00    +0.056 N 
ATOM     19  O   UNL     1       2.907   5.475  10.422  0.00  0.00    -0.126 OA
ATOM     20  O   UNL     1       3.022   7.025   9.018  0.00  0.00    -0.126 OA
ENDBRANCH  11  18
ENDBRANCH   1   4
BRANCH   1  21
ATOM     21  C   UNL     1      -1.729  -0.595   4.362  0.00  0.00    +0.015 C 
BRANCH  21  23
ATOM     22  N   UNL     1      -2.609  -1.859   2.427  0.00  0.00    -0.304 N 
ATOM     23  C   UNL     1      -2.728  -0.800   3.252  0.00  0.00    +0.197 C 
ATOM     24  O   UNL     1      -3.637  -0.012   3.101  0.00  0.00    -0.278 OA
ATOM     25  H   UNL     1      -1.881  -2.489   2.547  0.00  0.00    +0.150 HD
BRANCH  22  27
ATOM     26  C   UNL     1      -2.881  -2.427   0.017  0.00  0.00    +0.155 C 
ATOM     27  C   UNL     1      -3.579  -2.058   1.347  0.00  0.00    +0.153 C 
ATOM     28  S   UNL     1      -4.553  -3.603   1.589  0.00  0.00    -0.106 S 
ATOM     29  C   UNL     1      -3.579  -4.685   0.569  0.00  0.00    -0.013 C 
ATOM     30  C   UNL     1      -2.776  -3.921  -0.159  0.00  0.00    -0.044 C 
ATOM     31  C   UNL     1      -1.784  -4.538  -1.143  0.00  0.00    +0.032 C 
ATOM     32  C   UNL     1      -1.579  -6.010  -0.791  0.00  0.00    +0.005 C 
ATOM     33  C   UNL     1      -2.941  -6.706  -0.692  0.00  0.00    +0.005 C 
ATOM     34  C   UNL     1      -3.662  -6.186   0.551  0.00  0.00    +0.042 C 
BRANCH  26  35
ATOM     35  C   UNL     1      -1.496  -1.832   0.006  0.00  0.00    +0.317 C 
ATOM     36  O   UNL     1      -0.578  -2.429   0.517  0.00  0.00    -0.250 OA
BRANCH  35  37
ATOM     37  O   UNL     1      -1.283  -0.638  -0.569  0.00  0.00    -0.464 OA
BRANCH  37  39
ATOM     38  C   UNL     1       0.101   1.226  -1.241  0.00  0.00    +0.048 C 
ATOM     39  C   UNL     1       0.054  -0.135  -0.542  0.00  0.00    +0.229 C 
ENDBRANCH  37  39
ENDBRANCH  35  37
ENDBRANCH  26  35
ENDBRANCH  22  27
ENDBRANCH  21  23
ENDBRANCH   1  21
TORSDOF 8
