REMARK  Name = ZINC39711164
REMARK  10 active torsions:
REMARK  status: ('A' for Active; 'I' for Inactive)
REMARK    1  A    between atoms: C_1  and  C_2
REMARK    2  A    between atoms: C_4  and  C_42
REMARK    3  A    between atoms: C_7  and  C_14
REMARK    4  A    between atoms: C_14  and  C_16
REMARK    5  A    between atoms: C_14  and  N_27
REMARK    6  A    between atoms: N_21  and  C_22
REMARK    7  A    between atoms: N_27  and  C_28
REMARK    8  A    between atoms: N_27  and  C_36
REMARK    9  A    between atoms: C_28  and  C_29
REMARK   10  A    between atoms: C_36  and  C_37
REMARK                            x       y       z     vdW  Elec       q    Type
REMARK                         _______ _______ _______ _____ _____    ______ ____
ROOT
ATOM      1  C   UNL     1       1.291  -5.810   1.448  0.00  0.00    -0.010 C 
ENDROOT
BRANCH   1   8
ATOM      2  C   UNL     1      -4.591  -5.260   6.063  0.00  0.00    +0.044 C 
ATOM      3  C   UNL     1      -3.391  -5.006   5.188  0.00  0.00    -0.048 A 
ATOM      4  C   UNL     1      -2.401  -4.136   5.646  0.00  0.00    +0.007 A 
ATOM      5  C   UNL     1      -1.296  -3.868   4.902  0.00  0.00    -0.042 A 
ATOM      6  C   UNL     1      -1.152  -4.510   3.595  0.00  0.00    -0.004 A 
ATOM      7  C   UNL     1      -0.060  -4.271   2.815  0.00  0.00    -0.006 C 
ATOM      8  C   UNL     1       0.006  -4.980   1.476  0.00  0.00    +0.088 C 
ATOM      9  C   UNL     1      -1.144  -5.894   1.116  0.00  0.00    +0.223 C 
ATOM     10  O   UNL     1      -1.142  -6.488   0.055  0.00  0.00    -0.275 OA
ATOM     11  N   UNL     1      -2.151  -6.045   1.960  0.00  0.00    -0.285 N 
ATOM     12  C   UNL     1      -2.213  -5.424   3.138  0.00  0.00    +0.041 A 
ATOM     13  C   UNL     1      -3.314  -5.637   3.987  0.00  0.00    +0.027 A 
ATOM     14  C   UNL     1      -0.238  -2.925   5.414  0.00  0.00    +0.044 C 
ATOM     15  H   UNL     1      -2.878  -6.636   1.710  0.00  0.00    +0.155 HD
ENDBRANCH   1   8
BRANCH   1  16
ATOM     16  C   UNL     1       2.501  -4.875   1.389  0.00  0.00    +0.183 C 
ATOM     17  N   UNL     1       2.477  -3.919   2.513  0.00  0.00    -0.229 N 
ATOM     18  N   UNL     1       2.394  -2.648   1.933  0.00  0.00    -0.064 NA
ATOM     19  N   UNL     1       2.365  -2.688   0.706  0.00  0.00    -0.061 NA
ATOM     20  N   UNL     1       2.426  -3.998   0.205  0.00  0.00    -0.213 N 
ATOM     21  H   UNL     1       2.511  -4.129   3.459  0.00  0.00    +0.172 HD
BRANCH  20  22
ATOM     22  C   UNL     1       2.416  -4.412  -1.201  0.00  0.00    +0.096 C 
ATOM     23  C   UNL     1       3.657  -3.849  -1.925  0.00  0.00    +0.024 C 
ATOM     24  C   UNL     1       3.138  -3.483  -3.338  0.00  0.00    +0.002 C 
ATOM     25  C   UNL     1       1.722  -2.926  -3.048  0.00  0.00    +0.002 C 
ATOM     26  C   UNL     1       1.186  -3.825  -1.915  0.00  0.00    +0.024 C 
ENDBRANCH  20  22
ENDBRANCH   1  16
BRANCH   1  27
ATOM     27  N   UNL     1       1.368  -6.635   2.661  0.00  0.00    +0.392 N 
ATOM     28  H   UNL     1       1.285  -6.044   3.475  0.00  0.00    -0.080 HD
BRANCH  27  29
ATOM     29  C   UNL     1       2.659  -7.336   2.694  0.00  0.00    -0.042 C 
BRANCH  29  30
ATOM     30  C   UNL     1       2.817  -8.156   1.440  0.00  0.00    -0.064 A 
ATOM     31  C   UNL     1       2.250  -9.414   1.361  0.00  0.00    +0.004 A 
ATOM     32  C   UNL     1       2.394 -10.167   0.211  0.00  0.00    +0.038 A 
ATOM     33  C   UNL     1       3.107  -9.661  -0.863  0.00  0.00    +0.123 A 
ATOM     34  C   UNL     1       3.675  -8.400  -0.782  0.00  0.00    +0.038 A 
ATOM     35  C   UNL     1       3.525  -7.647   0.367  0.00  0.00    +0.004 A 
ATOM     36  F   UNL     1       3.250 -10.396  -1.987  0.00  0.00    -0.205 F 
ENDBRANCH  29  30
ENDBRANCH  27  29
BRANCH  27  37
ATOM     37  C   UNL     1       0.277  -7.617   2.655  0.00  0.00    -0.002 C 
BRANCH  37  38
ATOM     38  C   UNL     1       0.314  -8.418   3.931  0.00  0.00    +0.089 A 
ATOM     39  C   UNL     1      -0.391  -8.154   5.046  0.00  0.00    +0.042 A 
ATOM     40  C   UNL     1      -0.053  -9.151   5.990  0.00  0.00    +0.041 A 
ATOM     41  C   UNL     1       0.839  -9.964   5.396  0.00  0.00    +0.195 A 
ATOM     42  O   UNL     1       1.053  -9.518   4.147  0.00  0.00    -0.470 OA
ENDBRANCH  37  38
ENDBRANCH  27  37
ENDBRANCH   1  27
TORSDOF 8
