REMARK  Name = ZINC53631895
REMARK  11 active torsions:
REMARK  status: ('A' for Active; 'I' for Inactive)
REMARK    1  A    between atoms: C_1  and  C_2
REMARK    2  A    between atoms: C_8  and  C_16
REMARK    3  A    between atoms: C_10  and  C_14
REMARK    4  A    between atoms: C_11  and  N_13
REMARK    5  A    between atoms: C_18  and  O_25
REMARK    6  A    between atoms: C_19  and  O_23
REMARK    7  A    between atoms: O_23  and  C_24
REMARK    8  A    between atoms: O_25  and  C_26
REMARK    9  A    between atoms: N_29  and  C_30
REMARK   10  A    between atoms: C_30  and  C_31
REMARK   11  A    between atoms: C_31  and  C_32
REMARK                            x       y       z     vdW  Elec       q    Type
REMARK                         _______ _______ _______ _____ _____    ______ ____
ROOT
ATOM      1  C   UNL     1      -0.019   1.526   0.010  0.00  0.00    +0.032 C 
ATOM      2  C   UNL     1       0.002  -0.004   0.002  0.00  0.00    +0.099 C 
ATOM      3  C   UNL     1       0.673  -0.472  -1.248  0.00  0.00    +0.037 C 
ATOM      4  C   UNL     1       1.754  -1.194  -1.285  0.00  0.00    +0.118 C 
ATOM      5  C   UNL     1       2.485  -1.651  -0.049  0.00  0.00    +0.153 C 
ATOM      6  C   UNL     1       2.567  -3.182  -0.092  0.00  0.00    +0.084 C 
ATOM      7  C   UNL     1       2.926  -3.624  -1.484  0.00  0.00    +0.095 C 
ATOM      8  C   UNL     1       2.761  -2.834  -2.568  0.00  0.00    +0.198 C 
ATOM      9  O   UNL     1       2.282  -1.575  -2.487  0.00  0.00    -0.445 OA
ATOM     10  C   UNL     1       1.776  -1.223   1.196  0.00  0.00    +0.227 C 
ATOM     11  O   UNL     1       2.243  -1.560   2.263  0.00  0.00    -0.275 OA
ATOM     12  N   UNL     1       0.677  -0.472   1.200  0.00  0.00    -0.294 N 
ENDROOT
BRANCH   6  13
ATOM     13  C   UNL     1       3.623  -3.656   0.874  0.00  0.00    -0.033 A 
ATOM     14  C   UNL     1       3.280  -4.505   1.910  0.00  0.00    +0.053 A 
ATOM     15  C   UNL     1       4.249  -4.941   2.799  0.00  0.00    +0.163 A 
ATOM     16  C   UNL     1       5.568  -4.524   2.646  0.00  0.00    +0.175 A 
ATOM     17  C   UNL     1       5.906  -3.673   1.605  0.00  0.00    +0.063 A 
ATOM     18  C   UNL     1       4.934  -3.245   0.718  0.00  0.00    +0.023 A 
ATOM     19 BR   UNL     1       7.696  -3.104   1.393  0.00  0.00    -0.046 Br
BRANCH  16  20
ATOM     20  O   UNL     1       6.522  -4.949   3.516  0.00  0.00    -0.490 OA
ATOM     21  C   UNL     1       7.210  -6.158   3.185  0.00  0.00    +0.277 C 
ENDBRANCH  16  20
BRANCH  15  22
ATOM     22  O   UNL     1       3.912  -5.775   3.819  0.00  0.00    -0.491 OA
ATOM     23  C   UNL     1       2.540  -6.162   3.914  0.00  0.00    +0.277 C 
ENDBRANCH  15  22
ENDBRANCH   6  13
BRANCH   8  24
ATOM     24  N   UNL     1       3.096  -3.333  -3.802  0.00  0.00    -0.328 N 
ATOM     25  H   UNL     1       3.443  -4.235  -3.883  0.00  0.00    +0.145 HD
ATOM     26  H   UNL     1       2.986  -2.783  -4.593  0.00  0.00    +0.145 HD
ENDBRANCH   8  24
BRANCH   7  27
ATOM     27  C   UNL     1       3.465  -4.938  -1.670  0.00  0.00    +0.100 C 
ATOM     28  N   UNL     1       3.893  -5.980  -1.817  0.00  0.00    -0.191 NA
ENDBRANCH   7  27
BRANCH  12  29
ATOM     29  C   UNL     1       0.103  -0.107   2.498  0.00  0.00    +0.114 C 
BRANCH  29  30
ATOM     30  C   UNL     1      -0.897  -1.181   2.932  0.00  0.00    +0.073 C 
BRANCH  30  31
ATOM     31  C   UNL     1      -1.488  -0.806   4.267  0.00  0.00    +0.035 A 
ATOM     32  H   UNL     1      -3.430   0.583   6.274  0.00  0.00    +0.166 HD
ATOM     33  C   UNL     1      -2.542   0.008   4.466  0.00  0.00    +0.105 A 
ATOM     34  N   UNL     1      -2.742   0.074   5.818  0.00  0.00    -0.352 N 
ATOM     35  C   UNL     1      -1.802  -0.703   6.399  0.00  0.00    +0.171 A 
ATOM     36  N   UNL     1      -1.059  -1.230   5.465  0.00  0.00    -0.350 N 
ATOM     37  H   UNL     1      -0.313  -1.832   5.614  0.00  0.00    +0.166 HD
ENDBRANCH  30  31
ENDBRANCH  29  30
ENDBRANCH  12  29
TORSDOF 8
