REMARK  Name = ZINC40743973
REMARK  11 active torsions:
REMARK  status: ('A' for Active; 'I' for Inactive)
REMARK    1  A    between atoms: C_1  and  C_2
REMARK    2  A    between atoms: C_2  and  C_4
REMARK    3  A    between atoms: C_2  and  O_26
REMARK    4  A    between atoms: C_4  and  N_5
REMARK    5  A    between atoms: N_5  and  C_6
REMARK    6  A    between atoms: C_6  and  C_7
REMARK    7  A    between atoms: C_9  and  O_24
REMARK    8  A    between atoms: C_10  and  O_14
REMARK    9  A    between atoms: O_14  and  C_15
REMARK   10  A    between atoms: C_15  and  C_16
REMARK   11  A    between atoms: O_24  and  C_25
REMARK                            x       y       z     vdW  Elec       q    Type
REMARK                         _______ _______ _______ _____ _____    ______ ____
ROOT
ATOM      1  C   UNL     1       1.705  -3.960   2.294  0.00  0.00    -0.060 A 
ATOM      2  C   UNL     1       0.717  -4.762   2.833  0.00  0.00    +0.051 A 
ATOM      3  C   UNL     1       0.832  -6.141   2.770  0.00  0.00    +0.163 A 
ATOM      4  C   UNL     1       1.944  -6.716   2.163  0.00  0.00    +0.176 A 
ATOM      5  C   UNL     1       2.932  -5.907   1.624  0.00  0.00    +0.063 A 
ATOM      6  C   UNL     1       2.808  -4.530   1.686  0.00  0.00    +0.021 A 
ATOM      7 BR   UNL     1       4.445  -6.683   0.798  0.00  0.00    -0.046 Br
ENDROOT
BRANCH   3   8
ATOM      8  O   UNL     1      -0.139  -6.931   3.301  0.00  0.00    -0.491 OA
ATOM      9  C   UNL     1      -1.252  -6.272   3.909  0.00  0.00    +0.277 C 
ENDBRANCH   3   8
BRANCH   1  10
ATOM     10  C   UNL     1       1.577  -2.460   2.364  0.00  0.00    -0.047 C 
BRANCH  10  11
ATOM     11  N   UNL     1       0.867  -1.973   1.174  0.00  0.00    +0.383 N 
ATOM     12  H   UNL     1      -0.052  -2.388   1.138  0.00  0.00    -0.085 HD
ATOM     13  H   UNL     1       1.384  -2.228   0.346  0.00  0.00    -0.085 HD
BRANCH  11  14
ATOM     14  C   UNL     1       0.742  -0.511   1.242  0.00  0.00    -0.051 C 
BRANCH  14  16
ATOM     15  C   UNL     1      -0.019   1.526   0.010  0.00  0.00    +0.035 C 
ATOM     16  C   UNL     1       0.002  -0.004   0.002  0.00  0.00    +0.095 C 
BRANCH  16  17
ATOM     17  O   UNL     1      -1.339  -0.499   0.012  0.00  0.00    -0.394 OA
ATOM     18  H   UNL     1      -1.853  -0.225   0.784  0.00  0.00    +0.210 HD
ENDBRANCH  16  17
ENDBRANCH  14  16
ENDBRANCH  11  14
ENDBRANCH  10  11
ENDBRANCH   1  10
BRANCH   4  19
ATOM     19  O   UNL     1       2.063  -8.070   2.099  0.00  0.00    -0.483 OA
BRANCH  19  20
ATOM     20  C   UNL     1       1.509  -8.716   0.952  0.00  0.00    +0.266 C 
BRANCH  20  21
ATOM     21  C   UNL     1       1.733 -10.203   1.055  0.00  0.00    +0.008 A 
ATOM     22  C   UNL     1       2.386 -10.728   2.154  0.00  0.00    +0.011 A 
ATOM     23  C   UNL     1       2.593 -12.091   2.250  0.00  0.00    +0.039 A 
ATOM     24  C   UNL     1       2.145 -12.931   1.244  0.00  0.00    +0.125 A 
ATOM     25  C   UNL     1       1.491 -12.405   0.144  0.00  0.00    +0.058 A 
ATOM     26  C   UNL     1       1.280 -11.041   0.052  0.00  0.00    +0.050 A 
ATOM     27 CL   UNL     1       0.455 -10.381  -1.325  0.00  0.00    -0.083 Cl
ATOM     28  F   UNL     1       2.348 -14.264   1.337  0.00  0.00    -0.205 F 
ENDBRANCH  20  21
ENDBRANCH  19  20
ENDBRANCH   4  19
TORSDOF 9
