REMARK  Name = ZINC09286471
REMARK  7 active torsions:
REMARK  status: ('A' for Active; 'I' for Inactive)
REMARK    1  A    between atoms: C_4  and  C_7
REMARK    2  A    between atoms: C_7  and  C_8
REMARK    3  A    between atoms: C_7  and  O_14
REMARK    4  A    between atoms: O_14  and  C_15
REMARK    5  A    between atoms: C_18  and  C_22
REMARK    6  A    between atoms: C_22  and  N_62
REMARK    7  A    between atoms: N_25  and  C_28
REMARK                            x       y       z     vdW  Elec       q    Type
REMARK                         _______ _______ _______ _____ _____    ______ ____
ROOT
ATOM      1  C   UNL     1       5.679  -0.677  -1.375  0.00  0.00    +0.203 A 
ATOM      2  C   UNL     1       5.724  -2.023  -1.269  0.00  0.00    +0.244 A 
ATOM      3  O   UNL     1       6.724  -2.724  -1.821  0.00  0.00    -0.466 OA
ATOM      4  C   UNL     1       7.722  -2.133  -2.486  0.00  0.00    +0.092 A 
ATOM      5  C   UNL     1       7.761  -0.793  -2.636  0.00  0.00    +0.094 A 
ATOM      6  C   UNL     1       6.722  -0.009  -2.075  0.00  0.00    +0.226 A 
ATOM      7  O   UNL     1       6.722   1.208  -2.189  0.00  0.00    -0.284 OA
ENDROOT
BRANCH   1   8
ATOM      8  O   UNL     1       4.658   0.028  -0.817  0.00  0.00    -0.473 OA
BRANCH   8   9
ATOM      9  C   UNL     1       3.594  -0.725  -0.231  0.00  0.00    +0.234 C 
BRANCH   9  13
ATOM     10  C   UNL     1       0.032   1.631  -0.196  0.00  0.00    +0.000 A 
ATOM     11  C   UNL     1       1.261   2.234  -0.006  0.00  0.00    +0.000 A 
ATOM     12  C   UNL     1       2.414   1.472  -0.017  0.00  0.00    +0.007 A 
ATOM     13  C   UNL     1       2.337   0.106  -0.218  0.00  0.00    -0.003 A 
ATOM     14  C   UNL     1       1.108  -0.497  -0.408  0.00  0.00    +0.007 A 
ATOM     15  C   UNL     1      -0.045   0.266  -0.397  0.00  0.00    +0.000 A 
ENDBRANCH   9  13
BRANCH   9  16
ATOM     16  C   UNL     1       3.963  -1.099   1.182  0.00  0.00    -0.003 A 
ATOM     17  C   UNL     1       4.620  -0.190   1.989  0.00  0.00    +0.007 A 
ATOM     18  C   UNL     1       4.954  -0.531   3.286  0.00  0.00    +0.000 A 
ATOM     19  C   UNL     1       4.640  -1.786   3.773  0.00  0.00    +0.000 A 
ATOM     20  C   UNL     1       3.987  -2.698   2.964  0.00  0.00    +0.000 A 
ATOM     21  C   UNL     1       3.649  -2.354   1.669  0.00  0.00    +0.007 A 
ENDBRANCH   9  16
ENDBRANCH   8   9
ENDBRANCH   1   8
BRANCH   4  22
ATOM     22  C   UNL     1       8.821  -2.977  -3.079  0.00  0.00    -0.003 C 
BRANCH  22  28
ATOM     23  C   UNL     1      10.559  -1.857  -1.818  0.00  0.00    -0.059 C 
ATOM     24  C   UNL     1      11.618  -2.054  -0.731  0.00  0.00    +0.086 C 
ATOM     25  N   UNL     1      12.593  -3.059  -1.179  0.00  0.00    -0.333 N 
ATOM     26  C   UNL     1      11.933  -4.343  -1.455  0.00  0.00    +0.086 C 
ATOM     27  C   UNL     1      10.873  -4.145  -2.542  0.00  0.00    -0.059 C 
ATOM     28  N   UNL     1       9.888  -3.149  -2.070  0.00  0.00    +0.386 N 
ATOM     29  H   UNL     1       9.468  -3.484  -1.195  0.00  0.00    -0.081 HD
BRANCH  25  30
ATOM     30  C   UNL     1      13.618  -3.214  -0.242  0.00  0.00    +0.031 A 
ATOM     31  C   UNL     1      13.884  -4.467   0.296  0.00  0.00    +0.023 A 
ATOM     32  C   UNL     1      14.901  -4.619   1.218  0.00  0.00    +0.003 A 
ATOM     33  C   UNL     1      15.647  -3.524   1.614  0.00  0.00    +0.020 A 
ATOM     34  C   UNL     1      15.381  -2.273   1.084  0.00  0.00    +0.043 A 
ATOM     35  C   UNL     1      14.368  -2.116   0.157  0.00  0.00    +0.043 A 
ATOM     36 CL   UNL     1      16.320  -0.901   1.585  0.00  0.00    -0.083 Cl
ENDBRANCH  25  30
ENDBRANCH  22  28
ENDBRANCH   4  22
TORSDOF 7
