REMARK  Name = ZINC20366830
REMARK  7 active torsions:
REMARK  status: ('A' for Active; 'I' for Inactive)
REMARK    1  A    between atoms: C_4  and  C_7
REMARK    2  A    between atoms: C_7  and  N_8
REMARK    3  A    between atoms: N_11  and  C_14
REMARK    4  A    between atoms: C_14  and  C_15
REMARK    5  A    between atoms: C_15  and  O_31
REMARK    6  A    between atoms: N_18  and  S_21
REMARK    7  A    between atoms: S_21  and  C_24
REMARK                            x       y       z     vdW  Elec       q    Type
REMARK                         _______ _______ _______ _____ _____    ______ ____
ROOT
ATOM      1  C   UNL     1       7.888  -1.762   4.761  0.00  0.00    +0.081 C 
ATOM      2  C   UNL     1       7.726  -2.990   3.863  0.00  0.00    +0.053 C 
ATOM      3  C   UNL     1       9.058  -3.742   3.788  0.00  0.00    +0.112 C 
ATOM      4  N   UNL     1       9.505  -4.048   5.154  0.00  0.00    -0.176 NA
ATOM      5  C   UNL     1       9.608  -2.952   6.126  0.00  0.00    +0.112 C 
ATOM      6  C   UNL     1       8.270  -2.208   6.175  0.00  0.00    +0.053 C 
ENDROOT
BRANCH   4   7
ATOM      7  S   UNL     1       9.886  -5.600   5.589  0.00  0.00    +0.061 S 
ATOM      8  O   UNL     1       9.728  -5.677   6.999  0.00  0.00    -0.153 OA
ATOM      9  O   UNL     1       9.185  -6.456   4.696  0.00  0.00    -0.153 OA
BRANCH   7  10
ATOM     10  C   UNL     1      11.602  -5.827   5.261  0.00  0.00    +0.106 A 
ATOM     11  C   UNL     1      12.014  -6.285   4.024  0.00  0.00    +0.030 A 
ATOM     12  C   UNL     1      13.361  -6.464   3.767  0.00  0.00    +0.022 A 
ATOM     13  C   UNL     1      14.295  -6.184   4.747  0.00  0.00    +0.041 A 
ATOM     14  C   UNL     1      13.882  -5.726   5.986  0.00  0.00    +0.022 A 
ATOM     15  C   UNL     1      12.536  -5.542   6.240  0.00  0.00    +0.030 A 
ATOM     16 CL   UNL     1      15.986  -6.409   4.425  0.00  0.00    -0.084 Cl
ENDBRANCH   7  10
ENDBRANCH   4   7
BRANCH   1  17
ATOM     17  O   UNL     1       8.914  -0.918   4.235  0.00  0.00    -0.387 OA
ATOM     18  H   UNL     1       9.780  -1.344   4.175  0.00  0.00    +0.210 HD
ENDBRANCH   1  17
BRANCH   1  19
ATOM     19  C   UNL     1       6.568  -0.989   4.811  0.00  0.00    +0.119 C 
BRANCH  19  23
ATOM     20  N   UNL     1       5.009   0.987   1.414  0.00  0.00    +0.384 N 
ATOM     21  C   UNL     1       6.446   0.680   1.436  0.00  0.00    -0.063 C 
ATOM     22  C   UNL     1       6.893   0.435   2.879  0.00  0.00    +0.066 C 
ATOM     23  N   UNL     1       6.127  -0.685   3.443  0.00  0.00    -0.303 NA
ATOM     24  C   UNL     1       4.685  -0.403   3.405  0.00  0.00    +0.066 C 
ATOM     25  C   UNL     1       4.256  -0.151   1.958  0.00  0.00    -0.063 C 
ATOM     26  H   UNL     1       4.832   1.806   1.976  0.00  0.00    -0.081 HD
BRANCH  20  27
ATOM     27  C   UNL     1       4.584   1.240   0.031  0.00  0.00    -0.043 C 
BRANCH  27  31
ATOM     28  C   UNL     1       6.516   4.756  -1.435  0.00  0.00    +0.000 A 
ATOM     29  C   UNL     1       7.113   3.520  -1.599  0.00  0.00    +0.000 A 
ATOM     30  C   UNL     1       6.488   2.382  -1.124  0.00  0.00    +0.002 A 
ATOM     31  C   UNL     1       5.266   2.480  -0.485  0.00  0.00    -0.064 A 
ATOM     32  C   UNL     1       4.669   3.716  -0.321  0.00  0.00    +0.002 A 
ATOM     33  C   UNL     1       5.294   4.854  -0.797  0.00  0.00    +0.000 A 
ENDBRANCH  27  31
ENDBRANCH  20  27
ENDBRANCH  19  23
ENDBRANCH   1  19
TORSDOF 7
