REMARK  Name = ZINC21463741
REMARK  12 active torsions:
REMARK  status: ('A' for Active; 'I' for Inactive)
REMARK    1  A    between atoms: C_1  and  C_2
REMARK    2  A    between atoms: C_2  and  N_3
REMARK    3  A    between atoms: N_3  and  C_4
REMARK    4  A    between atoms: N_3  and  C_6
REMARK    5  A    between atoms: C_4  and  C_5
REMARK    6  A    between atoms: C_6  and  C_8
REMARK    7  A    between atoms: C_6  and  C_28
REMARK    8  A    between atoms: C_8  and  N_9
REMARK    9  A    between atoms: C_10  and  C_12
REMARK   10  A    between atoms: C_12  and  S_13
REMARK   11  A    between atoms: S_13  and  C_14
REMARK   12  A    between atoms: N_26  and  C_27
REMARK                            x       y       z     vdW  Elec       q    Type
REMARK                         _______ _______ _______ _____ _____    ______ ____
ROOT
ATOM      1  N   UNL     1       3.268  -6.342  -0.525  0.00  0.00    -0.316 N 
ATOM      2  C   UNL     1       3.859  -5.140  -0.671  0.00  0.00    +0.223 C 
ATOM      3  O   UNL     1       5.061  -5.036  -0.544  0.00  0.00    -0.275 OA
ATOM      4  H   UNL     1       2.178  -6.437  -0.640  0.00  0.00    +0.149 HD
ENDROOT
BRANCH   1   5
ATOM      5  C   UNL     1       4.076  -7.523  -0.212  0.00  0.00    +0.096 C 
BRANCH   5   6
ATOM      6  C   UNL     1       3.155  -8.716   0.056  0.00  0.00    +0.016 C 
BRANCH   6   7
ATOM      7  C   UNL     1       3.988  -9.938   0.345  0.00  0.00    +0.093 A 
ATOM      8  C   UNL     1       4.250 -10.934  -0.520  0.00  0.00    +0.043 A 
ATOM      9  C   UNL     1       5.063 -11.867   0.163  0.00  0.00    +0.041 A 
ATOM     10  C   UNL     1       5.243 -11.389   1.408  0.00  0.00    +0.195 A 
ATOM     11  O   UNL     1       4.589 -10.221   1.512  0.00  0.00    -0.469 OA
ENDBRANCH   6   7
BRANCH   6  12
ATOM     12  N   UNL     1       2.298  -8.422   1.212  0.00  0.00    +0.387 N 
ATOM     13  H   UNL     1       2.162  -9.356   1.778  0.00  0.00    -0.081 HD
BRANCH  12  15
ATOM     14  C   UNL     1       4.165  -8.072   2.757  0.00  0.00    -0.017 C 
ATOM     15  C   UNL     1       2.933  -7.442   2.103  0.00  0.00    -0.081 C 
ENDBRANCH  12  15
BRANCH  12  16
ATOM     16  C   UNL     1       0.972  -7.959   0.780  0.00  0.00    -0.081 C 
ATOM     17  C   UNL     1       0.143  -9.155   0.308  0.00  0.00    -0.017 C 
ENDBRANCH  12  16
ENDBRANCH   6  12
ENDBRANCH   5   6
ENDBRANCH   1   5
BRANCH   2  18
ATOM     18  C   UNL     1       3.027  -3.925  -0.993  0.00  0.00    +0.173 C 
BRANCH  18  19
ATOM     19  S   UNL     1       4.103  -2.476  -1.126  0.00  0.00    -0.078 S 
BRANCH  19  20
ATOM     20  C   UNL     1       2.904  -1.238  -1.496  0.00  0.00    +0.173 A 
ATOM     21  N   UNL     1       1.633  -1.573  -1.590  0.00  0.00    -0.216 NA
ATOM     22  C   UNL     1       0.709  -0.660  -1.868  0.00  0.00    +0.117 A 
ATOM     23  C   UNL     1       1.033   0.689  -2.074  0.00  0.00    +0.076 A 
ATOM     24  C   UNL     1      -0.095   1.585  -2.375  0.00  0.00    -0.023 A 
ATOM     25  C   UNL     1      -1.317   1.030  -2.420  0.00  0.00    -0.004 A 
ATOM     26  S   UNL     1      -1.052  -0.694  -2.075  0.00  0.00    -0.073 S 
ATOM     27  C   UNL     1      -2.389   2.040  -2.727  0.00  0.00    +0.043 C 
ATOM     28  C   UNL     1      -1.726   3.407  -2.453  0.00  0.00    +0.010 C 
ATOM     29  C   UNL     1      -0.235   3.081  -2.671  0.00  0.00    +0.037 C 
ATOM     30  C   UNL     1       2.419   1.025  -1.966  0.00  0.00    +0.263 A 
ATOM     31  O   UNL     1       2.792   2.174  -2.130  0.00  0.00    -0.267 OA
ATOM     32  N   UNL     1       3.306   0.053  -1.682  0.00  0.00    -0.290 N 
ATOM     33  C   UNL     1       4.728   0.387  -1.569  0.00  0.00    +0.154 C 
ENDBRANCH  19  20
ENDBRANCH  18  19
ENDBRANCH   2  18
TORSDOF 9
