REMARK  Name = ZINC16058391
REMARK  6 active torsions:
REMARK  status: ('A' for Active; 'I' for Inactive)
REMARK    1  A    between atoms: C_5  and  C_6
REMARK    2  A    between atoms: C_8  and  C_11
REMARK    3  A    between atoms: C_11  and  C_12
REMARK    4  A    between atoms: C_12  and  C_13
REMARK    5  A    between atoms: N_15  and  N_16
REMARK    6  A    between atoms: C_17  and  C_19
REMARK                            x       y       z     vdW  Elec       q    Type
REMARK                         _______ _______ _______ _____ _____    ______ ____
ROOT
ATOM      1  C   UNL     1       4.225   5.802  -0.026  0.00  0.00    +0.230 C 
ATOM      2  O   UNL     1       5.153   5.020  -0.027  0.00  0.00    -0.274 OA
ATOM      3  N   UNL     1       2.958   5.343  -0.019  0.00  0.00    -0.234 N 
ATOM      4  H   UNL     1       2.216   5.968  -0.018  0.00  0.00    +0.173 HD
ENDROOT
BRANCH   3   5
ATOM      5  N   UNL     1       2.712   3.964  -0.012  0.00  0.00    -0.230 N 
ATOM      6  C   UNL     1       1.444   3.506  -0.005  0.00  0.00    +0.267 C 
ATOM      7  O   UNL     1       0.514   4.290  -0.004  0.00  0.00    -0.268 OA
ATOM      8  H   UNL     1       3.453   3.339  -0.013  0.00  0.00    +0.173 HD
BRANCH   6   9
ATOM      9  C   UNL     1       1.187   2.063   0.002  0.00  0.00    +0.076 A 
ATOM     10  C   UNL     1      -0.017   1.393   0.010  0.00  0.00    +0.024 A 
ATOM     11  C   UNL     1       0.002  -0.004   0.002  0.00  0.00    -0.036 A 
ATOM     12  C   UNL     1       1.210  -0.601   0.046  0.00  0.00    -0.006 A 
ATOM     13  S   UNL     1       2.348   0.711   0.002  0.00  0.00    -0.088 S 
ATOM     14  C   UNL     1       1.637  -2.039   0.187  0.00  0.00    +0.043 C 
ATOM     15  C   UNL     1       0.445  -2.988   0.319  0.00  0.00    +0.005 C 
ATOM     16  C   UNL     1      -0.170  -3.273  -1.042  0.00  0.00    +0.000 C 
ATOM     17  C   UNL     1      -0.179  -2.057  -1.947  0.00  0.00    +0.000 C 
ATOM     18  C   UNL     1      -1.430  -1.246  -1.597  0.00  0.00    +0.005 C 
ATOM     19  C   UNL     1      -1.314  -0.753  -0.155  0.00  0.00    +0.036 C 
ENDBRANCH   6   9
ENDBRANCH   3   5
BRANCH   1  20
ATOM     20  C   UNL     1       4.490   7.285  -0.033  0.00  0.00    +0.107 C 
BRANCH  20  21
ATOM     21  C   UNL     1       6.000   7.534  -0.041  0.00  0.00    +0.108 C 
BRANCH  21  24
ATOM     22  C   UNL     1       6.626  11.030   0.516  0.00  0.00    +0.203 A 
ATOM     23  N   UNL     1       6.405   9.787   1.003  0.00  0.00    -0.191 NA
ATOM     24  C   UNL     1       6.264   9.017  -0.047  0.00  0.00    +0.228 A 
ATOM     25  O   UNL     1       6.405   9.793  -1.127  0.00  0.00    -0.338 OA
ATOM     26  N   UNL     1       6.606  10.941  -0.790  0.00  0.00    -0.056 NA
BRANCH  22  31
ATOM     27  C   UNL     1       7.072  13.485   0.685  0.00  0.00    +0.019 A 
ATOM     28  C   UNL     1       7.263  14.567   1.472  0.00  0.00    +0.046 A 
ATOM     29  S   UNL     1       7.146  13.872   3.110  0.00  0.00    -0.104 S 
ATOM     30  C   UNL     1       6.848  12.220   2.676  0.00  0.00    +0.057 A 
ATOM     31  C   UNL     1       6.849  12.260   1.312  0.00  0.00    +0.029 A 
ENDBRANCH  22  31
ENDBRANCH  21  24
ENDBRANCH  20  21
ENDBRANCH   1  20
TORSDOF 6
