REMARK  Name = ZINC08622889
REMARK  9 active torsions:
REMARK  status: ('A' for Active; 'I' for Inactive)
REMARK    1  A    between atoms: C_1  and  C_2
REMARK    2  A    between atoms: C_4  and  C_29
REMARK    3  A    between atoms: C_6  and  C_8
REMARK    4  A    between atoms: C_16  and  C_18
REMARK    5  A    between atoms: C_18  and  O_19
REMARK    6  A    between atoms: O_19  and  C_20
REMARK    7  A    between atoms: N_22  and  C_23
REMARK    8  A    between atoms: C_34  and  O_35
REMARK    9  A    between atoms: O_35  and  C_36
REMARK                            x       y       z     vdW  Elec       q    Type
REMARK                         _______ _______ _______ _____ _____    ______ ____
ROOT
ATOM      1  C   UNL     1       4.065  -2.391  -0.044  0.00  0.00    +0.024 C 
ATOM      2  C   UNL     1       2.949  -3.044   0.776  0.00  0.00    -0.068 C 
ATOM      3  C   UNL     1       3.099  -5.076  -0.533  0.00  0.00    -0.078 C 
ATOM      4  C   UNL     1       4.220  -4.481  -1.391  0.00  0.00    -0.015 C 
ATOM      5  C   UNL     1       4.030  -2.961  -1.468  0.00  0.00    -0.007 C 
ATOM      6  C   UNL     1       2.654  -2.669  -2.079  0.00  0.00    -0.008 C 
ATOM      7  C   UNL     1       1.577  -3.315  -1.202  0.00  0.00    -0.030 C 
ATOM      8  N   UNL     1       2.196  -4.010  -0.052  0.00  0.00    +0.384 N 
ATOM      9  H   UNL     1       1.455  -4.433   0.519  0.00  0.00    -0.081 HD
ENDROOT
BRANCH   1  15
ATOM     10  C   UNL     1       4.316   1.824  -2.511  0.00  0.00    +0.088 C 
ATOM     11  C   UNL     1       3.964   1.089  -1.243  0.00  0.00    +0.127 A 
ATOM     12  N   UNL     1       3.483   1.769  -0.223  0.00  0.00    -0.232 NA
ATOM     13  C   UNL     1       3.161   1.153   0.913  0.00  0.00    +0.078 A 
ATOM     14  C   UNL     1       3.348  -0.230   1.008  0.00  0.00    +0.052 A 
ATOM     15  C   UNL     1       3.850  -0.900  -0.092  0.00  0.00    +0.047 A 
ATOM     16  N   UNL     1       4.146  -0.215  -1.187  0.00  0.00    -0.237 NA
BRANCH  13  17
ATOM     17  C   UNL     1       2.620   1.920   2.060  0.00  0.00    +0.042 A 
ATOM     18  C   UNL     1       2.178   1.254   3.202  0.00  0.00    +0.013 A 
ATOM     19  C   UNL     1       1.671   1.973   4.264  0.00  0.00    +0.001 A 
ATOM     20  C   UNL     1       1.608   3.355   4.205  0.00  0.00    +0.004 A 
ATOM     21  C   UNL     1       2.043   4.025   3.079  0.00  0.00    +0.046 A 
ATOM     22  C   UNL     1       2.551   3.316   2.001  0.00  0.00    +0.129 A 
BRANCH  22  23
ATOM     23  O   UNL     1       2.978   3.974   0.893  0.00  0.00    -0.494 OA
ATOM     24  C   UNL     1       2.877   5.399   0.905  0.00  0.00    +0.277 C 
ENDBRANCH  22  23
ENDBRANCH  13  17
ENDBRANCH   1  15
BRANCH   7  25
ATOM     25  C   UNL     1       0.629  -2.235  -0.679  0.00  0.00    +0.218 C 
BRANCH  25  26
ATOM     26  O   UNL     1      -0.415  -2.852   0.120  0.00  0.00    -0.452 OA
BRANCH  26  27
ATOM     27  C   UNL     1      -1.278  -2.027   0.742  0.00  0.00    +0.400 C 
ATOM     28  O   UNL     1      -1.220  -0.829   0.547  0.00  0.00    -0.226 OA
ATOM     29  N   UNL     1      -2.205  -2.529   1.581  0.00  0.00    -0.278 N 
ATOM     30  H   UNL     1      -2.251  -3.486   1.737  0.00  0.00    +0.152 HD
BRANCH  29  31
ATOM     31  C   UNL     1      -3.144  -1.631   2.258  0.00  0.00    +0.076 C 
ATOM     32  C   UNL     1      -2.498  -1.085   3.533  0.00  0.00    +0.022 C 
ATOM     33  C   UNL     1      -3.479  -0.147   4.240  0.00  0.00    +0.002 C 
ATOM     34  C   UNL     1      -4.750  -0.917   4.601  0.00  0.00    +0.000 C 
ATOM     35  C   UNL     1      -5.396  -1.463   3.326  0.00  0.00    +0.002 C 
ATOM     36  C   UNL     1      -4.415  -2.401   2.620  0.00  0.00    +0.022 C 
ENDBRANCH  29  31
ENDBRANCH  26  27
ENDBRANCH  25  26
ENDBRANCH   7  25
TORSDOF 7
