REMARK  Name = ZINC38681817
REMARK  16 active torsions:
REMARK  status: ('A' for Active; 'I' for Inactive)
REMARK    1  A    between atoms: C_1  and  C_2
REMARK    2  A    between atoms: C_2  and  C_3
REMARK    3  A    between atoms: C_3  and  O_4
REMARK    4  A    between atoms: O_4  and  C_5
REMARK    5  A    between atoms: C_10  and  C_11
REMARK    6  A    between atoms: C_16  and  O_25
REMARK    7  A    between atoms: C_20  and  N_24
REMARK    8  A    between atoms: C_21  and  C_22
REMARK    9  A    between atoms: O_25  and  C_26
REMARK   10  A    between atoms: C_26  and  C_28
REMARK   11  A    between atoms: C_28  and  C_30
REMARK   12  A    between atoms: C_28  and  O_31
REMARK   13  A    between atoms: O_31  and  C_32
REMARK   14  A    between atoms: C_35  and  C_38
REMARK   15  A    between atoms: C_38  and  C_39
REMARK   16  A    between atoms: C_38  and  C_40
REMARK                            x       y       z     vdW  Elec       q    Type
REMARK                         _______ _______ _______ _____ _____    ______ ____
ROOT
ATOM      1  C   UNL     1       0.729  -4.978   1.418  0.00  0.00    +0.101 C 
ATOM      2  C   UNL     1       1.799  -5.768   0.713  0.00  0.00    +0.008 A 
ATOM      3  C   UNL     1       2.582  -5.148  -0.245  0.00  0.00    +0.012 A 
ATOM      4  C   UNL     1       3.568  -5.856  -0.902  0.00  0.00    +0.047 A 
ATOM      5  C   UNL     1       3.777  -7.195  -0.603  0.00  0.00    +0.135 A 
ATOM      6  C   UNL     1       2.995  -7.819   0.356  0.00  0.00    +0.093 A 
ATOM      7  C   UNL     1       2.004  -7.104   1.016  0.00  0.00    +0.138 A 
ATOM      8  O   UNL     1       1.246  -7.729   1.951  0.00  0.00    -0.441 OA
ATOM      9  C   UNL     1       0.064  -7.205   2.315  0.00  0.00    +0.199 C 
ATOM     10  C   UNL     1      -0.241  -5.909   2.091  0.00  0.00    +0.098 C 
ENDROOT
BRANCH   1  16
ATOM     11  C   UNL     1       1.214  -2.710   2.371  0.00  0.00    +0.125 A 
ATOM     12  C   UNL     1       1.798  -1.893   3.328  0.00  0.00    +0.046 A 
ATOM     13  C   UNL     1       2.532  -2.450   4.357  0.00  0.00    +0.004 A 
ATOM     14  C   UNL     1       2.686  -3.823   4.433  0.00  0.00    +0.001 A 
ATOM     15  C   UNL     1       2.106  -4.639   3.480  0.00  0.00    +0.008 A 
ATOM     16  C   UNL     1       1.366  -4.087   2.453  0.00  0.00    +0.007 A 
BRANCH  11  17
ATOM     17  O   UNL     1       0.491  -2.164   1.359  0.00  0.00    -0.492 OA
BRANCH  17  18
ATOM     18  C   UNL     1       0.378  -0.740   1.338  0.00  0.00    +0.229 C 
BRANCH  18  20
ATOM     19  C   UNL     1      -0.588   1.212   0.113  0.00  0.00    +0.007 C 
ATOM     20  C   UNL     1      -0.466  -0.313   0.135  0.00  0.00    +0.038 C 
ENDBRANCH  18  20
ENDBRANCH  17  18
ENDBRANCH  11  17
ENDBRANCH   1  16
BRANCH   9  21
ATOM     21  N   UNL     1      -0.860  -8.011   2.933  0.00  0.00    -0.328 N 
ATOM     22  H   UNL     1      -0.654  -8.944   3.101  0.00  0.00    +0.145 HD
ATOM     23  H   UNL     1      -1.718  -7.648   3.202  0.00  0.00    +0.145 HD
ENDBRANCH   9  21
BRANCH  10  24
ATOM     24  C   UNL     1      -1.518  -5.412   2.506  0.00  0.00    +0.101 C 
ATOM     25  N   UNL     1      -2.531  -5.017   2.834  0.00  0.00    -0.191 NA
ENDBRANCH  10  24
BRANCH   5  26
ATOM     26  O   UNL     1       4.748  -7.894  -1.249  0.00  0.00    -0.423 OA
BRANCH  26  27
ATOM     27  C   UNL     1       4.368  -8.877  -2.082  0.00  0.00    +0.353 C 
ATOM     28  O   UNL     1       3.196  -9.053  -2.314  0.00  0.00    -0.246 OA
BRANCH  27  29
ATOM     29  C   UNL     1       5.405  -9.759  -2.727  0.00  0.00    +0.279 C 
ATOM     30  C   UNL     1       6.121 -10.576  -1.650  0.00  0.00    +0.064 C 
BRANCH  29  31
ATOM     31  O   UNL     1       4.769 -10.644  -3.652  0.00  0.00    -0.478 OA
BRANCH  31  32
ATOM     32  C   UNL     1       5.541 -11.159  -4.644  0.00  0.00    +0.122 A 
ATOM     33  C   UNL     1       5.006 -12.079  -5.534  0.00  0.00    +0.046 A 
ATOM     34  C   UNL     1       5.793 -12.601  -6.543  0.00  0.00    +0.007 A 
ATOM     35  C   UNL     1       7.113 -12.208  -6.665  0.00  0.00    -0.045 A 
ATOM     36  C   UNL     1       7.649 -11.292  -5.779  0.00  0.00    +0.007 A 
ATOM     37  C   UNL     1       6.864 -10.762  -4.772  0.00  0.00    +0.046 A 
BRANCH  35  38
ATOM     38  C   UNL     1       7.969 -12.779  -7.765  0.00  0.00    +0.013 C 
ATOM     39  C   UNL     1       8.470 -11.646  -8.663  0.00  0.00    +0.012 C 
ATOM     40  C   UNL     1       9.166 -13.511  -7.153  0.00  0.00    +0.012 C 
ENDBRANCH  35  38
ENDBRANCH  31  32
ENDBRANCH  29  31
ENDBRANCH  27  29
ENDBRANCH  26  27
ENDBRANCH   5  26
TORSDOF 12
