REMARK  Name = ZINC51130658
REMARK  5 active torsions:
REMARK  status: ('A' for Active; 'I' for Inactive)
REMARK    1  A    between atoms: C_1  and  C_2
REMARK    2  A    between atoms: C_2  and  C_4
REMARK    3  A    between atoms: C_2  and  N_20
REMARK    4  A    between atoms: N_9  and  C_10
REMARK    5  A    between atoms: C_24  and  C_27
REMARK                            x       y       z     vdW  Elec       q    Type
REMARK                         _______ _______ _______ _____ _____    ______ ____
ROOT
ATOM      1  C   UNL     1       0.792  -0.455  -1.199  0.00  0.00    +0.237 C 
ATOM      2  O   UNL     1       1.857  -1.014  -1.049  0.00  0.00    -0.274 OA
ATOM      3  N   UNL     1       0.315  -0.236  -2.441  0.00  0.00    -0.239 N 
ATOM      4  C   UNL     1       1.022  -0.640  -3.515  0.00  0.00    +0.306 C 
ATOM      5  O   UNL     1       2.090  -1.200  -3.364  0.00  0.00    -0.252 OA
ATOM      6  N   UNL     1       0.545  -0.421  -4.756  0.00  0.00    -0.294 N 
ATOM      7  H   UNL     1      -0.537   0.211  -2.561  0.00  0.00    +0.159 HD
ATOM      8  H   UNL     1      -0.307   0.027  -4.877  0.00  0.00    +0.151 HD
ENDROOT
BRANCH   6   9
ATOM      9  C   UNL     1       1.313  -0.859  -5.924  0.00  0.00    +0.037 C 
ATOM     10  C   UNL     1       1.510  -2.375  -5.865  0.00  0.00    +0.029 C 
ATOM     11  C   UNL     1       2.312  -2.833  -7.085  0.00  0.00    -0.008 C 
ATOM     12  C   UNL     1       1.553  -2.466  -8.362  0.00  0.00    +0.007 C 
ATOM     13  C   UNL     1       1.357  -0.950  -8.421  0.00  0.00    -0.008 C 
ATOM     14  C   UNL     1       0.554  -0.492  -7.201  0.00  0.00    +0.029 C 
ATOM     15  C   UNL     1       2.722  -0.259  -8.422  0.00  0.00    +0.007 C 
ATOM     16  C   UNL     1       3.481  -0.626  -7.145  0.00  0.00    -0.008 C 
ATOM     17  C   UNL     1       3.677  -2.142  -7.087  0.00  0.00    +0.007 C 
ATOM     18  C   UNL     1       2.678  -0.168  -5.926  0.00  0.00    +0.029 C 
ENDBRANCH   6   9
BRANCH   1  20
ATOM     19  C   UNL     1       0.119   1.514   0.149  0.00  0.00    +0.034 C 
ATOM     20  C   UNL     1       0.002  -0.004   0.002  0.00  0.00    +0.141 C 
BRANCH  20  21
ATOM     21  N   UNL     1       0.530  -0.655   1.208  0.00  0.00    -0.287 NA
ATOM     22  C   UNL     1      -0.420  -0.547   2.325  0.00  0.00    +0.113 C 
ATOM     23  C   UNL     1       0.142  -1.288   3.540  0.00  0.00    +0.176 C 
ATOM     24  O   UNL     1       1.426  -0.750   3.868  0.00  0.00    -0.365 OA
ATOM     25  C   UNL     1       2.377  -0.839   2.804  0.00  0.00    +0.217 C 
ATOM     26  C   UNL     1       1.837  -0.093   1.581  0.00  0.00    +0.126 C 
BRANCH  25  27
ATOM     27  C   UNL     1       3.679  -0.218   3.239  0.00  0.00    +0.241 C 
ATOM     28  O   UNL     1       3.757   0.336   4.315  0.00  0.00    -0.273 OA
ATOM     29  N   UNL     1       4.757  -0.277   2.432  0.00  0.00    -0.327 N 
ATOM     30  H   UNL     1       4.694  -0.719   1.571  0.00  0.00    +0.145 HD
ATOM     31  H   UNL     1       5.595   0.123   2.712  0.00  0.00    +0.145 HD
ENDBRANCH  25  27
ENDBRANCH  20  21
ENDBRANCH   1  20
TORSDOF 4
