REMARK  Name = ZINC39529785
REMARK  5 active torsions:
REMARK  status: ('A' for Active; 'I' for Inactive)
REMARK    1  A    between atoms: C_4  and  C_7
REMARK    2  A    between atoms: C_12  and  N_13
REMARK    3  A    between atoms: C_17  and  S_20
REMARK    4  A    between atoms: S_20  and  O_23
REMARK    5  A    between atoms: O_23  and  C_24
REMARK                            x       y       z     vdW  Elec       q    Type
REMARK                         _______ _______ _______ _____ _____    ______ ____
ROOT
ATOM      1  N   UNL     1       2.970  -2.064   1.817  0.00  0.00    -0.331 N 
ATOM      2  C   UNL     1       1.969  -3.099   1.516  0.00  0.00    +0.086 C 
ATOM      3  C   UNL     1       1.946  -4.104   2.672  0.00  0.00    -0.061 C 
ATOM      4  N   UNL     1       1.720  -3.391   3.935  0.00  0.00    +0.398 N 
ATOM      5  C   UNL     1       2.850  -2.495   4.213  0.00  0.00    +0.133 C 
ATOM      6  C   UNL     1       2.921  -1.414   3.135  0.00  0.00    +0.115 C 
ATOM      7  H   UNL     1       0.871  -2.849   3.867  0.00  0.00    -0.083 HD
ATOM      8  H   UNL     1       1.630  -4.059   4.686  0.00  0.00    -0.083 HD
ENDROOT
BRANCH   1  14
ATOM      9  C   UNL     1       3.698  -0.688  -0.038  0.00  0.00    +0.004 A 
ATOM     10  C   UNL     1       4.679  -0.343  -0.966  0.00  0.00    +0.024 A 
ATOM     11  C   UNL     1       5.883  -1.017  -0.977  0.00  0.00    +0.014 A 
ATOM     12  C   UNL     1       6.122  -2.036  -0.071  0.00  0.00    +0.016 A 
ATOM     13  C   UNL     1       5.157  -2.387   0.853  0.00  0.00    +0.025 A 
ATOM     14  C   UNL     1       3.944  -1.715   0.881  0.00  0.00    +0.037 A 
ATOM     15  I   UNL     1       7.357  -0.496  -2.373  0.00  0.00    -0.044 I 
BRANCH   9  19
ATOM     16  C   UNL     1      -0.017   1.379   0.010  0.00  0.00    +0.000 A 
ATOM     17  C   UNL     1       1.169   2.092   0.002  0.00  0.00    +0.001 A 
ATOM     18  C   UNL     1       2.377   1.426  -0.013  0.00  0.00    +0.008 A 
ATOM     19  C   UNL     1       2.402   0.033  -0.021  0.00  0.00    -0.016 A 
ATOM     20  C   UNL     1       1.205  -0.680  -0.013  0.00  0.00    +0.008 A 
ATOM     21  C   UNL     1       0.002  -0.004   0.002  0.00  0.00    +0.001 A 
ENDBRANCH   9  19
ENDBRANCH   1  14
BRANCH   5  22
ATOM     22  S   UNL     1       2.622  -1.719   5.837  0.00  0.00    +0.109 S 
ATOM     23  O   UNL     1       3.786  -0.990   6.199  0.00  0.00    -0.138 OA
ATOM     24  O   UNL     1       1.337  -1.118   5.915  0.00  0.00    -0.138 OA
BRANCH  22  25
ATOM     25  O   UNL     1       2.568  -2.880   6.820  0.00  0.00    -0.347 OA
BRANCH  25  26
ATOM     26  C   UNL     1       3.777  -3.446   7.072  0.00  0.00    +0.156 A 
ATOM     27  C   UNL     1       4.230  -4.497   6.287  0.00  0.00    +0.048 A 
ATOM     28  C   UNL     1       5.459  -5.071   6.545  0.00  0.00    +0.004 A 
ATOM     29  C   UNL     1       6.239  -4.600   7.586  0.00  0.00    +0.000 A 
ATOM     30  C   UNL     1       5.790  -3.554   8.370  0.00  0.00    +0.004 A 
ATOM     31  C   UNL     1       4.564  -2.972   8.112  0.00  0.00    +0.048 A 
ENDBRANCH  25  26
ENDBRANCH  22  25
ENDBRANCH   5  22
TORSDOF 5
