REMARK  Name = ZINC20366918
REMARK  10 active torsions:
REMARK  status: ('A' for Active; 'I' for Inactive)
REMARK    1  A    between atoms: C_1  and  C_2
REMARK    2  A    between atoms: C_5  and  C_8
REMARK    3  A    between atoms: C_13  and  C_23
REMARK    4  A    between atoms: C_15  and  C_19
REMARK    5  A    between atoms: C_19  and  O_21
REMARK    6  A    between atoms: O_21  and  C_22
REMARK    7  A    between atoms: C_25  and  C_37
REMARK    8  A    between atoms: C_26  and  C_27
REMARK    9  A    between atoms: C_27  and  O_29
REMARK   10  A    between atoms: O_29  and  C_30
REMARK                            x       y       z     vdW  Elec       q    Type
REMARK                         _______ _______ _______ _____ _____    ______ ____
ROOT
ATOM      1  C   UNL     1      -2.514   0.980   0.019  0.00  0.00    +0.092 C 
ATOM      2  C   UNL     1      -3.301   1.331  -1.218  0.00  0.00    +0.025 C 
ATOM      3  C   UNL     1      -4.353   2.175  -1.149  0.00  0.00    +0.016 C 
ATOM      4  C   UNL     1      -5.147   2.529  -2.382  0.00  0.00    +0.055 C 
ATOM      5  C   UNL     1      -4.237   2.484  -3.611  0.00  0.00    +0.013 C 
ATOM      6  C   UNL     1      -3.635   1.079  -3.719  0.00  0.00    +0.171 C 
ATOM      7  C   UNL     1      -2.909   0.758  -2.441  0.00  0.00    +0.176 C 
ATOM      8  O   UNL     1      -1.967  -0.009  -2.465  0.00  0.00    -0.291 OA
ATOM      9  C   UNL     1      -3.115   3.514  -3.463  0.00  0.00    +0.009 C 
ATOM     10  N   UNL     1      -4.724   2.726   0.048  0.00  0.00    -0.321 N 
ATOM     11  C   UNL     1      -4.331   2.158   1.227  0.00  0.00    +0.016 C 
ATOM     12  C   UNL     1      -3.285   1.316   1.261  0.00  0.00    +0.065 C 
ATOM     13  C   UNL     1      -5.076   2.479   2.497  0.00  0.00    +0.061 C 
ATOM     14  H   UNL     1      -5.344   3.635   0.066  0.00  0.00    +0.152 HD
ENDROOT
BRANCH   1  19
ATOM     15  C   UNL     1       2.451   3.937  -0.001  0.00  0.00    +0.044 C 
ATOM     16  C   UNL     1       1.156   3.165   0.008  0.00  0.00    -0.050 A 
ATOM     17  C   UNL     1       1.175   1.783   0.000  0.00  0.00    +0.003 A 
ATOM     18  C   UNL     1      -0.013   1.076   0.008  0.00  0.00    +0.005 A 
ATOM     19  C   UNL     1      -1.219   1.751   0.017  0.00  0.00    -0.035 A 
ATOM     20  C   UNL     1      -1.238   3.133   0.030  0.00  0.00    +0.005 A 
ATOM     21  C   UNL     1      -0.050   3.840   0.022  0.00  0.00    +0.003 A 
ENDBRANCH   1  19
BRANCH   6  22
ATOM     22  C   UNL     1      -2.667   1.032  -4.873  0.00  0.00    +0.318 C 
ATOM     23  O   UNL     1      -2.484   2.017  -5.549  0.00  0.00    -0.250 OA
BRANCH  22  24
ATOM     24  O   UNL     1      -2.009  -0.104  -5.152  0.00  0.00    -0.467 OA
ATOM     25  C   UNL     1      -1.094  -0.076  -6.278  0.00  0.00    +0.280 C 
ENDBRANCH  22  24
ENDBRANCH   6  22
BRANCH  12  26
ATOM     26  C   UNL     1      -2.905   0.734   2.493  0.00  0.00    +0.338 C 
ATOM     27  O   UNL     1      -3.523   0.999   3.508  0.00  0.00    -0.245 OA
BRANCH  26  28
ATOM     28  O   UNL     1      -1.856  -0.114   2.544  0.00  0.00    -0.458 OA
BRANCH  28  29
ATOM     29  C   UNL     1      -1.528  -0.664   3.821  0.00  0.00    +0.177 C 
ATOM     30  C   UNL     1      -0.543   0.285   4.535  0.00  0.00    +0.044 C 
ATOM     31  C   UNL     1      -0.597   0.003   6.013  0.00  0.00    +0.004 C 
ATOM     32  C   UNL     1       0.489  -0.994   6.461  0.00  0.00    +0.000 C 
ATOM     33  C   UNL     1       0.665  -2.167   5.478  0.00  0.00    +0.000 C 
ATOM     34  C   UNL     1      -0.650  -2.694   4.969  0.00  0.00    +0.004 C 
ATOM     35  C   UNL     1      -0.973  -1.996   3.632  0.00  0.00    +0.044 C 
ENDBRANCH  28  29
ENDBRANCH  26  28
ENDBRANCH  12  26
TORSDOF 6
