REMARK  Name = ZINC39968112
REMARK  10 active torsions:
REMARK  status: ('A' for Active; 'I' for Inactive)
REMARK    1  A    between atoms: C_1  and  C_2
REMARK    2  A    between atoms: C_2  and  O_3
REMARK    3  A    between atoms: O_3  and  C_4
REMARK    4  A    between atoms: C_6  and  C_16
REMARK    5  A    between atoms: C_9  and  O_10
REMARK    6  A    between atoms: O_10  and  C_11
REMARK    7  A    between atoms: C_11  and  C_12
REMARK    8  A    between atoms: C_17  and  C_18
REMARK    9  A    between atoms: C_17  and  C_20
REMARK   10  A    between atoms: C_26  and  C_30
REMARK                            x       y       z     vdW  Elec       q    Type
REMARK                         _______ _______ _______ _____ _____    ______ ____
ROOT
ATOM      1  C   UNL     1       0.635  -4.997  -0.281  0.00  0.00    +0.026 C 
ATOM      2  C   UNL     1       0.454  -6.286   0.078  0.00  0.00    +0.072 C 
ENDROOT
BRANCH   2   3
ATOM      3  C   UNL     1      -0.931  -6.879   0.083  0.00  0.00    +0.216 C 
ATOM      4  N   UNL     1      -1.035  -7.925  -0.943  0.00  0.00    -0.359 N 
ATOM      5  C   UNL     1      -1.320  -9.040  -0.336  0.00  0.00    +0.060 A 
ATOM      6  C   UNL     1      -1.545 -10.410  -0.818  0.00  0.00    +0.027 A 
ATOM      7  C   UNL     1      -1.831 -11.387   0.066  0.00  0.00    +0.005 A 
ATOM      8  C   UNL     1      -1.926 -11.154   1.450  0.00  0.00    -0.048 A 
ATOM      9  C   UNL     1      -1.738  -9.937   1.996  0.00  0.00    +0.030 A 
ATOM     10  C   UNL     1      -1.421  -8.794   1.128  0.00  0.00    +0.061 A 
ATOM     11  N   UNL     1      -1.194  -7.534   1.371  0.00  0.00    -0.359 N 
ATOM     12  C   UNL     1      -2.250 -12.312   2.358  0.00  0.00    +0.044 C 
ATOM     13  H   UNL     1      -0.914  -7.806  -1.898  0.00  0.00    +0.162 HD
ATOM     14  H   UNL     1      -1.198  -7.106   2.242  0.00  0.00    +0.162 HD
ENDBRANCH   2   3
BRANCH   1  17
ATOM     15  C   UNL     1      -1.734  -2.168  -0.961  0.00  0.00    +0.164 A 
ATOM     16  C   UNL     1      -0.677  -2.891  -0.442  0.00  0.00    +0.057 A 
ATOM     17  C   UNL     1      -0.488  -4.222  -0.829  0.00  0.00    -0.019 A 
ATOM     18  C   UNL     1      -1.371  -4.814  -1.740  0.00  0.00    +0.026 A 
ATOM     19  C   UNL     1      -2.422  -4.085  -2.252  0.00  0.00    +0.059 A 
ATOM     20  C   UNL     1      -2.612  -2.766  -1.864  0.00  0.00    +0.176 A 
ATOM     21  I   UNL     1      -3.743  -4.973  -3.615  0.00  0.00    -0.040 I 
BRANCH  15  22
ATOM     22  O   UNL     1      -1.920  -0.874  -0.587  0.00  0.00    -0.489 OA
BRANCH  22  24
ATOM     23  C   UNL     1      -1.352   1.129   0.641  0.00  0.00    +0.048 C 
ATOM     24  C   UNL     1      -0.982  -0.325   0.341  0.00  0.00    +0.226 C 
ENDBRANCH  22  24
ENDBRANCH  15  22
BRANCH  20  25
ATOM     25  O   UNL     1      -3.653  -2.054  -2.368  0.00  0.00    -0.476 OA
BRANCH  25  26
ATOM     26  C   UNL     1      -3.418  -1.328  -3.577  0.00  0.00    +0.354 C 
BRANCH  26  27
ATOM     27  C   UNL     1      -4.677  -0.605  -3.981  0.00  0.00    +0.393 C 
ATOM     28  O   UNL     1      -5.682  -0.702  -3.298  0.00  0.00    -0.243 OA
ATOM     29  O   UNL     1      -4.690   0.077  -4.992  0.00  0.00    -0.243 OA
ENDBRANCH  26  27
ENDBRANCH  25  26
ENDBRANCH  20  25
ENDBRANCH   1  17
BRANCH   2  30
ATOM     30  C   UNL     1       1.578  -7.089   0.454  0.00  0.00    +0.099 C 
ATOM     31  N   UNL     1       2.470  -7.726   0.753  0.00  0.00    -0.191 NA
ENDBRANCH   2  30
TORSDOF 8
