REMARK  Name = ZINC20607847
REMARK  7 active torsions:
REMARK  status: ('A' for Active; 'I' for Inactive)
REMARK    1  A    between atoms: C_1  and  C_2
REMARK    2  A    between atoms: C_3  and  C_14
REMARK    3  A    between atoms: C_4  and  C_13
REMARK    4  A    between atoms: N_5  and  C_7
REMARK    5  A    between atoms: C_15  and  C_16
REMARK    6  A    between atoms: C_15  and  C_18
REMARK    7  A    between atoms: C_20  and  C_23
REMARK                            x       y       z     vdW  Elec       q    Type
REMARK                         _______ _______ _______ _____ _____    ______ ____
ROOT
ATOM      1  C   UNL     1      -1.008   2.192  -0.243  0.00  0.00    +0.033 C 
ATOM      2  C   UNL     1       0.138   1.466  -0.091  0.00  0.00    +0.084 C 
ENDROOT
BRANCH   1   5
ATOM      3  C   UNL     1       0.126   3.329  -2.978  0.00  0.00    +0.068 C 
ATOM      4  C   UNL     1      -0.432   4.133  -1.832  0.00  0.00    +0.068 A 
ATOM      5  C   UNL     1      -0.935   3.608  -0.617  0.00  0.00    +0.020 A 
ATOM      6  C   UNL     1      -1.339   4.684   0.154  0.00  0.00    +0.049 A 
ATOM      7  N   UNL     1      -1.099   5.802  -0.560  0.00  0.00    -0.236 N 
ATOM      8  N   UNL     1      -0.540   5.432  -1.788  0.00  0.00    -0.171 NA
ATOM      9  C   UNL     1      -1.937   4.619   1.536  0.00  0.00    +0.066 C 
BRANCH   7  10
ATOM     10  C   UNL     1      -1.363   7.113  -0.142  0.00  0.00    +0.066 A 
ATOM     11  C   UNL     1      -1.869   8.041  -1.042  0.00  0.00    +0.028 A 
ATOM     12  C   UNL     1      -2.133   9.331  -0.626  0.00  0.00    +0.002 A 
ATOM     13  C   UNL     1      -1.884   9.702   0.682  0.00  0.00    +0.000 A 
ATOM     14  C   UNL     1      -1.375   8.781   1.580  0.00  0.00    +0.002 A 
ATOM     15  C   UNL     1      -1.114   7.488   1.171  0.00  0.00    +0.028 A 
ENDBRANCH   7  10
ENDBRANCH   1   5
BRANCH   2  16
ATOM     16  C   UNL     1       1.450   2.137  -0.159  0.00  0.00    +0.119 A 
ATOM     17  N   UNL     1       2.667   1.608  -0.160  0.00  0.00    -0.243 NA
ATOM     18  C   UNL     1       3.738   2.365  -0.226  0.00  0.00    +0.055 A 
ATOM     19  C   UNL     1       3.609   3.716  -0.294  0.00  0.00    +0.071 A 
ATOM     20  S   UNL     1       1.829   3.881  -0.268  0.00  0.00    -0.075 S 
BRANCH  18  21
ATOM     21  C   UNL     1       5.107   1.736  -0.226  0.00  0.00    +0.014 C 
ATOM     22  C   UNL     1       6.020   2.503   0.734  0.00  0.00    +0.016 C 
ATOM     23  C   UNL     1       7.411   1.865   0.734  0.00  0.00    -0.010 C 
ATOM     24  C   UNL     1       7.303   0.407   1.187  0.00  0.00    +0.007 C 
ATOM     25  C   UNL     1       6.390  -0.359   0.227  0.00  0.00    -0.010 C 
ATOM     26  C   UNL     1       5.000   0.279   0.227  0.00  0.00    +0.016 C 
ATOM     27  C   UNL     1       6.976  -0.306  -1.185  0.00  0.00    +0.007 C 
ATOM     28  C   UNL     1       7.084   1.151  -1.638  0.00  0.00    -0.010 C 
ATOM     29  C   UNL     1       7.996   1.918  -0.679  0.00  0.00    +0.007 C 
ATOM     30  C   UNL     1       5.693   1.790  -1.639  0.00  0.00    +0.016 C 
ENDBRANCH  18  21
ENDBRANCH   2  16
BRANCH   2  31
ATOM     31  C   UNL     1       0.067   0.053   0.127  0.00  0.00    +0.102 C 
ATOM     32  N   UNL     1       0.010  -1.069   0.300  0.00  0.00    -0.191 NA
ENDBRANCH   2  31
TORSDOF 5
