REMARK  Name = ZINC09546502
REMARK  4 active torsions:
REMARK  status: ('A' for Active; 'I' for Inactive)
REMARK    1  A    between atoms: C_1  and  O_2
REMARK    2  A    between atoms: O_2  and  C_3
REMARK    3  A    between atoms: C_6  and  C_9
REMARK    4  A    between atoms: C_14  and  C_26
REMARK                            x       y       z     vdW  Elec       q    Type
REMARK                         _______ _______ _______ _____ _____    ______ ____
ROOT
ATOM      1  C   UNL     1       2.504  -2.503  -4.382  0.00  0.00    +0.032 C 
ATOM      2  C   UNL     1       1.808  -2.087  -5.679  0.00  0.00    +0.060 C 
ATOM      3  C   UNL     1       2.505  -2.727  -6.857  0.00  0.00    +0.020 C 
ATOM      4  C   UNL     1       3.829  -2.984  -6.823  0.00  0.00    +0.039 C 
ATOM      5  C   UNL     1       4.557  -3.624  -7.983  0.00  0.00    +0.156 C 
ATOM      6  N   UNL     1       3.724  -3.594  -9.182  0.00  0.00    -0.300 N 
ATOM      7  C   UNL     1       4.055  -3.820 -10.487  0.00  0.00    +0.071 A 
ATOM      8  C   UNL     1       5.252  -4.139 -11.116  0.00  0.00    +0.028 A 
ATOM      9  C   UNL     1       5.218  -4.302 -12.492  0.00  0.00    +0.002 A 
ATOM     10  C   UNL     1       4.050  -4.155 -13.220  0.00  0.00    +0.002 A 
ATOM     11  C   UNL     1       2.846  -3.837 -12.618  0.00  0.00    +0.030 A 
ATOM     12  C   UNL     1       2.856  -3.668 -11.228  0.00  0.00    +0.091 A 
ATOM     13  N   UNL     1       1.878  -3.361 -10.353  0.00  0.00    -0.214 NA
ATOM     14  C   UNL     1       2.376  -3.313  -9.148  0.00  0.00    +0.202 A 
ATOM     15  N   UNL     1       1.735  -3.028  -7.955  0.00  0.00    -0.288 N 
ATOM     16  C   UNL     1       4.596  -2.667  -5.686  0.00  0.00    +0.164 C 
ATOM     17  O   UNL     1       5.791  -2.887  -5.695  0.00  0.00    -0.292 OA
ATOM     18  C   UNL     1       3.970  -2.064  -4.459  0.00  0.00    +0.088 C 
ATOM     19  H   UNL     1       0.767  -3.040  -7.895  0.00  0.00    +0.155 HD
ENDROOT
BRANCH   5  20
ATOM     20  C   UNL     1       4.885  -5.054  -7.639  0.00  0.00    -0.019 A 
ATOM     21  C   UNL     1       6.202  -5.475  -7.615  0.00  0.00    +0.006 A 
ATOM     22  C   UNL     1       6.503  -6.787  -7.300  0.00  0.00    +0.002 A 
ATOM     23  C   UNL     1       5.488  -7.678  -7.008  0.00  0.00    +0.020 A 
ATOM     24  C   UNL     1       4.170  -7.258  -7.031  0.00  0.00    +0.041 A 
ATOM     25  C   UNL     1       3.870  -5.943  -7.342  0.00  0.00    +0.026 A 
ATOM     26 CL   UNL     1       2.895  -8.377  -6.665  0.00  0.00    -0.084 Cl
ENDBRANCH   5  20
BRANCH   1  30
ATOM     27  C   UNL     1       0.606  -0.607  -1.056  0.00  0.00    +0.120 A 
ATOM     28  C   UNL     1       1.163   0.161  -2.068  0.00  0.00    +0.046 A 
ATOM     29  C   UNL     1       1.782  -0.455  -3.139  0.00  0.00    +0.007 A 
ATOM     30  C   UNL     1       1.835  -1.835  -3.209  0.00  0.00    -0.043 A 
ATOM     31  C   UNL     1       1.275  -2.602  -2.204  0.00  0.00    +0.007 A 
ATOM     32  C   UNL     1       0.661  -1.992  -1.128  0.00  0.00    +0.046 A 
BRANCH  27  34
ATOM     33  C   UNL     1      -0.017   1.425   0.010  0.00  0.00    +0.277 C 
ATOM     34  O   UNL     1       0.002  -0.004   0.002  0.00  0.00    -0.495 OA
ENDBRANCH  27  34
ENDBRANCH   1  30
TORSDOF 3
