REMARK  Name = ZINC28650011
REMARK  10 active torsions:
REMARK  status: ('A' for Active; 'I' for Inactive)
REMARK    1  A    between atoms: C_1  and  C_2
REMARK    2  A    between atoms: C_2  and  C_3
REMARK    3  A    between atoms: C_2  and  N_4
REMARK    4  A    between atoms: N_4  and  C_5
REMARK    5  A    between atoms: C_5  and  C_6
REMARK    6  A    between atoms: C_6  and  N_7
REMARK    7  A    between atoms: N_7  and  C_8
REMARK    8  A    between atoms: C_12  and  C_17
REMARK    9  A    between atoms: C_21  and  C_23
REMARK   10  A    between atoms: N_27  and  C_28
REMARK                            x       y       z     vdW  Elec       q    Type
REMARK                         _______ _______ _______ _____ _____    ______ ____
ROOT
ATOM      1  N   UNL     1      -2.894   3.577  -0.710  0.00  0.00    -0.284 N 
ATOM      2  C   UNL     1      -2.489   4.162  -1.854  0.00  0.00    +0.307 C 
ATOM      3  O   UNL     1      -1.393   3.905  -2.313  0.00  0.00    -0.252 OA
ATOM      4  N   UNL     1      -3.299   5.032  -2.490  0.00  0.00    -0.269 N 
ATOM      5  H   UNL     1      -4.258   5.322  -2.037  0.00  0.00    +0.156 HD
ENDROOT
BRANCH   4   6
ATOM      6  C   UNL     1      -2.920   5.565  -3.723  0.00  0.00    +0.040 A 
ATOM      7  C   UNL     1      -1.583   5.846  -3.999  0.00  0.00    +0.063 A 
ATOM      8  C   UNL     1      -1.248   6.369  -5.233  0.00  0.00    +0.133 A 
ATOM      9  N   UNL     1      -2.177   6.611  -6.140  0.00  0.00    -0.224 NA
ATOM     10  C   UNL     1      -3.454   6.363  -5.913  0.00  0.00    +0.133 A 
ATOM     11  C   UNL     1      -3.869   5.835  -4.706  0.00  0.00    +0.063 A 
ATOM     12 CL   UNL     1      -4.626   6.705  -7.147  0.00  0.00    -0.062 Cl
ATOM     13 CL   UNL     1       0.414   6.717  -5.593  0.00  0.00    -0.062 Cl
ENDBRANCH   4   6
BRANCH   1  14
ATOM     14  C   UNL     1      -2.014   2.632  -0.019  0.00  0.00    +0.078 C 
ATOM     15  C   UNL     1      -0.708   3.334   0.369  0.00  0.00    +0.023 C 
ATOM     16  C   UNL     1       0.034   2.459   1.380  0.00  0.00    +0.013 C 
ATOM     17  C   UNL     1       0.240   1.059   0.823  0.00  0.00    -0.001 C 
ATOM     18  C   UNL     1       0.820   0.877  -0.573  0.00  0.00    +0.016 C 
ATOM     19  C   UNL     1      -0.654   0.546  -0.295  0.00  0.00    +0.002 C 
ATOM     20  C   UNL     1      -1.682   1.477  -0.933  0.00  0.00    +0.027 C 
BRANCH  17  21
ATOM     21  C   UNL     1       0.662   0.040   1.850  0.00  0.00    -0.040 A 
ATOM     22  C   UNL     1      -0.296  -0.693   2.529  0.00  0.00    +0.004 A 
ATOM     23  C   UNL     1       0.083  -1.634   3.470  0.00  0.00    +0.002 A 
ATOM     24  C   UNL     1       1.419  -1.841   3.744  0.00  0.00    +0.019 A 
ATOM     25  C   UNL     1       2.390  -1.102   3.066  0.00  0.00    +0.052 A 
ATOM     26  C   UNL     1       2.001  -0.157   2.114  0.00  0.00    +0.023 A 
BRANCH  25  27
ATOM     27  C   UNL     1       3.779  -1.311   3.346  0.00  0.00    +0.099 C 
ATOM     28  N   UNL     1       4.881  -1.477   3.568  0.00  0.00    -0.191 NA
ENDBRANCH  25  27
ENDBRANCH  17  21
ENDBRANCH   1  14
BRANCH   1  29
ATOM     29  C   UNL     1      -4.215   3.887  -0.157  0.00  0.00    +0.090 C 
BRANCH  29  30
ATOM     30  C   UNL     1      -4.103   5.081   0.794  0.00  0.00    -0.063 C 
BRANCH  30  31
ATOM     31  N   UNL     1      -5.427   5.391   1.349  0.00  0.00    +0.382 N 
ATOM     32  H   UNL     1      -5.799   4.508   1.889  0.00  0.00    -0.085 HD
ATOM     33  H   UNL     1      -6.110   5.628   0.519  0.00  0.00    -0.085 HD
BRANCH  31  35
ATOM     34  C   UNL     1      -5.459   7.837   1.470  0.00  0.00    -0.014 C 
ATOM     35  C   UNL     1      -5.358   6.535   2.268  0.00  0.00    -0.078 C 
ATOM     36  C   UNL     1      -6.514   6.457   3.267  0.00  0.00    -0.014 C 
ENDBRANCH  31  35
ENDBRANCH  30  31
ENDBRANCH  29  30
ENDBRANCH   1  29
TORSDOF 8
