REMARK  Name = ZINC14545570
REMARK  8 active torsions:
REMARK  status: ('A' for Active; 'I' for Inactive)
REMARK    1  A    between atoms: C_1  and  C_2
REMARK    2  A    between atoms: C_2  and  O_3
REMARK    3  A    between atoms: O_3  and  C_4
REMARK    4  A    between atoms: C_9  and  C_10
REMARK    5  A    between atoms: C_23  and  C_26
REMARK    6  A    between atoms: N_28  and  C_29
REMARK    7  A    between atoms: N_28  and  C_30
REMARK    8  A    between atoms: C_30  and  C_31
REMARK                            x       y       z     vdW  Elec       q    Type
REMARK                         _______ _______ _______ _____ _____    ______ ____
ROOT
ATOM      1  C   UNL     1       0.520   6.576   3.310  0.00  0.00    +0.108 C 
ATOM      2  C   UNL     1       0.557   6.504   4.822  0.00  0.00    +0.029 C 
ATOM      3  C   UNL     1       0.697   7.815   5.603  0.00  0.00    +0.033 C 
ATOM      4  C   UNL     1      -0.035   7.475   6.904  0.00  0.00    -0.030 C 
ATOM      5  C   UNL     1      -0.936   6.524   6.680  0.00  0.00    -0.023 C 
ATOM      6  C   UNL     1      -0.921   6.186   5.231  0.00  0.00    +0.049 C 
ATOM      7  C   UNL     1      -1.214   4.826   4.729  0.00  0.00    -0.019 A 
ATOM      8  C   UNL     1      -2.057   3.970   5.403  0.00  0.00    +0.006 A 
ATOM      9  C   UNL     1      -2.347   2.714   4.897  0.00  0.00    +0.001 A 
ATOM     10  C   UNL     1      -1.789   2.309   3.704  0.00  0.00    +0.015 A 
ATOM     11  C   UNL     1      -0.930   3.160   3.011  0.00  0.00    +0.058 A 
ATOM     12  C   UNL     1      -0.615   4.434   3.528  0.00  0.00    +0.044 A 
ATOM     13  N   UNL     1       0.284   5.210   2.816  0.00  0.00    -0.336 N 
ATOM     14  H   UNL     1       0.058   5.215   1.833  0.00  0.00    +0.147 HD
ENDROOT
BRANCH   1  20
ATOM     15  C   UNL     1       2.084   8.456   2.754  0.00  0.00    +0.125 A 
ATOM     16  C   UNL     1       3.299   8.926   2.276  0.00  0.00    +0.046 A 
ATOM     17  C   UNL     1       4.253   8.036   1.823  0.00  0.00    +0.004 A 
ATOM     18  C   UNL     1       4.001   6.677   1.851  0.00  0.00    +0.001 A 
ATOM     19  C   UNL     1       2.794   6.205   2.332  0.00  0.00    +0.009 A 
ATOM     20  C   UNL     1       1.836   7.091   2.786  0.00  0.00    +0.015 A 
BRANCH  15  21
ATOM     21  O   UNL     1       1.141   9.329   3.195  0.00  0.00    -0.492 OA
BRANCH  21  23
ATOM     22  C   UNL     1       0.292  11.542   3.667  0.00  0.00    +0.048 C 
ATOM     23  C   UNL     1       1.466  10.720   3.132  0.00  0.00    +0.225 C 
ENDBRANCH  21  23
ENDBRANCH  15  21
ENDBRANCH   1  20
BRANCH  11  24
ATOM     24  C   UNL     1      -0.341   2.723   1.732  0.00  0.00    +0.248 C 
ATOM     25  O   UNL     1       0.688   3.231   1.331  0.00  0.00    -0.270 OA
ATOM     26  N   UNL     1      -0.945   1.760   1.006  0.00  0.00    -0.296 N 
ATOM     27  C   UNL     1      -2.247   1.236   1.424  0.00  0.00    +0.132 C 
BRANCH  26  28
ATOM     28  C   UNL     1      -0.298   1.238  -0.200  0.00  0.00    +0.142 C 
BRANCH  28  29
ATOM     29  C   UNL     1      -0.726   2.054  -1.393  0.00  0.00    -0.030 A 
ATOM     30  C   UNL     1      -1.843   1.684  -2.118  0.00  0.00    +0.005 A 
ATOM     31  C   UNL     1      -2.239   2.435  -3.209  0.00  0.00    +0.000 A 
ATOM     32  C   UNL     1      -1.512   3.550  -3.581  0.00  0.00    +0.000 A 
ATOM     33  C   UNL     1      -0.391   3.917  -2.859  0.00  0.00    +0.000 A 
ATOM     34  C   UNL     1       0.001   3.169  -1.765  0.00  0.00    +0.005 A 
ENDBRANCH  28  29
ENDBRANCH  26  28
ENDBRANCH  11  24
TORSDOF 6
