REMARK  Name = ZINC15239337
REMARK  8 active torsions:
REMARK  status: ('A' for Active; 'I' for Inactive)
REMARK    1  A    between atoms: C_4  and  O_7
REMARK    2  A    between atoms: O_7  and  C_8
REMARK    3  A    between atoms: C_11  and  O_14
REMARK    4  A    between atoms: O_14  and  C_15
REMARK    5  A    between atoms: C_15  and  C_16
REMARK    6  A    between atoms: C_16  and  C_18
REMARK    7  A    between atoms: C_16  and  O_35
REMARK    8  A    between atoms: C_18  and  N_19
REMARK                            x       y       z     vdW  Elec       q    Type
REMARK                         _______ _______ _______ _____ _____    ______ ____
ROOT
ATOM      1  C   UNL     1      -1.630   2.519   1.342  0.00  0.00    +0.170 C 
ENDROOT
BRANCH   1   2
ATOM      2  O   UNL     1      -1.883   1.246   1.941  0.00  0.00    -0.387 OA
ATOM      3  H   UNL     1      -2.576   0.735   1.500  0.00  0.00    +0.210 HD
ENDBRANCH   1   2
BRANCH   1   4
ATOM      4  C   UNL     1      -2.906   3.362   1.377  0.00  0.00    +0.261 C 
BRANCH   4   5
ATOM      5  O   UNL     1      -3.253   3.646   2.734  0.00  0.00    -0.489 OA
BRANCH   5   9
ATOM      6  C   UNL     1      -6.645   5.910   3.368  0.00  0.00    +0.129 A 
ATOM      7  C   UNL     1      -5.899   5.461   4.448  0.00  0.00    +0.050 A 
ATOM      8  C   UNL     1      -4.764   4.703   4.236  0.00  0.00    +0.049 A 
ATOM      9  C   UNL     1      -4.370   4.391   2.943  0.00  0.00    +0.121 A 
ATOM     10  C   UNL     1      -5.113   4.845   1.863  0.00  0.00    +0.049 A 
ATOM     11  C   UNL     1      -6.251   5.598   2.075  0.00  0.00    +0.050 A 
BRANCH   6  12
ATOM     12  O   UNL     1      -7.763   6.656   3.577  0.00  0.00    -0.456 OA
BRANCH  12  16
ATOM     13  C   UNL     1     -11.411   4.992   2.607  0.00  0.00    +0.000 A 
ATOM     14  C   UNL     1     -11.340   6.314   3.007  0.00  0.00    +0.004 A 
ATOM     15  C   UNL     1     -10.119   6.873   3.333  0.00  0.00    +0.046 A 
ATOM     16  C   UNL     1      -8.964   6.108   3.257  0.00  0.00    +0.128 A 
ATOM     17  C   UNL     1      -9.038   4.784   2.850  0.00  0.00    +0.046 A 
ATOM     18  C   UNL     1     -10.261   4.227   2.532  0.00  0.00    +0.004 A 
ENDBRANCH  12  16
ENDBRANCH   6  12
ENDBRANCH   5   9
ENDBRANCH   4   5
ENDBRANCH   1   4
BRANCH   1  19
ATOM     19  C   UNL     1      -1.189   2.320  -0.109  0.00  0.00    +0.152 C 
BRANCH  19  20
ATOM     20  N   UNL     1       0.033   1.513  -0.143  0.00  0.00    -0.221 N 
ATOM     21  C   UNL     1       1.281   2.024  -0.106  0.00  0.00    +0.251 C 
ATOM     22  O   UNL     1       1.593   3.193  -0.036  0.00  0.00    -0.272 OA
ATOM     23  C   UNL     1       2.207   0.832  -0.169  0.00  0.00    +0.144 C 
ATOM     24  C   UNL     1       3.081   0.902  -1.418  0.00  0.00    +0.081 C 
ATOM     25  C   UNL     1       4.170  -0.173  -1.305  0.00  0.00    +0.232 C 
ATOM     26  O   UNL     1       4.999   0.139  -0.184  0.00  0.00    -0.492 OA
ATOM     27  C   UNL     1       4.395   0.415   1.000  0.00  0.00    +0.126 A 
ATOM     28  C   UNL     1       3.054   0.758   1.070  0.00  0.00    +0.027 A 
ATOM     29  C   UNL     1       2.479   1.039   2.297  0.00  0.00    +0.010 A 
ATOM     30  C   UNL     1       3.234   0.976   3.453  0.00  0.00    +0.001 A 
ATOM     31  C   UNL     1       4.571   0.630   3.386  0.00  0.00    +0.004 A 
ATOM     32  C   UNL     1       5.151   0.350   2.165  0.00  0.00    +0.046 A 
ATOM     33  N   UNL     1       1.300  -0.321  -0.241  0.00  0.00    -0.281 N 
ATOM     34  C   UNL     1       0.049   0.176  -0.220  0.00  0.00    +0.310 C 
ATOM     35  O   UNL     1      -0.952  -0.511  -0.266  0.00  0.00    -0.252 OA
ATOM     36  H   UNL     1       1.553  -1.257  -0.293  0.00  0.00    +0.152 HD
ENDBRANCH  19  20
ENDBRANCH   1  19
TORSDOF 8
