REMARK  Name = ZINC14459825
REMARK  9 active torsions:
REMARK  status: ('A' for Active; 'I' for Inactive)
REMARK    1  A    between atoms: C_1  and  C_2
REMARK    2  A    between atoms: C_6  and  C_37
REMARK    3  A    between atoms: C_7  and  N_8
REMARK    4  A    between atoms: N_8  and  S_9
REMARK    5  A    between atoms: S_9  and  C_12
REMARK    6  A    between atoms: C_25  and  C_28
REMARK    7  A    between atoms: C_32  and  O_35
REMARK    8  A    between atoms: C_33  and  O_34
REMARK    9  A    between atoms: O_35  and  C_36
REMARK                            x       y       z     vdW  Elec       q    Type
REMARK                         _______ _______ _______ _____ _____    ______ ____
ROOT
ATOM      1  C   UNL     1       1.229   2.601   1.946  0.00  0.00    +0.109 A 
ATOM      2  C   UNL     1       1.691   2.006   3.106  0.00  0.00    +0.030 A 
ATOM      3  C   UNL     1       1.577   2.674   4.309  0.00  0.00    +0.025 A 
ATOM      4  C   UNL     1       0.999   3.936   4.352  0.00  0.00    +0.031 A 
ATOM      5  C   UNL     1       0.536   4.537   3.192  0.00  0.00    -0.018 A 
ATOM      6  C   UNL     1       0.661   3.858   1.987  0.00  0.00    +0.034 A 
ATOM      7  C   UNL     1      -0.088   5.896   3.188  0.00  0.00    +0.049 C 
ATOM      8  C   UNL     1      -1.586   5.816   3.020  0.00  0.00    -0.023 C 
ATOM      9  C   UNL     1      -2.173   6.746   3.733  0.00  0.00    -0.030 C 
ATOM     10  C   UNL     1      -1.143   7.580   4.470  0.00  0.00    +0.033 C 
ATOM     11  C   UNL     1       0.106   6.650   4.518  0.00  0.00    +0.029 C 
ATOM     12  C   UNL     1      -0.086   5.690   5.695  0.00  0.00    +0.109 C 
ATOM     13  N   UNL     1       0.886   4.597   5.580  0.00  0.00    -0.336 N 
ATOM     14  H   UNL     1       1.437   4.340   6.336  0.00  0.00    +0.147 HD
ENDROOT
BRANCH  12  15
ATOM     15  C   UNL     1       0.132   6.428   6.990  0.00  0.00    +0.018 A 
ATOM     16  C   UNL     1      -0.947   6.759   7.788  0.00  0.00    +0.009 A 
ATOM     17  C   UNL     1      -0.750   7.437   8.977  0.00  0.00    +0.004 A 
ATOM     18  C   UNL     1       0.527   7.786   9.373  0.00  0.00    +0.049 A 
ATOM     19  C   UNL     1       1.614   7.457   8.579  0.00  0.00    +0.162 A 
ATOM     20  C   UNL     1       1.416   6.771   7.384  0.00  0.00    +0.163 A 
BRANCH  20  21
ATOM     21  O   UNL     1       2.479   6.441   6.603  0.00  0.00    -0.503 OA
ATOM     22  H   UNL     1       2.712   7.116   5.951  0.00  0.00    +0.292 HD
ENDBRANCH  20  21
BRANCH  19  23
ATOM     23  O   UNL     1       2.871   7.800   8.968  0.00  0.00    -0.491 OA
ATOM     24  C   UNL     1       2.999   8.498  10.208  0.00  0.00    +0.277 C 
ENDBRANCH  19  23
ENDBRANCH  12  15
BRANCH   1  25
ATOM     25  S   UNL     1       1.371   1.752   0.409  0.00  0.00    +0.072 S 
ATOM     26  O   UNL     1       2.363   0.751   0.588  0.00  0.00    -0.150 OA
ATOM     27  O   UNL     1       1.470   2.750  -0.598  0.00  0.00    -0.150 OA
BRANCH  25  28
ATOM     28  N   UNL     1      -0.060   0.960   0.152  0.00  0.00    -0.216 N 
ATOM     29  H   UNL     1      -0.089  -0.009   0.178  0.00  0.00    +0.174 HD
BRANCH  28  36
ATOM     30  C   UNL     1      -1.994   1.183   2.227  0.00  0.00    +0.046 C 
ATOM     31  C   UNL     1      -2.195   1.822   0.876  0.00  0.00    -0.028 A 
ATOM     32  C   UNL     1      -3.342   2.546   0.618  0.00  0.00    +0.005 A 
ATOM     33  C   UNL     1      -3.530   3.127  -0.622  0.00  0.00    +0.001 A 
ATOM     34  C   UNL     1      -2.568   2.991  -1.606  0.00  0.00    +0.005 A 
ATOM     35  C   UNL     1      -1.416   2.273  -1.353  0.00  0.00    -0.028 A 
ATOM     36  C   UNL     1      -1.224   1.688  -0.108  0.00  0.00    +0.054 A 
ATOM     37  C   UNL     1      -0.367   2.126  -2.425  0.00  0.00    +0.046 C 
ENDBRANCH  28  36
ENDBRANCH  25  28
ENDBRANCH   1  25
TORSDOF 6
