REMARK  Name = ZINC22238349
REMARK  7 active torsions:
REMARK  status: ('A' for Active; 'I' for Inactive)
REMARK    1  A    between atoms: C_1  and  C_2
REMARK    2  A    between atoms: C_3  and  C_16
REMARK    3  A    between atoms: N_5  and  C_7
REMARK    4  A    between atoms: C_7  and  C_8
REMARK    5  A    between atoms: C_16  and  N_18
REMARK    6  A    between atoms: C_21  and  C_24
REMARK    7  A    between atoms: C_24  and  N_25
REMARK                            x       y       z     vdW  Elec       q    Type
REMARK                         _______ _______ _______ _____ _____    ______ ____
ROOT
ATOM      1  C   UNL     1      -0.006  -0.371  -2.551  0.00  0.00    +0.274 C 
ATOM      2  O   UNL     1       1.045  -0.168  -3.136  0.00  0.00    -0.268 OA
ENDROOT
BRANCH   1   5
ATOM      3  C   UNL     1      -0.018   1.503   0.010  0.00  0.00    +0.068 C 
ATOM      4  C   UNL     1       0.002  -0.004   0.002  0.00  0.00    +0.074 A 
ATOM      5  C   UNL     1       0.008  -0.827  -1.145  0.00  0.00    +0.098 A 
ATOM      6  C   UNL     1       0.029  -2.136  -0.709  0.00  0.00    +0.140 A 
ATOM      7  N   UNL     1       0.035  -2.111   0.636  0.00  0.00    -0.248 N 
ATOM      8  N   UNL     1       0.023  -0.776   1.054  0.00  0.00    -0.174 NA
ATOM      9 CL   UNL     1       0.044  -3.554  -1.710  0.00  0.00    -0.062 Cl
BRANCH   7  10
ATOM     10  C   UNL     1       0.055  -3.284   1.514  0.00  0.00    +0.181 C 
BRANCH  10  11
ATOM     11  C   UNL     1       1.482  -3.666   1.809  0.00  0.00    -0.008 A 
ATOM     12  C   UNL     1       2.111  -4.632   1.045  0.00  0.00    +0.007 A 
ATOM     13  C   UNL     1       3.420  -4.983   1.315  0.00  0.00    +0.000 A 
ATOM     14  C   UNL     1       4.102  -4.369   2.349  0.00  0.00    +0.001 A 
ATOM     15  C   UNL     1       3.475  -3.403   3.113  0.00  0.00    +0.020 A 
ATOM     16  C   UNL     1       2.166  -3.047   2.840  0.00  0.00    +0.046 A 
ATOM     17 CL   UNL     1       1.380  -1.830   3.795  0.00  0.00    -0.083 Cl
ENDBRANCH  10  11
ENDBRANCH   7  10
ENDBRANCH   1   5
BRANCH   1  18
ATOM     18  N   UNL     1      -1.169  -0.182  -3.180  0.00  0.00    -0.152 NA
ATOM     19  C   UNL     1      -1.181   0.228  -4.447  0.00  0.00    +0.163 A 
ATOM     20  N   UNL     1      -2.256   0.479  -5.245  0.00  0.00    -0.341 N 
ATOM     21  C   UNL     1      -2.041   0.894  -6.522  0.00  0.00    +0.008 A 
ATOM     22  C   UNL     1      -0.771   1.032  -6.917  0.00  0.00    +0.067 A 
ATOM     23  S   UNL     1       0.126   0.570  -5.447  0.00  0.00    -0.061 S 
ATOM     24  H   UNL     1      -3.158   0.363  -4.908  0.00  0.00    +0.167 HD
BRANCH  21  25
ATOM     25  C   UNL     1      -3.188   1.188  -7.455  0.00  0.00    -0.024 C 
BRANCH  25  26
ATOM     26  N   UNL     1      -3.931  -0.051  -7.721  0.00  0.00    +0.383 N 
ATOM     27  C   UNL     1      -3.066  -0.994  -8.441  0.00  0.00    -0.078 C 
ATOM     28  C   UNL     1      -3.808  -2.315  -8.650  0.00  0.00    -0.019 C 
ATOM     29  C   UNL     1      -5.077  -2.058  -9.468  0.00  0.00    -0.004 C 
ATOM     30  C   UNL     1      -5.937  -1.018  -8.745  0.00  0.00    -0.019 C 
ATOM     31  C   UNL     1      -5.116   0.256  -8.532  0.00  0.00    -0.078 C 
ATOM     32  H   UNL     1      -4.221  -0.464  -6.847  0.00  0.00    -0.081 HD
ENDBRANCH  25  26
ENDBRANCH  21  25
ENDBRANCH   1  18
TORSDOF 6
