REMARK  Name = ZINC62217538
REMARK  5 active torsions:
REMARK  status: ('A' for Active; 'I' for Inactive)
REMARK    1  A    between atoms: C_3  and  O_18
REMARK    2  A    between atoms: C_6  and  N_7
REMARK    3  A    between atoms: C_8  and  C_14
REMARK    4  A    between atoms: C_9  and  C_12
REMARK    5  A    between atoms: C_12  and  N_13
REMARK                            x       y       z     vdW  Elec       q    Type
REMARK                         _______ _______ _______ _____ _____    ______ ____
ROOT
ATOM      1  N   UNL     1      -1.202  -0.724   0.012  0.00  0.00    -0.208 N 
ATOM      2  C   UNL     1      -1.463  -1.856  -0.698  0.00  0.00    +0.168 A 
ATOM      3  C   UNL     1      -2.736  -2.203  -0.395  0.00  0.00    +0.078 A 
ATOM      4  N   UNL     1      -3.186  -1.286   0.469  0.00  0.00    -0.136 NA
ATOM      5  N   UNL     1      -2.254  -0.428   0.694  0.00  0.00    -0.060 NA
ENDROOT
BRANCH   1  11
ATOM      6  C   UNL     1       0.663   0.233  -1.191  0.00  0.00    +0.031 A 
ATOM      7  C   UNL     1       1.850   0.939  -1.195  0.00  0.00    +0.047 A 
ATOM      8  C   UNL     1       2.385   1.406  -0.003  0.00  0.00    +0.117 A 
ATOM      9  C   UNL     1       1.726   1.165   1.194  0.00  0.00    +0.047 A 
ATOM     10  C   UNL     1       0.539   0.460   1.200  0.00  0.00    +0.031 A 
ATOM     11  C   UNL     1       0.004  -0.008   0.007  0.00  0.00    +0.068 A 
BRANCH   8  12
ATOM     12  O   UNL     1       3.554   2.100  -0.009  0.00  0.00    -0.507 OA
ATOM     13  H   UNL     1       3.443   3.056  -0.105  0.00  0.00    +0.292 HD
ENDBRANCH   8  12
ENDBRANCH   1  11
BRANCH   2  14
ATOM     14  C   UNL     1      -0.525  -2.576  -1.631  0.00  0.00    +0.436 C 
ATOM     15  F   UNL     1       0.783  -2.480  -1.144  0.00  0.00    -0.164 F 
ATOM     16  F   UNL     1      -0.893  -3.922  -1.716  0.00  0.00    -0.164 F 
ATOM     17  F   UNL     1      -0.593  -1.993  -2.902  0.00  0.00    -0.164 F 
ENDBRANCH   2  14
BRANCH   3  18
ATOM     18  C   UNL     1      -3.497  -3.389  -0.927  0.00  0.00    -0.026 C 
BRANCH  18  19
ATOM     19  N   UNL     1      -3.284  -4.544  -0.044  0.00  0.00    +0.382 N 
ATOM     20  H   UNL     1      -2.300  -4.764  -0.009  0.00  0.00    -0.090 HD
ATOM     21  H   UNL     1      -3.612  -4.323   0.884  0.00  0.00    -0.090 HD
ATOM     22  H   UNL     1      -3.794  -5.339  -0.400  0.00  0.00    -0.090 HD
ENDBRANCH  18  19
ENDBRANCH   3  18
TORSDOF 5
