REMARK  Name = ZINC06149592
REMARK  14 active torsions:
REMARK  status: ('A' for Active; 'I' for Inactive)
REMARK    1  A    between atoms: C_1  and  C_2
REMARK    2  A    between atoms: C_2  and  C_3
REMARK    3  A    between atoms: C_3  and  C_4
REMARK    4  A    between atoms: C_3  and  C_5
REMARK    5  A    between atoms: C_3  and  N_6
REMARK    6  A    between atoms: C_7  and  C_11
REMARK    7  A    between atoms: C_11  and  C_13
REMARK    8  A    between atoms: C_11  and  N_75
REMARK    9  A    between atoms: C_19  and  C_25
REMARK   10  A    between atoms: C_26  and  C_27
REMARK   11  A    between atoms: C_26  and  N_75
REMARK   12  A    between atoms: C_27  and  C_28
REMARK   13  A    between atoms: C_34  and  C_35
REMARK   14  A    between atoms: C_34  and  N_75
REMARK                            x       y       z     vdW  Elec       q    Type
REMARK                         _______ _______ _______ _____ _____    ______ ____
ROOT
ATOM      1  C   UNL     1      -0.617  -3.029   4.752  0.00  0.00    +0.039 C 
ENDROOT
BRANCH   1   2
ATOM      2  C   UNL     1      -0.455  -2.460   3.366  0.00  0.00    +0.011 A 
ATOM      3  C   UNL     1       0.787  -2.259   2.860  0.00  0.00    +0.017 A 
ATOM      4  C   UNL     1       0.911  -1.703   1.511  0.00  0.00    -0.001 A 
ATOM      5  C   UNL     1       2.165  -1.474   0.935  0.00  0.00    +0.010 A 
ATOM      6  C   UNL     1       2.246  -0.955  -0.326  0.00  0.00    +0.001 A 
ATOM      7  C   UNL     1       1.095  -0.660  -1.044  0.00  0.00    +0.005 A 
ATOM      8  C   UNL     1      -0.151  -0.873  -0.495  0.00  0.00    -0.026 A 
ATOM      9  C   UNL     1      -0.258  -1.400   0.788  0.00  0.00    +0.052 A 
ATOM     10  N   UNL     1      -1.492  -1.628   1.360  0.00  0.00    -0.322 N 
ATOM     11  H   UNL     1      -2.321  -1.412   0.845  0.00  0.00    +0.169 HD
ATOM     12  C   UNL     1      -1.595  -2.138   2.600  0.00  0.00    +0.251 A 
ATOM     13  O   UNL     1      -2.702  -2.328   3.074  0.00  0.00    -0.268 OA
ATOM     14  C   UNL     1      -1.392  -0.541  -1.283  0.00  0.00    +0.046 C 
ENDBRANCH   1   2
BRANCH   1  16
ATOM     15  N   UNL     1       1.285  -4.537   5.537  0.00  0.00    -0.225 N 
ATOM     16  C   UNL     1       0.741  -3.322   5.337  0.00  0.00    +0.143 A 
ATOM     17  N   UNL     1       1.618  -2.443   5.756  0.00  0.00    -0.115 NA
ATOM     18  N   UNL     1       2.650  -3.084   6.185  0.00  0.00    -0.023 NA
ATOM     19  N   UNL     1       2.453  -4.349   6.052  0.00  0.00    -0.043 NA
BRANCH  15  20
ATOM     20  C   UNL     1       0.668  -5.828   5.226  0.00  0.00    +0.061 C 
ATOM     21  C   UNL     1      -0.587  -6.014   6.081  0.00  0.00    +0.036 C 
ATOM     22  C   UNL     1       0.286  -5.867   3.745  0.00  0.00    +0.036 C 
BRANCH  20  24
ATOM     23  C   UNL     1       1.016  -8.302   5.201  0.00  0.00    +0.006 C 
ATOM     24  C   UNL     1       1.661  -6.953   5.526  0.00  0.00    +0.026 C 
ENDBRANCH  20  24
ENDBRANCH  15  20
ENDBRANCH   1  16
BRANCH   1  25
ATOM     25  N   UNL     1      -1.343  -2.053   5.590  0.00  0.00    +0.392 N 
ATOM     26  H   UNL     1      -2.266  -1.877   5.175  0.00  0.00    -0.080 HD
BRANCH  25  27
ATOM     27  C   UNL     1      -1.526  -2.594   6.954  0.00  0.00    -0.072 C 
BRANCH  27  28
ATOM     28  C   UNL     1      -2.595  -1.768   7.671  0.00  0.00    +0.016 C 
BRANCH  28  29
ATOM     29  C   UNL     1      -2.763  -2.278   9.079  0.00  0.00    -0.049 A 
ATOM     30  C   UNL     1      -3.686  -3.271   9.349  0.00  0.00    +0.003 A 
ATOM     31  C   UNL     1      -3.837  -3.742  10.640  0.00  0.00    +0.000 A 
ATOM     32  C   UNL     1      -3.072  -3.213  11.662  0.00  0.00    +0.000 A 
ATOM     33  C   UNL     1      -2.153  -2.215  11.393  0.00  0.00    +0.000 A 
ATOM     34  C   UNL     1      -1.999  -1.748  10.102  0.00  0.00    +0.003 A 
ENDBRANCH  28  29
ENDBRANCH  27  28
ENDBRANCH  25  27
BRANCH  25  35
ATOM     35  C   UNL     1      -0.594  -0.780   5.648  0.00  0.00    -0.042 C 
BRANCH  35  36
ATOM     36  C   UNL     1      -1.077   0.112   4.534  0.00  0.00    -0.064 A 
ATOM     37  C   UNL     1      -0.274   0.341   3.433  0.00  0.00    +0.002 A 
ATOM     38  C   UNL     1      -0.720   1.155   2.409  0.00  0.00    +0.000 A 
ATOM     39  C   UNL     1      -1.965   1.749   2.491  0.00  0.00    +0.000 A 
ATOM     40  C   UNL     1      -2.767   1.525   3.595  0.00  0.00    +0.000 A 
ATOM     41  C   UNL     1      -2.323   0.707   4.616  0.00  0.00    +0.002 A 
ENDBRANCH  35  36
ENDBRANCH  25  35
ENDBRANCH   1  25
TORSDOF 10
