REMARK  Name = ZINC39794915
REMARK  4 active torsions:
REMARK  status: ('A' for Active; 'I' for Inactive)
REMARK    1  A    between atoms: C_1  and  C_2
REMARK    2  A    between atoms: C_2  and  C_31
REMARK    3  A    between atoms: C_6  and  C_17
REMARK    4  A    between atoms: C_20  and  C_22
REMARK                            x       y       z     vdW  Elec       q    Type
REMARK                         _______ _______ _______ _____ _____    ______ ____
ROOT
ATOM      1  C   UNL     1      -0.019   1.526   0.010  0.00  0.00    +0.011 C 
ATOM      2  C   UNL     1       0.002  -0.004   0.002  0.00  0.00    -0.023 C 
ATOM      3  C   UNL     1       0.740  -0.501  -1.243  0.00  0.00    +0.058 C 
ATOM      4  C   UNL     1       2.167  -0.013  -1.215  0.00  0.00    +0.017 C 
ATOM      5  C   UNL     1       2.814   0.180  -0.046  0.00  0.00    +0.027 C 
ATOM      6  C   UNL     1       4.244   0.656  -0.021  0.00  0.00    +0.128 C 
ATOM      7  C   UNL     1       4.636   1.268  -1.334  0.00  0.00    +0.070 A 
ATOM      8  C   UNL     1       3.909   1.032  -2.461  0.00  0.00    +0.111 A 
ATOM      9  N   UNL     1       4.296   1.600  -3.650  0.00  0.00    -0.323 N 
ATOM     10  C   UNL     1       5.386   2.388  -3.703  0.00  0.00    +0.159 A 
ATOM     11  S   UNL     1       5.851   3.084  -5.197  0.00  0.00    -0.013 S 
ATOM     12  N   UNL     1       6.116   2.636  -2.600  0.00  0.00    -0.302 N 
ATOM     13  C   UNL     1       5.770   2.098  -1.415  0.00  0.00    +0.258 A 
ATOM     14  O   UNL     1       6.435   2.327  -0.419  0.00  0.00    -0.267 OA
ATOM     15  N   UNL     1       2.794   0.233  -2.407  0.00  0.00    -0.304 N 
ATOM     16  C   UNL     1       2.173  -0.055   1.183  0.00  0.00    +0.162 C 
ATOM     17  O   UNL     1       2.786   0.119   2.218  0.00  0.00    -0.292 OA
ATOM     18  C   UNL     1       0.743  -0.516   1.242  0.00  0.00    +0.086 C 
ATOM     19  C   UNL     1      -1.432  -0.538   0.003  0.00  0.00    +0.011 C 
ATOM     20  H   UNL     1       6.897   3.208  -2.659  0.00  0.00    +0.171 HD
ATOM     21  H   UNL     1       2.446  -0.161  -3.223  0.00  0.00    +0.153 HD
ATOM     22  H   UNL     1       3.782   1.433  -4.455  0.00  0.00    +0.169 HD
ENDROOT
BRANCH   6  23
ATOM     23  C   UNL     1       5.149  -0.514   0.268  0.00  0.00    +0.118 A 
ATOM     24  C   UNL     1       5.979  -0.624   1.323  0.00  0.00    +0.046 A 
ATOM     25  C   UNL     1       6.633  -1.866   1.206  0.00  0.00    +0.050 A 
ATOM     26  C   UNL     1       6.162  -2.452   0.074  0.00  0.00    +0.135 A 
ATOM     27  O   UNL     1       5.258  -1.623  -0.482  0.00  0.00    -0.459 OA
BRANCH  26  28
ATOM     28  C   UNL     1       6.567  -3.772  -0.452  0.00  0.00    +0.017 A 
ATOM     29  C   UNL     1       7.511  -4.540   0.232  0.00  0.00    +0.011 A 
ATOM     30  C   UNL     1       7.884  -5.772  -0.265  0.00  0.00    +0.001 A 
ATOM     31  C   UNL     1       7.325  -6.246  -1.438  0.00  0.00    +0.000 A 
ATOM     32  C   UNL     1       6.389  -5.490  -2.122  0.00  0.00    +0.001 A 
ATOM     33  C   UNL     1       6.003  -4.260  -1.633  0.00  0.00    +0.011 A 
ENDBRANCH  26  28
ENDBRANCH   6  23
TORSDOF 2
