REMARK  Name = ZINC39659842
REMARK  5 active torsions:
REMARK  status: ('A' for Active; 'I' for Inactive)
REMARK    1  A    between atoms: C_3  and  O_8
REMARK    2  A    between atoms: O_8  and  C_9
REMARK    3  A    between atoms: C_9  and  C_10
REMARK    4  A    between atoms: C_14  and  C_23
REMARK    5  A    between atoms: N_25  and  C_26
REMARK                            x       y       z     vdW  Elec       q    Type
REMARK                         _______ _______ _______ _____ _____    ______ ____
ROOT
ATOM      1  C   UNL     1       5.813   2.010   0.069  0.00  0.00    +0.253 C 
ATOM      2  O   UNL     1       5.541   3.191   0.113  0.00  0.00    -0.272 OA
ATOM      3  N   UNL     1       7.101   1.616   0.015  0.00  0.00    -0.297 N 
ATOM      4  C   UNL     1       7.625   0.232  -0.050  0.00  0.00    +0.121 C 
ATOM      5  C   UNL     1       8.815   0.310  -1.033  0.00  0.00    +0.100 C 
ATOM      6  C   UNL     1       9.262   1.781  -0.990  0.00  0.00    -0.004 C 
ATOM      7  C   UNL     1       8.312   2.471  -0.000  0.00  0.00    +0.115 C 
ATOM      8  C   UNL     1       9.126   2.415  -2.371  0.00  0.00    -0.010 C 
ATOM      9  C   UNL     1       9.630   3.860  -2.317  0.00  0.00    -0.082 C 
ATOM     10  N   UNL     1      11.034   3.874  -1.886  0.00  0.00    +0.379 N 
ATOM     11  C   UNL     1      11.144   3.348  -0.520  0.00  0.00    -0.082 C 
ATOM     12  C   UNL     1      10.703   1.882  -0.499  0.00  0.00    -0.010 C 
ATOM     13  H   UNL     1      11.582   3.302  -2.510  0.00  0.00    -0.086 HD
ATOM     14  H   UNL     1      11.382   4.821  -1.909  0.00  0.00    -0.086 HD
ENDROOT
BRANCH   5  15
ATOM     15  C   UNL     1       8.372  -0.066  -2.423  0.00  0.00    +0.218 C 
ATOM     16  O   UNL     1       7.233   0.153  -2.777  0.00  0.00    -0.275 OA
ATOM     17  N   UNL     1       9.242  -0.645  -3.274  0.00  0.00    -0.312 N 
ATOM     18  H   UNL     1      10.154  -0.820  -2.991  0.00  0.00    +0.149 HD
BRANCH  17  19
ATOM     19  C   UNL     1       8.812  -1.011  -4.626  0.00  0.00    +0.073 C 
ATOM     20  C   UNL     1       8.151  -2.390  -4.595  0.00  0.00    +0.022 C 
ATOM     21  C   UNL     1       7.358  -2.605  -5.886  0.00  0.00    +0.002 C 
ATOM     22  C   UNL     1       6.568  -1.337  -6.217  0.00  0.00    +0.000 C 
ATOM     23  C   UNL     1       7.127  -0.707  -7.494  0.00  0.00    +0.000 C 
ATOM     24  C   UNL     1       8.444   0.004  -7.177  0.00  0.00    +0.000 C 
ATOM     25  C   UNL     1       9.556  -1.034  -7.011  0.00  0.00    +0.002 C 
ATOM     26  C   UNL     1      10.027  -1.049  -5.555  0.00  0.00    +0.022 C 
ENDBRANCH  17  19
ENDBRANCH   5  15
BRANCH   1  27
ATOM     27  C   UNL     1       4.711   0.982   0.076  0.00  0.00    +0.324 C 
BRANCH  27  28
ATOM     28  O   UNL     1       3.445   1.642   0.137  0.00  0.00    -0.483 OA
BRANCH  28  31
ATOM     29  C   UNL     1      -0.048   0.625   0.223  0.00  0.00    +0.005 A 
ATOM     30  C   UNL     1       1.077   1.428   0.210  0.00  0.00    +0.046 A 
ATOM     31  C   UNL     1       2.338   0.854   0.151  0.00  0.00    +0.123 A 
ATOM     32  C   UNL     1       2.468  -0.526   0.106  0.00  0.00    +0.065 A 
ATOM     33  C   UNL     1       1.340  -1.326   0.119  0.00  0.00    +0.044 A 
ATOM     34  C   UNL     1       0.083  -0.750   0.178  0.00  0.00    +0.020 A 
ATOM     35 CL   UNL     1       1.501  -3.054   0.062  0.00  0.00    -0.083 Cl
ENDBRANCH  28  31
ENDBRANCH  27  28
ENDBRANCH   1  27
TORSDOF 5
