REMARK  Name = ZINC08415945
REMARK  16 active torsions:
REMARK  status: ('A' for Active; 'I' for Inactive)
REMARK    1  A    between atoms: C_1  and  C_2
REMARK    2  A    between atoms: C_2  and  O_3
REMARK    3  A    between atoms: O_3  and  C_4
REMARK    4  A    between atoms: C_4  and  C_6
REMARK    5  A    between atoms: C_8  and  C_35
REMARK    6  A    between atoms: C_15  and  C_26
REMARK    7  A    between atoms: C_17  and  C_21
REMARK    8  A    between atoms: C_18  and  C_20
REMARK    9  A    between atoms: C_21  and  O_23
REMARK   10  A    between atoms: O_23  and  C_24
REMARK   11  A    between atoms: C_24  and  C_25
REMARK   12  A    between atoms: C_29  and  N_32
REMARK   13  A    between atoms: N_32  and  C_33
REMARK   14  A    between atoms: N_32  and  C_34
REMARK   15  A    between atoms: C_40  and  O_41
REMARK   16  A    between atoms: O_41  and  C_42
REMARK                            x       y       z     vdW  Elec       q    Type
REMARK                         _______ _______ _______ _____ _____    ______ ____
ROOT
ATOM      1  C   UNL     1      -1.185  -3.183   1.133  0.00  0.00    +0.176 C 
ATOM      2  C   UNL     1      -1.633  -4.589   0.723  0.00  0.00    +0.049 C 
ATOM      3  C   UNL     1      -1.804  -5.433   1.989  0.00  0.00    +0.060 C 
ATOM      4  C   UNL     1      -2.812  -4.779   2.901  0.00  0.00    +0.016 C 
ATOM      5  C   UNL     1      -2.961  -3.437   2.925  0.00  0.00    +0.025 C 
ATOM      6  C   UNL     1      -2.191  -2.605   2.090  0.00  0.00    +0.176 C 
ATOM      7  O   UNL     1      -2.340  -1.400   2.143  0.00  0.00    -0.291 OA
ATOM      8  C   UNL     1      -3.958  -2.789   3.852  0.00  0.00    +0.092 C 
ATOM      9  C   UNL     1      -4.969  -3.787   4.336  0.00  0.00    +0.065 C 
ATOM     10  C   UNL     1      -4.742  -5.109   4.248  0.00  0.00    +0.016 C 
ATOM     11  N   UNL     1      -3.578  -5.577   3.707  0.00  0.00    -0.321 N 
ATOM     12  C   UNL     1      -5.778  -6.081   4.752  0.00  0.00    +0.061 C 
ATOM     13  H   UNL     1      -3.292  -6.485   3.894  0.00  0.00    +0.152 HD
ENDROOT
BRANCH   8  14
ATOM     14  C   UNL     1      -3.228  -2.211   5.037  0.00  0.00    -0.035 A 
ATOM     15  C   UNL     1      -2.481  -3.037   5.857  0.00  0.00    +0.006 A 
ATOM     16  C   UNL     1      -1.812  -2.510   6.944  0.00  0.00    +0.023 A 
ATOM     17  C   UNL     1      -1.889  -1.149   7.213  0.00  0.00    +0.029 A 
ATOM     18  C   UNL     1      -2.640  -0.323   6.387  0.00  0.00    +0.023 A 
ATOM     19  C   UNL     1      -3.303  -0.855   5.299  0.00  0.00    +0.006 A 
BRANCH  17  20
ATOM     20  N   UNL     1      -1.213  -0.614   8.312  0.00  0.00    -0.336 N 
ATOM     21  C   UNL     1      -0.279  -1.446   9.074  0.00  0.00    +0.129 C 
ATOM     22  C   UNL     1      -1.438   0.780   8.702  0.00  0.00    +0.129 C 
ENDBRANCH  17  20
ENDBRANCH   8  14
BRANCH   2  23
ATOM     23  C   UNL     1      -0.592  -5.213  -0.170  0.00  0.00    -0.001 A 
ATOM     24  C   UNL     1       0.362  -6.057   0.366  0.00  0.00    +0.007 A 
ATOM     25  C   UNL     1       1.318  -6.630  -0.453  0.00  0.00    +0.001 A 
ATOM     26  C   UNL     1       1.322  -6.359  -1.809  0.00  0.00    +0.004 A 
ATOM     27  C   UNL     1       0.370  -5.516  -2.349  0.00  0.00    +0.046 A 
ATOM     28  C   UNL     1      -0.594  -4.945  -1.531  0.00  0.00    +0.124 A 
BRANCH  28  29
ATOM     29  O   UNL     1      -1.534  -4.120  -2.061  0.00  0.00    -0.495 OA
ATOM     30  C   UNL     1      -1.475  -3.889  -3.470  0.00  0.00    +0.277 C 
ENDBRANCH  28  29
ENDBRANCH   2  23
BRANCH   1  31
ATOM     31  C   UNL     1       0.163  -3.259   1.803  0.00  0.00    +0.318 C 
ATOM     32  O   UNL     1       0.686  -4.332   1.988  0.00  0.00    -0.250 OA
BRANCH  31  33
ATOM     33  O   UNL     1       0.783  -2.134   2.194  0.00  0.00    -0.464 OA
BRANCH  33  35
ATOM     34  C   UNL     1       2.604  -0.900   3.195  0.00  0.00    +0.048 C 
ATOM     35  C   UNL     1       2.058  -2.280   2.822  0.00  0.00    +0.229 C 
ENDBRANCH  33  35
ENDBRANCH  31  33
ENDBRANCH   1  31
BRANCH   9  36
ATOM     36  C   UNL     1      -6.184  -3.327   4.896  0.00  0.00    +0.338 C 
ATOM     37  O   UNL     1      -7.087  -4.112   5.117  0.00  0.00    -0.245 OA
BRANCH  36  38
ATOM     38  O   UNL     1      -6.342  -2.018   5.183  0.00  0.00    -0.462 OA
BRANCH  38  39
ATOM     39  C   UNL     1      -7.595  -1.624   5.746  0.00  0.00    +0.229 C 
ATOM     40  C   UNL     1      -7.587  -0.115   6.002  0.00  0.00    +0.048 C 
ENDBRANCH  38  39
ENDBRANCH  36  38
ENDBRANCH   9  36
TORSDOF 10
