REMARK  Name = ZINC36207975
REMARK  14 active torsions:
REMARK  status: ('A' for Active; 'I' for Inactive)
REMARK    1  A    between atoms: C_1  and  C_2
REMARK    2  A    between atoms: C_5  and  C_9
REMARK    3  A    between atoms: C_6  and  C_8
REMARK    4  A    between atoms: C_18  and  C_20
REMARK    5  A    between atoms: C_20  and  N_21
REMARK    6  A    between atoms: N_21  and  C_22
REMARK    7  A    between atoms: N_21  and  C_27
REMARK    8  A    between atoms: C_22  and  C_23
REMARK    9  A    between atoms: C_23  and  C_24
REMARK   10  A    between atoms: C_24  and  C_25
REMARK   11  A    between atoms: C_24  and  C_26
REMARK   12  A    between atoms: C_27  and  C_28
REMARK   13  A    between atoms: C_28  and  C_30
REMARK   14  A    between atoms: C_28  and  O_31
REMARK                            x       y       z     vdW  Elec       q    Type
REMARK                         _______ _______ _______ _____ _____    ______ ____
ROOT
ATOM      1  C   UNL     1       0.374  -4.870  -0.668  0.00  0.00    +0.004 A 
ATOM      2  C   UNL     1       1.306  -5.655  -1.262  0.00  0.00    +0.056 A 
ATOM      3  S   UNL     1       0.708  -7.307  -0.957  0.00  0.00    -0.076 S 
ATOM      4  C   UNL     1      -0.763  -6.909  -0.049  0.00  0.00    +0.116 A 
ATOM      5  C   UNL     1      -0.755  -5.506   0.002  0.00  0.00    +0.080 A 
ATOM      6  C   UNL     1      -1.852  -4.903   0.696  0.00  0.00    +0.260 A 
ATOM      7  O   UNL     1      -1.935  -3.691   0.789  0.00  0.00    -0.267 OA
ATOM      8  N   UNL     1      -2.791  -5.696   1.244  0.00  0.00    -0.312 N 
ATOM      9  H   UNL     1      -3.537  -5.293   1.716  0.00  0.00    +0.170 HD
ATOM     10  C   UNL     1      -2.716  -7.048   1.149  0.00  0.00    +0.094 A 
ATOM     11  N   UNL     1      -1.732  -7.627   0.513  0.00  0.00    -0.229 NA
ENDROOT
BRANCH   1  16
ATOM     12  C   UNL     1       0.872   0.865  -0.772  0.00  0.00    +0.044 C 
ATOM     13  C   UNL     1       0.742  -0.636  -0.745  0.00  0.00    -0.050 A 
ATOM     14  C   UNL     1       0.544  -1.332  -1.924  0.00  0.00    +0.004 A 
ATOM     15  C   UNL     1       0.424  -2.706  -1.906  0.00  0.00    +0.009 A 
ATOM     16  C   UNL     1       0.502  -3.394  -0.695  0.00  0.00    -0.014 A 
ATOM     17  C   UNL     1       0.702  -2.687   0.490  0.00  0.00    -0.042 A 
ATOM     18  C   UNL     1       0.826  -1.313   0.458  0.00  0.00    +0.007 A 
ATOM     19  C   UNL     1       0.788  -3.423   1.802  0.00  0.00    +0.044 C 
ENDBRANCH   1  16
BRANCH  10  20
ATOM     20  C   UNL     1      -3.791  -7.896   1.778  0.00  0.00    -0.003 C 
BRANCH  20  21
ATOM     21  N   UNL     1      -3.494  -9.316   1.546  0.00  0.00    +0.386 N 
ATOM     22  H   UNL     1      -3.382  -9.478   0.556  0.00  0.00    -0.081 HD
BRANCH  21  23
ATOM     23  C   UNL     1      -4.601 -10.137   2.053  0.00  0.00    -0.078 C 
BRANCH  23  24
ATOM     24  C   UNL     1      -5.861  -9.861   1.230  0.00  0.00    -0.016 C 
BRANCH  24  25
ATOM     25  C   UNL     1      -6.976 -10.813   1.667  0.00  0.00    -0.019 C 
ATOM     26  C   UNL     1      -7.365 -10.510   3.116  0.00  0.00    +0.007 C 
ATOM     27  C   UNL     1      -8.194 -10.623   0.761  0.00  0.00    +0.007 C 
ENDBRANCH  24  25
ENDBRANCH  23  24
ENDBRANCH  21  23
BRANCH  21  28
ATOM     28  C   UNL     1      -2.255  -9.678   2.246  0.00  0.00    -0.047 C 
BRANCH  28  29
ATOM     29  C   UNL     1      -1.868 -11.114   1.887  0.00  0.00    +0.095 C 
ATOM     30  C   UNL     1      -0.582 -11.495   2.623  0.00  0.00    +0.035 C 
BRANCH  29  31
ATOM     31  O   UNL     1      -1.656 -11.213   0.477  0.00  0.00    -0.394 OA
ATOM     32  H   UNL     1      -1.407 -12.098   0.177  0.00  0.00    +0.210 HD
ENDBRANCH  29  31
ENDBRANCH  28  29
ENDBRANCH  21  28
ENDBRANCH  20  21
ENDBRANCH  10  20
TORSDOF 9
