REMARK  Name = ZINC39466934
REMARK  8 active torsions:
REMARK  status: ('A' for Active; 'I' for Inactive)
REMARK    1  A    between atoms: C_1  and  C_2
REMARK    2  A    between atoms: C_2  and  O_3
REMARK    3  A    between atoms: O_3  and  C_4
REMARK    4  A    between atoms: P_13  and  C_32
REMARK    5  A    between atoms: C_21  and  S_22
REMARK    6  A    between atoms: S_22  and  O_25
REMARK    7  A    between atoms: O_25  and  C_26
REMARK    8  A    between atoms: C_32  and  C_33
REMARK                            x       y       z     vdW  Elec       q    Type
REMARK                         _______ _______ _______ _____ _____    ______ ____
ROOT
ATOM      1  C   UNL     1      -1.498  -1.848   0.006  0.00  0.00    +0.145 C 
ATOM      2  C   UNL     1      -0.432  -2.654  -0.003  0.00  0.00    +0.024 C 
ATOM      3  C   UNL     1      -0.632  -4.145  -0.020  0.00  0.00    +0.019 C 
ATOM      4  C   UNL     1       0.596  -4.845  -0.586  0.00  0.00    -0.002 C 
ATOM      5  C   UNL     1       0.803  -4.476  -2.060  0.00  0.00    -0.020 C 
ATOM      6  C   UNL     1       2.036  -5.247  -2.549  0.00  0.00    +0.156 C 
ATOM      7  O   UNL     1       2.308  -4.902  -3.918  0.00  0.00    -0.319 OA
ATOM      8  P   UNL     1       1.075  -4.984  -4.977  0.00  0.00    +0.262 P 
ATOM      9  O   UNL     1       0.859  -6.384  -5.406  0.00  0.00    -0.274 OA
ATOM     10  N   UNL     1      -0.241  -4.429  -4.151  0.00  0.00    -0.291 NA
ATOM     11  N   UNL     1      -0.388  -4.826  -2.838  0.00  0.00    +0.397 N 
ATOM     12  C   UNL     1      -1.564  -4.103  -2.328  0.00  0.00    -0.046 C 
ATOM     13  C   UNL     1      -1.844  -4.488  -0.893  0.00  0.00    +0.006 C 
ATOM     14  C   UNL     1      -3.030  -3.683  -0.417  0.00  0.00    +0.009 C 
ATOM     15  C   UNL     1      -2.851  -2.438   0.016  0.00  0.00    +0.165 C 
ATOM     16  H   UNL     1      -0.890  -3.846  -4.575  0.00  0.00    +0.111 HD
ATOM     17  H   UNL     1      -0.541  -5.822  -2.796  0.00  0.00    -0.055 HD
ENDROOT
BRANCH  15  18
ATOM     18  S   UNL     1      -4.223  -1.494   0.593  0.00  0.00    +0.154 S 
ATOM     19  O   UNL     1      -4.088  -0.197   0.030  0.00  0.00    -0.131 OA
ATOM     20  O   UNL     1      -5.379  -2.295   0.394  0.00  0.00    -0.131 OA
BRANCH  18  21
ATOM     21  O   UNL     1      -4.058  -1.335   2.098  0.00  0.00    -0.342 OA
BRANCH  21  22
ATOM     22  C   UNL     1      -3.104  -0.436   2.458  0.00  0.00    +0.157 A 
ATOM     23  C   UNL     1      -1.792  -0.851   2.639  0.00  0.00    +0.048 A 
ATOM     24  C   UNL     1      -0.824   0.065   3.004  0.00  0.00    +0.004 A 
ATOM     25  C   UNL     1      -1.162   1.393   3.189  0.00  0.00    +0.000 A 
ATOM     26  C   UNL     1      -2.468   1.808   3.010  0.00  0.00    +0.004 A 
ATOM     27  C   UNL     1      -3.439   0.897   2.639  0.00  0.00    +0.048 A 
ENDBRANCH  21  22
ENDBRANCH  18  21
ENDBRANCH  15  18
BRANCH   1  28
ATOM     28  O   UNL     1      -1.339  -0.499   0.012  0.00  0.00    -0.491 OA
BRANCH  28  30
ATOM     29  C   UNL     1      -0.019   1.526   0.010  0.00  0.00    +0.048 C 
ATOM     30  C   UNL     1       0.002  -0.004   0.002  0.00  0.00    +0.226 C 
ENDBRANCH  28  30
ENDBRANCH   1  28
BRANCH   8  31
ATOM     31  C   UNL     1       1.412  -3.925  -6.423  0.00  0.00    +0.147 C 
BRANCH  31  32
ATOM     32  C   UNL     1       2.675  -4.389  -7.102  0.00  0.00    -0.037 A 
ATOM     33  C   UNL     1       3.896  -3.867  -6.719  0.00  0.00    +0.004 A 
ATOM     34  C   UNL     1       5.055  -4.292  -7.342  0.00  0.00    +0.000 A 
ATOM     35  C   UNL     1       4.992  -5.239  -8.347  0.00  0.00    +0.000 A 
ATOM     36  C   UNL     1       3.770  -5.761  -8.729  0.00  0.00    +0.000 A 
ATOM     37  C   UNL     1       2.612  -5.339  -8.103  0.00  0.00    +0.004 A 
ENDBRANCH  31  32
ENDBRANCH   8  31
TORSDOF 7
