REMARK  Name = ZINC36159061
REMARK  10 active torsions:
REMARK  status: ('A' for Active; 'I' for Inactive)
REMARK    1  A    between atoms: C_4  and  C_7
REMARK    2  A    between atoms: C_7  and  O_8
REMARK    3  A    between atoms: O_8  and  C_9
REMARK    4  A    between atoms: C_9  and  C_10
REMARK    5  A    between atoms: C_10  and  C_12
REMARK    6  A    between atoms: C_10  and  O_35
REMARK    7  A    between atoms: C_12  and  N_13
REMARK    8  A    between atoms: N_13  and  C_14
REMARK    9  A    between atoms: N_13  and  C_29
REMARK   10  A    between atoms: C_14  and  C_15
REMARK                            x       y       z     vdW  Elec       q    Type
REMARK                         _______ _______ _______ _____ _____    ______ ____
ROOT
ATOM      1  N   UNL     1       7.374  -2.817   4.391  0.00  0.00    +0.388 N 
ATOM      2  H   UNL     1       6.749  -3.040   5.151  0.00  0.00    -0.081 HD
ENDROOT
BRANCH   1   3
ATOM      3  C   UNL     1       7.743  -1.397   4.460  0.00  0.00    -0.068 C 
ATOM      4  C   UNL     1       8.617  -1.038   3.257  0.00  0.00    -0.015 C 
ATOM      5  C   UNL     1       9.001   0.442   3.329  0.00  0.00    -0.002 C 
ATOM      6  C   UNL     1       9.779   0.704   4.620  0.00  0.00    -0.000 C 
ATOM      7  C   UNL     1       8.905   0.345   5.824  0.00  0.00    -0.002 C 
ATOM      8  C   UNL     1       8.521  -1.135   5.751  0.00  0.00    -0.015 C 
ENDBRANCH   1   3
BRANCH   1   9
ATOM      9  C   UNL     1       6.705  -3.087   3.111  0.00  0.00    -0.044 C 
BRANCH   9  10
ATOM     10  C   UNL     1       5.350  -2.377   3.084  0.00  0.00    +0.124 C 
BRANCH  10  11
ATOM     11  O   UNL     1       5.554  -0.964   3.026  0.00  0.00    -0.391 OA
ATOM     12  H   UNL     1       5.972  -0.660   2.208  0.00  0.00    +0.210 HD
ENDBRANCH  10  11
BRANCH  10  13
ATOM     13  C   UNL     1       4.561  -2.830   1.854  0.00  0.00    +0.189 C 
BRANCH  13  14
ATOM     14  O   UNL     1       3.252  -2.257   1.890  0.00  0.00    -0.373 OA
BRANCH  14  15
ATOM     15  C   UNL     1       2.429  -2.619   0.780  0.00  0.00    +0.195 C 
BRANCH  15  19
ATOM     16  C   UNL     1      -1.397  -0.760   1.175  0.00  0.00    +0.000 A 
ATOM     17  C   UNL     1      -0.378  -0.109   0.506  0.00  0.00    +0.000 A 
ATOM     18  C   UNL     1       0.860  -0.711   0.378  0.00  0.00    +0.006 A 
ATOM     19  C   UNL     1       1.080  -1.963   0.920  0.00  0.00    -0.022 A 
ATOM     20  C   UNL     1       0.061  -2.614   1.591  0.00  0.00    +0.006 A 
ATOM     21  C   UNL     1      -1.177  -2.013   1.717  0.00  0.00    +0.000 A 
ENDBRANCH  15  19
ENDBRANCH  14  15
ENDBRANCH  13  14
ENDBRANCH  10  13
ENDBRANCH   9  10
ENDBRANCH   1   9
BRANCH   1  22
ATOM     22  C   UNL     1       8.584  -3.643   4.495  0.00  0.00    -0.003 C 
BRANCH  22  23
ATOM     23  C   UNL     1       8.950  -3.818   5.946  0.00  0.00    +0.094 A 
ATOM     24  N   UNL     1      10.121  -4.426   6.269  0.00  0.00    -0.312 N 
ATOM     25  H   UNL     1      10.705  -4.738   5.561  0.00  0.00    +0.170 HD
ATOM     26  C   UNL     1      10.486  -4.603   7.553  0.00  0.00    +0.260 A 
ATOM     27  O   UNL     1      11.540  -5.150   7.829  0.00  0.00    -0.267 OA
ATOM     28  C   UNL     1       9.614  -4.136   8.589  0.00  0.00    +0.075 A 
ATOM     29  C   UNL     1       9.807  -4.221  10.044  0.00  0.00    -0.023 A 
ATOM     30  C   UNL     1       8.835  -3.706  10.817  0.00  0.00    -0.004 A 
ATOM     31  S   UNL     1       7.622  -3.083   9.676  0.00  0.00    -0.073 S 
ATOM     32  C   UNL     1       8.430  -3.522   8.160  0.00  0.00    +0.116 A 
ATOM     33  N   UNL     1       8.138  -3.378   6.869  0.00  0.00    -0.229 NA
ATOM     34  C   UNL     1       9.138  -3.853  12.284  0.00  0.00    +0.043 C 
ATOM     35  C   UNL     1      10.248  -4.925  12.345  0.00  0.00    +0.010 C 
ATOM     36  C   UNL     1      10.903  -4.778  10.958  0.00  0.00    +0.037 C 
ENDBRANCH  22  23
ENDBRANCH   1  22
TORSDOF 10
