REMARK  Name = ZINC09234601
REMARK  3 active torsions:
REMARK  status: ('A' for Active; 'I' for Inactive)
REMARK    1  A    between atoms: C_5  and  C_6
REMARK    2  A    between atoms: N_10  and  N_14
REMARK    3  A    between atoms: C_15  and  C_17
REMARK                            x       y       z     vdW  Elec       q    Type
REMARK                         _______ _______ _______ _____ _____    ______ ____
ROOT
ATOM      1  C   UNL     1      -1.655   5.261   0.044  0.00  0.00    +0.066 C 
ATOM      2  C   UNL     1      -3.001   5.060  -0.048  0.00  0.00    +0.082 C 
ATOM      3  C   UNL     1      -3.762   3.800  -0.074  0.00  0.00    +0.275 C 
ATOM      4  O   UNL     1      -3.207   2.717  -0.012  0.00  0.00    -0.267 OA
ATOM      5  N   UNL     1      -5.077   3.900  -0.166  0.00  0.00    -0.170 N 
ATOM      6  C   UNL     1      -5.687   5.101  -0.243  0.00  0.00    +0.138 C 
ATOM      7  S   UNL     1      -7.361   5.438  -0.373  0.00  0.00    -0.026 S 
ATOM      8  S   UNL     1      -4.325   6.254  -0.176  0.00  0.00    -0.059 S 
ENDROOT
BRANCH   1  13
ATOM      9  C   UNL     1       0.588   4.214   0.323  0.00  0.00    +0.050 A 
ATOM     10  C   UNL     1       1.025   2.905   0.575  0.00  0.00    +0.056 A 
ATOM     11  C   UNL     1      -0.077   2.126   0.668  0.00  0.00    +0.165 A 
ATOM     12  O   UNL     1      -1.167   2.886   0.483  0.00  0.00    -0.450 OA
ATOM     13  C   UNL     1      -0.791   4.166   0.275  0.00  0.00    +0.130 A 
ATOM     14  I   UNL     1      -0.082   0.064   1.035  0.00  0.00    -0.001 I 
ENDBRANCH   1  13
BRANCH   5  15
ATOM     15  N   UNL     1      -5.854   2.734  -0.190  0.00  0.00    -0.226 N 
ATOM     16  C   UNL     1      -6.396   2.310  -1.348  0.00  0.00    +0.236 C 
ATOM     17  O   UNL     1      -6.213   2.938  -2.370  0.00  0.00    -0.274 OA
ATOM     18  H   UNL     1      -6.000   2.232   0.627  0.00  0.00    +0.173 HD
BRANCH  16  19
ATOM     19  C   UNL     1      -7.232   1.056  -1.375  0.00  0.00    +0.049 C 
ATOM     20  C   UNL     1      -8.434   1.224  -0.443  0.00  0.00    +0.019 C 
ATOM     21  C   UNL     1      -9.281  -0.049  -0.470  0.00  0.00    -0.009 C 
ATOM     22  C   UNL     1      -9.773  -0.304  -1.896  0.00  0.00    +0.007 C 
ATOM     23  C   UNL     1      -8.572  -0.472  -2.827  0.00  0.00    -0.009 C 
ATOM     24  C   UNL     1      -7.724   0.801  -2.801  0.00  0.00    +0.019 C 
ATOM     25  C   UNL     1      -7.726  -1.658  -2.360  0.00  0.00    +0.007 C 
ATOM     26  C   UNL     1      -7.234  -1.403  -0.934  0.00  0.00    -0.009 C 
ATOM     27  C   UNL     1      -8.435  -1.235  -0.002  0.00  0.00    +0.007 C 
ATOM     28  C   UNL     1      -6.386  -0.130  -0.907  0.00  0.00    +0.019 C 
ENDBRANCH  16  19
ENDBRANCH   5  15
TORSDOF 3
