REMARK  Name = ZINC12883285
REMARK  10 active torsions:
REMARK  status: ('A' for Active; 'I' for Inactive)
REMARK    1  A    between atoms: CB_1  and  CA_2
REMARK    2  A    between atoms: CA_2  and  C_4
REMARK    3  A    between atoms: CA_2  and  N_12
REMARK    4  A    between atoms: N_6  and  CA_7
REMARK    5  A    between atoms: CA_7  and  CB_9
REMARK    6  A    between atoms: CA_7  and  C_10
REMARK    7  A    between atoms: C_13  and  C_15
REMARK    8  A    between atoms: C_15  and  C_17
REMARK    9  A    between atoms: C_15  and  N_24
REMARK   10  A    between atoms: C_17  and  C_18
REMARK                            x       y       z     vdW  Elec       q    Type
REMARK                         _______ _______ _______ _____ _____    ______ ____
ROOT
ATOM      1  C   UNK A   0       4.789   4.308  -0.023  0.00  0.00    +0.185 C 
ENDROOT
BRANCH   1   2
ATOM      2  N   UNK A   0       3.561   3.510  -0.014  0.00  0.00    -0.248 N 
ATOM      3  C   UNK A   0       3.648   2.162  -0.023  0.00  0.00    +0.265 A 
ATOM      4  O   UNK A   0       4.729   1.606  -0.037  0.00  0.00    -0.267 OA
ATOM      5  C   UNK A   0       2.397   1.382  -0.014  0.00  0.00    +0.063 A 
ATOM      6  C   UNK A   0       2.402  -0.011  -0.022  0.00  0.00    +0.015 A 
ATOM      7  C   UNK A   0       1.204  -0.695  -0.014  0.00  0.00    +0.001 A 
ATOM      8  C   UNK A   0       0.002  -0.004   0.002  0.00  0.00    +0.002 A 
ATOM      9  C   UNK A   0      -0.017   1.376   0.010  0.00  0.00    +0.026 A 
ATOM     10  C   UNK A   0       1.177   2.081   0.002  0.00  0.00    +0.056 A 
ATOM     11  N   UNK A   0       1.203   3.468   0.009  0.00  0.00    -0.307 N 
ATOM     12  H   UNK A   0       0.369   3.964   0.020  0.00  0.00    +0.170 HD
ATOM     13  C   UNK A   0       2.372   4.132   0.001  0.00  0.00    +0.330 A 
ATOM     14  O   UNK A   0       2.351   5.347   0.007  0.00  0.00    -0.246 OA
ENDBRANCH   1   2
BRANCH   1  16
ATOM     15  N   ALA A   1       5.882   5.996   1.419  0.00  0.00    -0.303 N 
ATOM     16  C   UNK A   0       4.836   5.171   1.212  0.00  0.00    +0.237 C 
ATOM     17  O   UNK A   0       3.932   5.124   2.019  0.00  0.00    -0.274 OA
ATOM     18  H   ALA A   1       6.605   6.034   0.773  0.00  0.00    +0.150 HD
BRANCH  15  20
ATOM     19  CB  ALA A   1       6.518   6.032   3.780  0.00  0.00    +0.038 C 
ATOM     20  CA  ALA A   1       5.927   6.834   2.619  0.00  0.00    +0.156 C 
BRANCH  20  21
ATOM     21  C   ALA A   1       6.787   8.043   2.355  0.00  0.00    +0.234 C 
ATOM     22  O   ALA A   1       7.311   8.190   1.271  0.00  0.00    -0.274 OA
ATOM     23  N   ALA A   1       6.975   8.962   3.323  0.00  0.00    -0.301 N 
ATOM     24  H   ALA A   1       6.556   8.845   4.191  0.00  0.00    +0.150 HD
BRANCH  23  25
ATOM     25  CA  ALA A   1       7.811  10.137   3.067  0.00  0.00    +0.183 C 
ATOM     26  CB  ALA A   1       6.968  11.226   2.400  0.00  0.00    +0.040 C 
BRANCH  25  27
ATOM     27  C   ALA A   1       8.362  10.656   4.370  0.00  0.00    +0.376 C 
ATOM     28  O   ALA A   1       8.085  10.100   5.406  0.00  0.00    -0.244 OA
ATOM     29  OXT ALA A   1       9.161  11.734   4.378  0.00  0.00    -0.244 OA
ENDBRANCH  25  27
ENDBRANCH  23  25
ENDBRANCH  20  21
ENDBRANCH  15  20
ENDBRANCH   1  16
BRANCH   1  30
ATOM     30  C   UNK A   0       4.811   5.198  -1.268  0.00  0.00    +0.070 C 
BRANCH  30  31
ATOM     31  C   UNK A   0       4.888   4.335  -2.500  0.00  0.00    -0.045 A 
ATOM     32  C   UNK A   0       6.119   3.982  -3.021  0.00  0.00    +0.004 A 
ATOM     33  C   UNK A   0       6.190   3.186  -4.149  0.00  0.00    +0.000 A 
ATOM     34  C   UNK A   0       5.030   2.752  -4.763  0.00  0.00    +0.000 A 
ATOM     35  C   UNK A   0       3.799   3.109  -4.245  0.00  0.00    +0.000 A 
ATOM     36  C   UNK A   0       3.728   3.900  -3.114  0.00  0.00    +0.004 A 
ENDBRANCH  30  31
ENDBRANCH   1  30
TORSDOF 8
