REMARK  Name = ZINC20176316
REMARK  11 active torsions:
REMARK  status: ('A' for Active; 'I' for Inactive)
REMARK    1  A    between atoms: C_1  and  C_2
REMARK    2  A    between atoms: C_2  and  O_3
REMARK    3  A    between atoms: O_3  and  C_4
REMARK    4  A    between atoms: C_7  and  N_10
REMARK    5  A    between atoms: N_12  and  C_30
REMARK    6  A    between atoms: C_13  and  C_16
REMARK    7  A    between atoms: C_19  and  S_22
REMARK    8  A    between atoms: S_22  and  N_25
REMARK    9  A    between atoms: C_30  and  C_31
REMARK   10  A    between atoms: C_31  and  C_32
REMARK   11  A    between atoms: C_31  and  C_33
REMARK                            x       y       z     vdW  Elec       q    Type
REMARK                         _______ _______ _______ _____ _____    ______ ____
ROOT
ATOM      1  N   UNL     1       0.038   1.415  -0.506  0.00  0.00    -0.336 N 
ATOM      2  C   UNL     1       1.151   2.082  -0.272  0.00  0.00    +0.152 A 
ATOM      3  N   UNL     1       1.345   3.439  -0.159  0.00  0.00    -0.320 N 
ATOM      4  C   UNL     1       2.609   3.903   0.090  0.00  0.00    +0.058 A 
ATOM      5  C   UNL     1       3.627   3.028   0.219  0.00  0.00    +0.075 A 
ATOM      6  S   UNL     1       2.805   1.459  -0.009  0.00  0.00    -0.059 S 
ATOM      7  H   UNL     1      -0.893   1.960  -0.723  0.00  0.00    +0.168 HD
ENDROOT
BRANCH   1  11
ATOM      8  C   UNL     1       0.044  -2.724  -0.424  0.00  0.00    +0.121 A 
ATOM      9  C   UNL     1      -0.116  -2.010   0.754  0.00  0.00    +0.047 A 
ATOM     10  C   UNL     1      -0.119  -0.631   0.732  0.00  0.00    +0.029 A 
ATOM     11  C   UNL     1       0.040   0.047  -0.479  0.00  0.00    +0.041 A 
ATOM     12  C   UNL     1       0.196  -0.677  -1.663  0.00  0.00    +0.029 A 
ATOM     13  C   UNL     1       0.202  -2.056  -1.630  0.00  0.00    +0.047 A 
BRANCH   8  14
ATOM     14  O   UNL     1       0.045  -4.084  -0.398  0.00  0.00    -0.492 OA
BRANCH  14  16
ATOM     15  C   UNL     1       0.190  -6.270  -1.419  0.00  0.00    +0.048 C 
ATOM     16  C   UNL     1       0.214  -4.758  -1.647  0.00  0.00    +0.225 C 
ENDBRANCH  14  16
ENDBRANCH   8  14
ENDBRANCH   1  11
BRANCH   4  17
ATOM     17  C   UNL     1       2.856   5.355   0.217  0.00  0.00    -0.001 A 
ATOM     18  C   UNL     1       2.428   6.229  -0.783  0.00  0.00    +0.012 A 
ATOM     19  C   UNL     1       2.658   7.584  -0.656  0.00  0.00    +0.029 A 
ATOM     20  C   UNL     1       3.319   8.075   0.456  0.00  0.00    +0.106 A 
ATOM     21  C   UNL     1       3.751   7.213   1.448  0.00  0.00    +0.029 A 
ATOM     22  C   UNL     1       3.523   5.857   1.336  0.00  0.00    +0.012 A 
BRANCH  20  23
ATOM     23  S   UNL     1       3.615   9.805   0.607  0.00  0.00    +0.061 S 
ATOM     24  O   UNL     1       2.634  10.456  -0.189  0.00  0.00    -0.153 OA
ATOM     25  O   UNL     1       3.769  10.071   1.994  0.00  0.00    -0.153 OA
BRANCH  23  26
ATOM     26  N   UNL     1       5.080  10.116  -0.100  0.00  0.00    -0.177 NA
ATOM     27  C   UNL     1       6.381  10.098   0.583  0.00  0.00    +0.109 C 
ATOM     28  C   UNL     1       7.453  10.470  -0.464  0.00  0.00    +0.018 C 
ATOM     29  C   UNL     1       6.636  11.235  -1.538  0.00  0.00    +0.018 C 
ATOM     30  C   UNL     1       5.294  10.462  -1.517  0.00  0.00    +0.109 C 
ENDBRANCH  23  26
ENDBRANCH  20  23
ENDBRANCH   4  17
BRANCH   3  31
ATOM     31  C   UNL     1       0.222   4.369  -0.302  0.00  0.00    +0.127 C 
BRANCH  31  32
ATOM     32  C   UNL     1      -0.320   4.730   1.082  0.00  0.00    +0.003 C 
ATOM     33  C   UNL     1      -1.410   5.795   0.941  0.00  0.00    +0.009 C 
ATOM     34  C   UNL     1      -0.910   3.481   1.741  0.00  0.00    +0.009 C 
ENDBRANCH  31  32
ENDBRANCH   3  31
TORSDOF 8
