REMARK  Name = ZINC03458010
REMARK  7 active torsions:
REMARK  status: ('A' for Active; 'I' for Inactive)
REMARK    1  A    between atoms: C_1  and  C_2
REMARK    2  A    between atoms: N_10  and  C_14
REMARK    3  A    between atoms: C_14  and  C_15
REMARK    4  A    between atoms: N_17  and  C_18
REMARK    5  A    between atoms: C_21  and  N_24
REMARK    6  A    between atoms: N_24  and  C_25
REMARK    7  A    between atoms: N_24  and  C_26
REMARK                            x       y       z     vdW  Elec       q    Type
REMARK                         _______ _______ _______ _____ _____    ______ ____
ROOT
ATOM      1  C   UNL     1      10.051   7.556  -1.186  0.00  0.00    +0.007 C 
ATOM      2  C   UNL     1       8.618   7.204  -1.592  0.00  0.00    -0.014 C 
ATOM      3  C   UNL     1       8.297   5.777  -1.143  0.00  0.00    +0.006 C 
ATOM      4  C   UNL     1       6.868   5.422  -1.560  0.00  0.00    +0.035 C 
ATOM      5  C   UNL     1       5.891   6.404  -0.924  0.00  0.00    +0.113 C 
ATOM      6  C   UNL     1       6.213   7.834  -1.342  0.00  0.00    +0.035 C 
ATOM      7  C   UNL     1       7.646   8.180  -0.926  0.00  0.00    +0.006 C 
ATOM      8  C   UNL     1       4.470   6.053  -1.302  0.00  0.00    +0.247 C 
ATOM      9  O   UNL     1       3.992   6.025  -2.416  0.00  0.00    -0.273 OA
ATOM     10  N   UNL     1       3.845   5.778  -0.138  0.00  0.00    -0.215 N 
ATOM     11  C   UNL     1       4.670   5.912   0.908  0.00  0.00    +0.310 C 
ATOM     12  O   UNL     1       4.335   5.723   2.061  0.00  0.00    -0.252 OA
ATOM     13  N   UNL     1       5.912   6.277   0.539  0.00  0.00    -0.285 N 
ATOM     14  H   UNL     1       6.670   6.431   1.124  0.00  0.00    +0.151 HD
ENDROOT
BRANCH  10  15
ATOM     15  C   UNL     1       2.437   5.387  -0.032  0.00  0.00    +0.214 C 
BRANCH  15  16
ATOM     16  C   UNL     1       2.324   3.887  -0.119  0.00  0.00    +0.235 C 
ATOM     17  O   UNL     1       3.322   3.211  -0.257  0.00  0.00    -0.274 OA
ATOM     18  N   UNL     1       1.115   3.297  -0.045  0.00  0.00    -0.284 N 
ATOM     19  H   UNL     1       0.311   3.839  -0.015  0.00  0.00    +0.155 HD
BRANCH  18  20
ATOM     20  C   UNL     1       1.018   1.899  -0.010  0.00  0.00    +0.034 A 
ATOM     21  C   UNL     1       1.991   1.152   0.641  0.00  0.00    +0.025 A 
ATOM     22  C   UNL     1       1.896  -0.225   0.675  0.00  0.00    +0.025 A 
ATOM     23  C   UNL     1       0.828  -0.863   0.058  0.00  0.00    +0.029 A 
ATOM     24  C   UNL     1      -0.145  -0.116  -0.594  0.00  0.00    +0.025 A 
ATOM     25  C   UNL     1      -0.050   1.262  -0.627  0.00  0.00    +0.025 A 
BRANCH  23  26
ATOM     26  N   UNL     1       0.732  -2.258   0.091  0.00  0.00    -0.336 N 
ATOM     27  C   UNL     1       1.819  -3.054   0.668  0.00  0.00    +0.129 C 
ATOM     28  C   UNL     1      -0.456  -2.924  -0.450  0.00  0.00    +0.129 C 
ENDBRANCH  23  26
ENDBRANCH  18  20
ENDBRANCH  15  16
ENDBRANCH  10  15
TORSDOF 4
