REMARK  Name = ZINC07256874
REMARK  6 active torsions:
REMARK  status: ('A' for Active; 'I' for Inactive)
REMARK    1  A    between atoms: C_1  and  C_2
REMARK    2  A    between atoms: C_5  and  N_8
REMARK    3  A    between atoms: C_12  and  S_13
REMARK    4  A    between atoms: S_13  and  C_14
REMARK    5  A    between atoms: C_14  and  C_16
REMARK    6  A    between atoms: C_14  and  C_17
REMARK                            x       y       z     vdW  Elec       q    Type
REMARK                         _______ _______ _______ _____ _____    ______ ____
ROOT
ATOM      1  N   UNL     1       0.059  -4.173  -0.021  0.00  0.00    -0.259 N 
ATOM      2  C   UNL     1      -0.932  -4.994   0.442  0.00  0.00    +0.225 A 
ATOM      3  N   UNL     1      -0.548  -6.234   0.264  0.00  0.00    -0.112 NA
ATOM      4  N   UNL     1       0.722  -6.214  -0.328  0.00  0.00    -0.120 NA
ATOM      5  C   UNL     1       1.071  -4.962  -0.499  0.00  0.00    +0.198 A 
ATOM      6  N   UNL     1      -2.135  -4.585   1.004  0.00  0.00    -0.299 N 
ATOM      7  C   UNL     1      -2.562  -3.191   1.195  0.00  0.00    +0.108 C 
ATOM      8  C   UNL     1      -3.947  -3.225   1.873  0.00  0.00    +0.020 C 
ATOM      9  C   UNL     1      -3.974  -4.626   2.540  0.00  0.00    +0.020 C 
ATOM     10  C   UNL     1      -3.199  -5.477   1.500  0.00  0.00    +0.108 C 
ENDROOT
BRANCH   1  15
ATOM     11  C   UNL     1      -0.018   1.503   0.010  0.00  0.00    +0.044 C 
ATOM     12  C   UNL     1       0.002  -0.004   0.002  0.00  0.00    -0.050 A 
ATOM     13  C   UNL     1       0.006  -0.688  -1.200  0.00  0.00    +0.005 A 
ATOM     14  C   UNL     1       0.025  -2.069  -1.211  0.00  0.00    +0.026 A 
ATOM     15  C   UNL     1       0.041  -2.770  -0.013  0.00  0.00    +0.052 A 
ATOM     16  C   UNL     1       0.037  -2.082   1.192  0.00  0.00    +0.026 A 
ATOM     17  C   UNL     1       0.023  -0.701   1.196  0.00  0.00    +0.005 A 
ENDBRANCH   1  15
BRANCH   5  18
ATOM     18  S   UNL     1       2.579  -4.395  -1.213  0.00  0.00    -0.073 S 
BRANCH  18  19
ATOM     19  C   UNL     1       3.467  -5.920  -1.631  0.00  0.00    +0.137 C 
ATOM     20  C   UNL     1       3.813  -6.678  -0.348  0.00  0.00    +0.029 C 
BRANCH  19  21
ATOM     21  C   UNL     1       4.735  -5.577  -2.369  0.00  0.00    +0.233 C 
ATOM     22  O   UNL     1       5.253  -4.492  -2.212  0.00  0.00    -0.274 OA
ATOM     23  N   UNL     1       5.294  -6.475  -3.204  0.00  0.00    -0.239 N 
ATOM     24  C   UNL     1       6.429  -6.168  -3.863  0.00  0.00    +0.303 C 
ATOM     25  O   UNL     1       6.947  -5.080  -3.706  0.00  0.00    -0.253 OA
ATOM     26  N   UNL     1       6.988  -7.067  -4.698  0.00  0.00    -0.313 N 
ATOM     27  H   UNL     1       4.880  -7.343  -3.329  0.00  0.00    +0.159 HD
ATOM     28  H   UNL     1       6.574  -7.935  -4.823  0.00  0.00    +0.146 HD
ATOM     29  H   UNL     1       7.804  -6.846  -5.173  0.00  0.00    +0.146 HD
ENDBRANCH  19  21
ENDBRANCH  18  19
ENDBRANCH   5  18
TORSDOF 4
