REMARK  Name = ZINC06805878
REMARK  6 active torsions:
REMARK  status: ('A' for Active; 'I' for Inactive)
REMARK    1  A    between atoms: C_1  and  C_2
REMARK    2  A    between atoms: N_12  and  C_13
REMARK    3  A    between atoms: C_13  and  C_14
REMARK    4  A    between atoms: N_16  and  C_17
REMARK    5  A    between atoms: C_22  and  C_27
REMARK    6  A    between atoms: C_24  and  C_26
REMARK                            x       y       z     vdW  Elec       q    Type
REMARK                         _______ _______ _______ _____ _____    ______ ____
ROOT
ATOM      1  C   UNL     1      -3.415  -1.914  -5.389  0.00  0.00    +0.044 C 
ATOM      2  C   UNL     1      -3.067  -0.863  -6.411  0.00  0.00    -0.050 A 
ATOM      3  C   UNL     1      -3.733  -0.830  -7.624  0.00  0.00    +0.007 A 
ATOM      4  C   UNL     1      -3.421   0.121  -8.576  0.00  0.00    +0.046 A 
ATOM      5  C   UNL     1      -2.432   1.058  -8.326  0.00  0.00    +0.130 A 
ATOM      6  C   UNL     1      -1.767   1.028  -7.085  0.00  0.00    +0.042 A 
ATOM      7  C   UNL     1      -2.081   0.067  -6.138  0.00  0.00    +0.017 A 
ATOM      8  C   UNL     1      -0.742   2.066  -6.866  0.00  0.00    +0.079 A 
ATOM      9  C   UNL     1      -0.675   3.142  -7.732  0.00  0.00    +0.035 A 
ATOM     10  C   UNL     1       0.362   3.952  -7.316  0.00  0.00    +0.142 A 
ATOM     11  N   UNL     1       0.904   3.417  -6.245  0.00  0.00    -0.178 NA
ATOM     12  N   UNL     1       0.225   2.222  -5.947  0.00  0.00    -0.254 N 
ATOM     13  C   UNL     1      -1.636   3.272  -8.885  0.00  0.00    +0.268 C 
ATOM     14  O   UNL     1      -2.088   1.970  -9.267  0.00  0.00    -0.487 OA
ENDROOT
BRANCH  12  15
ATOM     15  C   UNL     1       0.515   1.316  -4.833  0.00  0.00    +0.239 C 
BRANCH  15  16
ATOM     16  C   UNL     1      -0.316   1.706  -3.638  0.00  0.00    +0.235 C 
ATOM     17  O   UNL     1      -1.075   2.649  -3.710  0.00  0.00    -0.274 OA
ATOM     18  N   UNL     1      -0.214   1.008  -2.490  0.00  0.00    -0.311 N 
ATOM     19  H   UNL     1       0.394   0.255  -2.432  0.00  0.00    +0.149 HD
BRANCH  18  20
ATOM     20  C   UNL     1      -1.022   1.388  -1.328  0.00  0.00    +0.076 C 
ATOM     21  C   UNL     1      -2.402   0.736  -1.431  0.00  0.00    +0.022 C 
ATOM     22  C   UNL     1      -3.246   1.133  -0.218  0.00  0.00    +0.002 C 
ATOM     23  C   UNL     1      -2.553   0.660   1.062  0.00  0.00    +0.003 C 
ATOM     24  C   UNL     1      -1.172   1.312   1.165  0.00  0.00    -0.009 C 
ATOM     25  C   UNL     1      -0.329   0.915  -0.048  0.00  0.00    +0.009 C 
ATOM     26  C   UNL     1       1.051   1.568   0.055  0.00  0.00    +0.009 C 
ATOM     27  C   UNL     1      -1.329   2.834   1.202  0.00  0.00    +0.008 C 
ENDBRANCH  18  20
ENDBRANCH  15  16
ENDBRANCH  12  15
TORSDOF 3
