REMARK  Name = ZINC36056662
REMARK  6 active torsions:
REMARK  status: ('A' for Active; 'I' for Inactive)
REMARK    1  A    between atoms: C_4  and  C_7
REMARK    2  A    between atoms: C_7  and  C_9
REMARK    3  A    between atoms: C_11  and  C_23
REMARK    4  A    between atoms: C_17  and  C_18
REMARK    5  A    between atoms: C_17  and  O_22
REMARK    6  A    between atoms: C_26  and  C_28
REMARK                            x       y       z     vdW  Elec       q    Type
REMARK                         _______ _______ _______ _____ _____    ______ ____
ROOT
ATOM      1  C   UNL     1       4.228  -2.020   0.188  0.00  0.00    +0.147 C 
ATOM      2  C   UNL     1       3.318  -2.672   1.235  0.00  0.00    +0.156 C 
ATOM      3  N   UNL     1       3.814  -2.343   2.573  0.00  0.00    -0.289 N 
ATOM      4  C   UNL     1       5.117  -2.114   2.797  0.00  0.00    +0.302 C 
ATOM      5  O   UNL     1       5.477  -1.856   3.929  0.00  0.00    -0.253 OA
ATOM      6  N   UNL     1       6.037  -2.159   1.822  0.00  0.00    -0.264 N 
ATOM      7  C   UNL     1       5.670  -2.476   0.437  0.00  0.00    +0.243 C 
ATOM      8  H   UNL     1       3.188  -2.290   3.312  0.00  0.00    +0.151 HD
ATOM      9  H   UNL     1       6.965  -1.976   2.037  0.00  0.00    +0.153 HD
ENDROOT
BRANCH   2  10
ATOM     10  C   UNL     1       3.325  -4.167   1.047  0.00  0.00    +0.127 A 
ATOM     11  C   UNL     1       2.581  -4.849   0.154  0.00  0.00    +0.047 A 
ATOM     12  C   UNL     1       2.894  -6.214   0.315  0.00  0.00    +0.050 A 
ATOM     13  C   UNL     1       3.820  -6.290   1.307  0.00  0.00    +0.137 A 
ATOM     14  O   UNL     1       4.076  -5.040   1.738  0.00  0.00    -0.458 OA
BRANCH  13  15
ATOM     15  C   UNL     1       4.442  -7.528   1.819  0.00  0.00    +0.037 A 
ATOM     16  C   UNL     1       3.643  -8.569   2.296  0.00  0.00    +0.033 A 
ATOM     17  C   UNL     1       4.231  -9.724   2.773  0.00  0.00    +0.042 A 
ATOM     18  C   UNL     1       5.610  -9.850   2.780  0.00  0.00    +0.021 A 
ATOM     19  C   UNL     1       6.408  -8.823   2.310  0.00  0.00    +0.022 A 
ATOM     20  C   UNL     1       5.832  -7.665   1.825  0.00  0.00    +0.052 A 
ATOM     21 CL   UNL     1       6.835  -6.379   1.228  0.00  0.00    -0.083 Cl
ATOM     22 CL   UNL     1       3.239 -11.019   3.365  0.00  0.00    -0.084 Cl
ENDBRANCH  13  15
ENDBRANCH   2  10
BRANCH   7  23
ATOM     23  C   UNL     1       6.610  -1.749  -0.527  0.00  0.00    +0.436 C 
ATOM     24  F   UNL     1       6.515  -0.369  -0.319  0.00  0.00    -0.166 F 
ATOM     25  F   UNL     1       7.925  -2.166  -0.298  0.00  0.00    -0.166 F 
ATOM     26  F   UNL     1       6.248  -2.047  -1.845  0.00  0.00    -0.166 F 
ENDBRANCH   7  23
BRANCH   1  27
ATOM     27  C   UNL     1       4.144  -0.520   0.307  0.00  0.00    +0.173 C 
ATOM     28  O   UNL     1       4.958   0.082   0.974  0.00  0.00    -0.292 OA
BRANCH  27  32
ATOM     29  C   UNL     1       1.058   1.596  -1.692  0.00  0.00    +0.000 A 
ATOM     30  C   UNL     1       1.985   2.287  -0.930  0.00  0.00    +0.001 A 
ATOM     31  C   UNL     1       2.991   1.606  -0.278  0.00  0.00    +0.011 A 
ATOM     32  C   UNL     1       3.073   0.214  -0.386  0.00  0.00    +0.018 A 
ATOM     33  C   UNL     1       2.132  -0.477  -1.157  0.00  0.00    +0.011 A 
ATOM     34  C   UNL     1       1.132   0.218  -1.804  0.00  0.00    +0.001 A 
ENDBRANCH  27  32
ENDBRANCH   1  27
BRANCH   7  35
ATOM     35  O   UNL     1       5.768  -3.886   0.229  0.00  0.00    -0.364 OA
ATOM     36  H   UNL     1       6.669  -4.230   0.286  0.00  0.00    +0.212 HD
ENDBRANCH   7  35
TORSDOF 6
