REMARK  Name = ZINC20617257
REMARK  12 active torsions:
REMARK  status: ('A' for Active; 'I' for Inactive)
REMARK    1  A    between atoms: C_1  and  C_2
REMARK    2  A    between atoms: C_2  and  O_3
REMARK    3  A    between atoms: O_3  and  C_4
REMARK    4  A    between atoms: C_4  and  C_6
REMARK    5  A    between atoms: C_9  and  N_12
REMARK    6  A    between atoms: C_14  and  C_29
REMARK    7  A    between atoms: C_17  and  C_24
REMARK    8  A    between atoms: C_20  and  C_23
REMARK    9  A    between atoms: C_24  and  O_25
REMARK   10  A    between atoms: O_25  and  C_26
REMARK   11  A    between atoms: C_26  and  C_28
REMARK   12  A    between atoms: N_31  and  C_32
REMARK                            x       y       z     vdW  Elec       q    Type
REMARK                         _______ _______ _______ _____ _____    ______ ____
ROOT
ATOM      1  N   UNL     1      -1.334   3.777  -0.233  0.00  0.00    -0.325 N 
ATOM      2  C   UNL     1      -0.223   4.293   0.253  0.00  0.00    +0.212 A 
ATOM      3  C   UNL     1       1.063   3.580   0.126  0.00  0.00    +0.098 A 
ATOM      4  C   UNL     1       2.217   4.352   0.128  0.00  0.00    +0.030 A 
ATOM      5  C   UNL     1       2.051   5.802   0.248  0.00  0.00    +0.028 A 
ATOM      6  C   UNL     1       3.105   6.689  -0.005  0.00  0.00    +0.018 A 
ATOM      7  C   UNL     1       2.872   8.042   0.128  0.00  0.00    +0.118 A 
ATOM      8  N   UNL     1       1.686   8.500   0.486  0.00  0.00    -0.256 NA
ATOM      9  C   UNL     1       0.664   7.707   0.736  0.00  0.00    +0.081 A 
ATOM     10  C   UNL     1       0.803   6.329   0.629  0.00  0.00    +0.159 A 
ATOM     11  O   UNL     1      -0.231   5.494   0.885  0.00  0.00    -0.437 OA
ATOM     12  C   UNL     1      -0.662   8.297   1.140  0.00  0.00    +0.069 C 
ATOM     13  H   UNL     1      -1.326   2.767  -0.668  0.00  0.00    +0.169 HD
ENDROOT
BRANCH   1  17
ATOM     14  C   UNL     1      -4.839   5.951  -0.122  0.00  0.00    +0.059 A 
ATOM     15  C   UNL     1      -4.552   5.034   0.896  0.00  0.00    +0.017 A 
ATOM     16  C   UNL     1      -3.393   4.315   0.860  0.00  0.00    +0.026 A 
ATOM     17  C   UNL     1      -2.491   4.495  -0.197  0.00  0.00    +0.042 A 
ATOM     18  C   UNL     1      -2.776   5.416  -1.212  0.00  0.00    +0.026 A 
ATOM     19  C   UNL     1      -3.938   6.130  -1.178  0.00  0.00    +0.017 A 
BRANCH  14  20
ATOM     20  C   UNL     1      -6.090   6.726  -0.083  0.00  0.00    +0.339 C 
ATOM     21  O   UNL     1      -6.874   6.570   0.834  0.00  0.00    -0.245 OA
BRANCH  20  22
ATOM     22  O   UNL     1      -6.367   7.609  -1.063  0.00  0.00    -0.461 OA
BRANCH  22  24
ATOM     23  C   UNL     1      -7.757   9.286  -2.152  0.00  0.00    +0.048 C 
ATOM     24  C   UNL     1      -7.618   8.339  -0.959  0.00  0.00    +0.229 C 
ENDBRANCH  22  24
ENDBRANCH  20  22
ENDBRANCH  14  20
ENDBRANCH   1  17
BRANCH   3  25
ATOM     25  C   UNL     1       1.120   2.112   0.007  0.00  0.00    +0.253 C 
ATOM     26  O   UNL     1       2.195   1.552  -0.097  0.00  0.00    -0.270 OA
ATOM     27  N   UNL     1      -0.018   1.391   0.013  0.00  0.00    -0.281 N 
ATOM     28  H   UNL     1      -0.993   1.901   0.031  0.00  0.00    +0.155 HD
BRANCH  27  29
ATOM     29  C   UNL     1       0.039  -0.006  -0.003  0.00  0.00    +0.034 A 
ATOM     30  C   UNL     1       1.039  -0.653  -0.718  0.00  0.00    +0.023 A 
ATOM     31  C   UNL     1       1.095  -2.033  -0.729  0.00  0.00    +0.002 A 
ATOM     32  C   UNL     1       0.152  -2.771  -0.036  0.00  0.00    +0.000 A 
ATOM     33  C   UNL     1      -0.847  -2.130   0.673  0.00  0.00    +0.002 A 
ATOM     34  C   UNL     1      -0.906  -0.750   0.692  0.00  0.00    +0.023 A 
ENDBRANCH  27  29
ENDBRANCH   3  25
BRANCH   6  35
ATOM     35  C   UNL     1       4.462   6.178  -0.414  0.00  0.00    +0.269 C 
BRANCH  35  36
ATOM     36  O   UNL     1       5.362   7.299  -0.612  0.00  0.00    -0.460 OA
BRANCH  36  37
ATOM     37  C   UNL     1       6.621   7.013  -0.982  0.00  0.00    +0.304 C 
ATOM     38  O   UNL     1       6.958   5.863  -1.135  0.00  0.00    -0.251 OA
ATOM     39  C   UNL     1       7.612   8.125  -1.206  0.00  0.00    +0.136 C 
ENDBRANCH  36  37
ENDBRANCH  35  36
ENDBRANCH   6  35
TORSDOF 9
