REMARK  Name = ZINC00856369
REMARK  9 active torsions:
REMARK  status: ('A' for Active; 'I' for Inactive)
REMARK    1  A    between atoms: C_1  and  C_2
REMARK    2  A    between atoms: C_5  and  S_8
REMARK    3  A    between atoms: S_8  and  N_11
REMARK    4  A    between atoms: N_11  and  C_12
REMARK    5  A    between atoms: N_11  and  C_30
REMARK    6  A    between atoms: C_12  and  C_13
REMARK    7  A    between atoms: C_13  and  C_15
REMARK    8  A    between atoms: C_13  and  O_29
REMARK    9  A    between atoms: C_15  and  N_16
REMARK                            x       y       z     vdW  Elec       q    Type
REMARK                         _______ _______ _______ _____ _____    ______ ____
ROOT
ATOM      1  C   UNL     1       2.260  -5.441   1.221  0.00  0.00    +0.142 C 
ENDROOT
BRANCH   1   2
ATOM      2  N   UNL     1       1.818  -5.064  -0.124  0.00  0.00    -0.171 NA
BRANCH   2   3
ATOM      3  C   UNL     1       2.666  -5.356  -1.282  0.00  0.00    +0.080 C 
ATOM      4  C   UNL     1       3.022  -6.844  -1.291  0.00  0.00    +0.020 C 
ATOM      5  C   UNL     1       3.908  -7.149  -2.501  0.00  0.00    +0.002 C 
ATOM      6  C   UNL     1       5.190  -6.318  -2.417  0.00  0.00    +0.000 C 
ATOM      7  C   UNL     1       4.833  -4.830  -2.409  0.00  0.00    +0.002 C 
ATOM      8  C   UNL     1       3.948  -4.525  -1.199  0.00  0.00    +0.020 C 
ENDBRANCH   2   3
BRANCH   2   9
ATOM      9  S   UNL     1       0.360  -4.308  -0.335  0.00  0.00    +0.061 S 
ATOM     10  O   UNL     1      -0.443  -4.654   0.786  0.00  0.00    -0.153 OA
ATOM     11  O   UNL     1      -0.044  -4.571  -1.672  0.00  0.00    -0.153 OA
BRANCH   9  16
ATOM     12  C   UNL     1       1.357   1.632   0.027  0.00  0.00    +0.044 C 
ATOM     13  C   UNL     1       1.109   0.148  -0.063  0.00  0.00    -0.050 A 
ATOM     14  C   UNL     1       1.187  -0.493  -1.286  0.00  0.00    +0.005 A 
ATOM     15  C   UNL     1       0.958  -1.853  -1.369  0.00  0.00    +0.029 A 
ATOM     16  C   UNL     1       0.652  -2.574  -0.229  0.00  0.00    +0.106 A 
ATOM     17  C   UNL     1       0.575  -1.933   0.993  0.00  0.00    +0.029 A 
ATOM     18  C   UNL     1       0.808  -0.573   1.077  0.00  0.00    +0.005 A 
ENDBRANCH   9  16
ENDBRANCH   2   9
ENDBRANCH   1   2
BRANCH   1  19
ATOM     19  C   UNL     1       1.833  -6.880   1.514  0.00  0.00    +0.150 C 
BRANCH  19  20
ATOM     20  O   UNL     1       0.406  -6.963   1.511  0.00  0.00    -0.389 OA
ATOM     21  H   UNL     1      -0.022  -6.399   2.169  0.00  0.00    +0.210 HD
ENDBRANCH  19  20
BRANCH  19  22
ATOM     22  C   UNL     1       2.365  -7.301   2.885  0.00  0.00    +0.155 C 
BRANCH  22  23
ATOM     23  N   UNL     1       2.059  -8.715   3.115  0.00  0.00    -0.337 N 
ATOM     24  C   UNL     1       0.901  -9.188   3.707  0.00  0.00    +0.050 A 
ATOM     25  C   UNL     1      -0.220  -8.542   4.219  0.00  0.00    +0.026 A 
ATOM     26  C   UNL     1      -1.251  -9.277   4.764  0.00  0.00    +0.002 A 
ATOM     27  C   UNL     1      -1.183 -10.661   4.809  0.00  0.00    +0.001 A 
ATOM     28  C   UNL     1      -0.081 -11.318   4.307  0.00  0.00    +0.010 A 
ATOM     29  C   UNL     1       0.968 -10.588   3.753  0.00  0.00    +0.008 A 
ATOM     30  C   UNL     1       2.256 -10.966   3.144  0.00  0.00    +0.008 A 
ATOM     31  C   UNL     1       2.883  -9.770   2.764  0.00  0.00    +0.050 A 
ATOM     32  C   UNL     1       4.131  -9.820   2.150  0.00  0.00    +0.026 A 
ATOM     33  C   UNL     1       4.737 -11.036   1.917  0.00  0.00    +0.002 A 
ATOM     34  C   UNL     1       4.114 -12.217   2.289  0.00  0.00    +0.001 A 
ATOM     35  C   UNL     1       2.882 -12.188   2.907  0.00  0.00    +0.010 A 
ENDBRANCH  22  23
ENDBRANCH  19  22
ENDBRANCH   1  19
TORSDOF 8
