REMARK  Name = ZINC41153035
REMARK  4 active torsions:
REMARK  status: ('A' for Active; 'I' for Inactive)
REMARK    1  A    between atoms: C_4  and  C_18
REMARK    2  A    between atoms: C_5  and  C_7
REMARK    3  A    between atoms: C_9  and  C_12
REMARK    4  A    between atoms: C_12  and  N_17
REMARK                            x       y       z     vdW  Elec       q    Type
REMARK                         _______ _______ _______ _____ _____    ______ ____
ROOT
ATOM      1  C   UNL     1       1.250  -2.160  -0.023  0.00  0.00    +0.259 A 
ATOM      2  N   UNL     1       0.201  -2.952  -0.023  0.00  0.00    -0.193 NA
ATOM      3  C   UNL     1       0.593  -4.228  -0.033  0.00  0.00    +0.161 A 
ATOM      4  N   UNL     1       1.895  -4.274  -0.040  0.00  0.00    -0.062 NA
ATOM      5  O   UNL     1       2.352  -2.930  -0.039  0.00  0.00    -0.333 OA
ENDROOT
BRANCH   1  10
ATOM      6  C   UNL     1      -0.017   1.375   0.010  0.00  0.00    +0.001 A 
ATOM      7  C   UNL     1       1.170   2.086   0.002  0.00  0.00    +0.001 A 
ATOM      8  C   UNL     1       2.383   1.420  -0.013  0.00  0.00    +0.013 A 
ATOM      9  C   UNL     1       2.416   0.041  -0.021  0.00  0.00    +0.067 A 
ATOM     10  C   UNL     1       1.222  -0.682  -0.014  0.00  0.00    +0.051 A 
ATOM     11  C   UNL     1       0.002  -0.004   0.002  0.00  0.00    +0.014 A 
BRANCH   9  12
ATOM     12  C   UNL     1       3.737  -0.683  -0.039  0.00  0.00    +0.418 C 
ATOM     13  F   UNL     1       4.780   0.250  -0.044  0.00  0.00    -0.166 F 
ATOM     14  F   UNL     1       3.841  -1.492   1.098  0.00  0.00    -0.166 F 
ATOM     15  F   UNL     1       3.818  -1.479  -1.187  0.00  0.00    -0.166 F 
ENDBRANCH   9  12
ENDBRANCH   1  10
BRANCH   3  16
ATOM     16  C   UNL     1      -0.324  -5.424  -0.035  0.00  0.00    -0.006 C 
ATOM     17  C   UNL     1      -1.163  -5.449   1.259  0.00  0.00    -0.005 C 
ATOM     18  C   UNL     1      -1.266  -6.953   1.616  0.00  0.00    -0.001 C 
ATOM     19  C   UNL     1       0.137  -7.490   1.238  0.00  0.00    -0.001 C 
ATOM     20  C   UNL     1       0.503  -6.722  -0.048  0.00  0.00    -0.005 C 
BRANCH  16  21
ATOM     21  N   UNL     1      -1.207  -5.378  -1.208  0.00  0.00    +0.387 N 
ATOM     22  H   UNL     1      -0.650  -5.398  -2.050  0.00  0.00    -0.089 HD
ATOM     23  H   UNL     1      -1.824  -6.176  -1.196  0.00  0.00    -0.089 HD
ATOM     24  H   UNL     1      -1.752  -4.530  -1.186  0.00  0.00    -0.089 HD
ENDBRANCH  16  21
ENDBRANCH   3  16
TORSDOF 4
