REMARK  Name = ZINC24968666
REMARK  10 active torsions:
REMARK  status: ('A' for Active; 'I' for Inactive)
REMARK    1  A    between atoms: C_1  and  C_2
REMARK    2  A    between atoms: C_2  and  N_3
REMARK    3  A    between atoms: C_13  and  S_14
REMARK    4  A    between atoms: S_14  and  C_15
REMARK    5  A    between atoms: C_15  and  C_16
REMARK    6  A    between atoms: C_17  and  C_29
REMARK    7  A    between atoms: C_18  and  C_24
REMARK    8  A    between atoms: C_29  and  O_31
REMARK    9  A    between atoms: O_31  and  C_32
REMARK   10  A    between atoms: C_32  and  C_33
REMARK                            x       y       z     vdW  Elec       q    Type
REMARK                         _______ _______ _______ _____ _____    ______ ____
ROOT
ATOM      1  C   UNL     1      -0.317   1.171   4.774  0.00  0.00    +0.034 C 
ATOM      2  C   UNL     1      -0.694   1.692   3.586  0.00  0.00    +0.079 C 
ATOM      3  C   UNL     1      -1.879   2.637   3.574  0.00  0.00    +0.150 C 
ATOM      4  N   UNL     1      -2.522   2.917   4.869  0.00  0.00    -0.288 N 
ATOM      5  C   UNL     1      -2.026   2.324   5.973  0.00  0.00    +0.304 C 
ATOM      6  O   UNL     1      -2.549   2.550   7.047  0.00  0.00    -0.252 OA
ATOM      7  N   UNL     1      -0.975   1.496   5.926  0.00  0.00    -0.272 N 
ATOM      8  H   UNL     1      -3.385   3.596   4.918  0.00  0.00    +0.151 HD
ATOM      9  H   UNL     1      -0.647   1.069   6.885  0.00  0.00    +0.156 HD
ENDROOT
BRANCH   3  10
ATOM     10  C   UNL     1      -2.922   2.062   2.651  0.00  0.00    +0.015 A 
ATOM     11  C   UNL     1      -3.203   2.395   1.368  0.00  0.00    +0.013 A 
ATOM     12  C   UNL     1      -4.217   1.725   0.708  0.00  0.00    +0.008 A 
ATOM     13  C   UNL     1      -4.900   0.755   1.365  0.00  0.00    +0.045 A 
ATOM     14  S   UNL     1      -4.105   0.762   2.963  0.00  0.00    -0.099 S 
ENDBRANCH   3  10
BRANCH   2  15
ATOM     15  C   UNL     1      -0.011   1.360   2.393  0.00  0.00    +0.339 C 
ATOM     16  O   UNL     1       0.802   2.134   1.922  0.00  0.00    -0.245 OA
BRANCH  15  17
ATOM     17  O   UNL     1      -0.261   0.187   1.776  0.00  0.00    -0.462 OA
BRANCH  17  18
ATOM     18  C   UNL     1       0.466  -0.083   0.575  0.00  0.00    +0.229 C 
ATOM     19  C   UNL     1       0.052  -1.448   0.024  0.00  0.00    +0.048 C 
ENDBRANCH  17  18
ENDBRANCH  15  17
ENDBRANCH   2  15
BRANCH   1  20
ATOM     20  C   UNL     1       0.852   0.222   4.830  0.00  0.00    +0.128 C 
BRANCH  20  21
ATOM     21  S   UNL     1       2.293   1.080   5.511  0.00  0.00    -0.082 S 
BRANCH  21  32
ATOM     22  N   UNL     1       4.743   0.029   5.905  0.00  0.00    -0.288 N 
ATOM     23  C   UNL     1       5.683  -0.946   5.892  0.00  0.00    +0.262 A 
ATOM     24  O   UNL     1       6.815  -0.737   6.287  0.00  0.00    -0.267 OA
ATOM     25  C   UNL     1       5.285  -2.263   5.378  0.00  0.00    +0.065 A 
ATOM     26  C   UNL     1       6.180  -3.331   5.319  0.00  0.00    +0.015 A 
ATOM     27  C   UNL     1       5.758  -4.537   4.832  0.00  0.00    +0.001 A 
ATOM     28  C   UNL     1       4.450  -4.708   4.396  0.00  0.00    +0.002 A 
ATOM     29  C   UNL     1       3.553  -3.679   4.443  0.00  0.00    +0.028 A 
ATOM     30  C   UNL     1       3.954  -2.434   4.936  0.00  0.00    +0.079 A 
ATOM     31  N   UNL     1       3.101  -1.392   5.001  0.00  0.00    -0.223 NA
ATOM     32  C   UNL     1       3.476  -0.225   5.464  0.00  0.00    +0.172 A 
BRANCH  22  34
ATOM     33  C   UNL     1       4.821   1.431   7.908  0.00  0.00    +0.027 C 
ATOM     34  C   UNL     1       5.087   1.363   6.403  0.00  0.00    +0.124 C 
ENDBRANCH  22  34
ENDBRANCH  21  32
ENDBRANCH  20  21
ENDBRANCH   1  20
TORSDOF 8
