REMARK  Name = ZINC36072051
REMARK  10 active torsions:
REMARK  status: ('A' for Active; 'I' for Inactive)
REMARK    1  A    between atoms: C_1  and  C_2
REMARK    2  A    between atoms: C_3  and  C_32
REMARK    3  A    between atoms: C_4  and  C_25
REMARK    4  A    between atoms: C_7  and  C_12
REMARK    5  A    between atoms: C_13  and  N_15
REMARK    6  A    between atoms: N_15  and  C_16
REMARK    7  A    between atoms: C_16  and  C_18
REMARK    8  A    between atoms: C_16  and  C_19
REMARK    9  A    between atoms: N_34  and  C_35
REMARK   10  A    between atoms: N_34  and  C_36
REMARK                            x       y       z     vdW  Elec       q    Type
REMARK                         _______ _______ _______ _____ _____    ______ ____
ROOT
ATOM      1  C   UNL     1      -0.181   1.281   0.276  0.00  0.00    +0.066 C 
ATOM      2  C   UNL     1      -0.116  -0.223   0.222  0.00  0.00    +0.051 C 
ATOM      3  C   UNL     1      -1.281  -0.957   0.124  0.00  0.00    +0.060 C 
ATOM      4  C   UNL     1      -1.164  -2.463   0.072  0.00  0.00    +0.148 C 
ATOM      5  N   UNL     1       0.206  -3.038   0.131  0.00  0.00    -0.267 N 
ATOM      6  C   UNL     1       0.549  -4.376   0.099  0.00  0.00    +0.048 C 
ATOM      7  C   UNL     1       1.862  -4.688   0.164  0.00  0.00    +0.072 C 
ATOM      8  S   UNL     1       2.619  -3.079   0.271  0.00  0.00    -0.060 S 
ATOM      9  C   UNL     1       1.230  -2.137   0.227  0.00  0.00    +0.166 C 
ATOM     10  N   UNL     1       1.059  -0.832   0.262  0.00  0.00    -0.230 NA
ENDROOT
BRANCH   4  11
ATOM     11  C   UNL     1      -1.954  -3.030   1.224  0.00  0.00    -0.022 A 
ATOM     12  C   UNL     1      -1.454  -2.949   2.510  0.00  0.00    +0.007 A 
ATOM     13  C   UNL     1      -2.177  -3.468   3.567  0.00  0.00    +0.020 A 
ATOM     14  C   UNL     1      -3.402  -4.069   3.338  0.00  0.00    +0.041 A 
ATOM     15  C   UNL     1      -3.902  -4.150   2.050  0.00  0.00    +0.020 A 
ATOM     16  C   UNL     1      -3.180  -3.625   0.995  0.00  0.00    +0.007 A 
ATOM     17 CL   UNL     1      -4.312  -4.722   4.665  0.00  0.00    -0.084 Cl
ENDBRANCH   4  11
BRANCH   3  18
ATOM     18  C   UNL     1      -2.533  -0.325   0.075  0.00  0.00    +0.246 C 
ATOM     19  O   UNL     1      -3.247  -0.308   1.064  0.00  0.00    -0.270 OA
ATOM     20  N   UNL     1      -2.946   0.265  -1.064  0.00  0.00    -0.304 N 
ATOM     21  C   UNL     1      -4.192   1.035  -1.081  0.00  0.00    +0.132 C 
ATOM     22  C   UNL     1      -2.149   0.135  -2.287  0.00  0.00    +0.132 C 
ENDBRANCH   3  18
BRANCH   6  23
ATOM     23  C   UNL     1      -0.478  -5.422  -0.003  0.00  0.00    +0.091 C 
ATOM     24  C   UNL     1      -0.128  -6.720   0.086  0.00  0.00    +0.239 C 
ATOM     25  O   UNL     1       1.180  -7.065   0.161  0.00  0.00    -0.271 OA
BRANCH  24  26
ATOM     26  N   UNL     1      -1.105  -7.701   0.100  0.00  0.00    -0.305 N 
ATOM     27  H   UNL     1      -2.037  -7.460  -0.026  0.00  0.00    +0.150 HD
BRANCH  26  28
ATOM     28  C   UNL     1      -0.733  -9.103   0.305  0.00  0.00    +0.100 C 
ATOM     29  C   UNL     1      -0.225  -9.694  -1.011  0.00  0.00    +0.033 C 
BRANCH  28  30
ATOM     30  C   UNL     1      -1.937  -9.879   0.773  0.00  0.00    -0.027 A 
ATOM     31  C   UNL     1      -3.178  -9.631   0.216  0.00  0.00    +0.005 A 
ATOM     32  C   UNL     1      -4.282 -10.343   0.645  0.00  0.00    +0.000 A 
ATOM     33  C   UNL     1      -4.146 -11.304   1.630  0.00  0.00    +0.000 A 
ATOM     34  C   UNL     1      -2.905 -11.552   2.186  0.00  0.00    +0.000 A 
ATOM     35  C   UNL     1      -1.800 -10.843   1.754  0.00  0.00    +0.005 A 
ENDBRANCH  28  30
ENDBRANCH  26  28
ENDBRANCH  24  26
ENDBRANCH   6  23
TORSDOF 6
