REMARK  Name = ZINC06077664
REMARK  14 active torsions:
REMARK  status: ('A' for Active; 'I' for Inactive)
REMARK    1  A    between atoms: C_1  and  C_2
REMARK    2  A    between atoms: C_2  and  C_3
REMARK    3  A    between atoms: C_3  and  C_4
REMARK    4  A    between atoms: C_3  and  C_5
REMARK    5  A    between atoms: C_3  and  N_6
REMARK    6  A    between atoms: C_7  and  C_11
REMARK    7  A    between atoms: C_11  and  C_13
REMARK    8  A    between atoms: C_11  and  N_74
REMARK    9  A    between atoms: C_17  and  C_26
REMARK   10  A    between atoms: C_18  and  C_25
REMARK   11  A    between atoms: C_27  and  C_28
REMARK   12  A    between atoms: C_27  and  N_74
REMARK   13  A    between atoms: C_34  and  C_35
REMARK   14  A    between atoms: C_34  and  N_74
REMARK                            x       y       z     vdW  Elec       q    Type
REMARK                         _______ _______ _______ _____ _____    ______ ____
ROOT
ATOM      1  C   UNL     1       5.371   0.905   0.536  0.00  0.00    +0.040 C 
ENDROOT
BRANCH   1   2
ATOM      2  C   UNL     1       6.466   1.668   1.235  0.00  0.00    +0.011 A 
ATOM      3  C   UNL     1       7.359   2.386   0.509  0.00  0.00    +0.017 A 
ATOM      4  C   UNL     1       8.411   3.117   1.219  0.00  0.00    -0.001 A 
ATOM      5  C   UNL     1       9.360   3.874   0.524  0.00  0.00    +0.013 A 
ATOM      6  C   UNL     1      10.329   4.544   1.216  0.00  0.00    -0.047 A 
ATOM      7  C   UNL     1      10.380   4.481   2.602  0.00  0.00    -0.046 A 
ATOM      8  C   UNL     1       9.455   3.741   3.307  0.00  0.00    +0.030 A 
ATOM      9  C   UNL     1       8.459   3.050   2.624  0.00  0.00    +0.049 A 
ATOM     10  N   UNL     1       7.521   2.301   3.303  0.00  0.00    -0.322 N 
ATOM     11  H   UNL     1       7.560   2.251   4.301  0.00  0.00    +0.169 HD
ATOM     12  C   UNL     1       6.556   1.638   2.643  0.00  0.00    +0.251 A 
ATOM     13  O   UNL     1       5.740   0.991   3.276  0.00  0.00    -0.268 OA
ATOM     14  C   UNL     1      11.458   5.228   3.344  0.00  0.00    +0.044 C 
ATOM     15  C   UNL     1      11.352   5.360   0.468  0.00  0.00    +0.044 C 
ENDBRANCH   1   2
BRANCH   1  17
ATOM     16  N   UNL     1       6.054  -1.503   0.043  0.00  0.00    -0.225 N 
ATOM     17  C   UNL     1       5.510  -0.564   0.840  0.00  0.00    +0.143 A 
ATOM     18  N   UNL     1       5.128  -1.176   1.935  0.00  0.00    -0.115 NA
ATOM     19  N   UNL     1       5.416  -2.426   1.813  0.00  0.00    -0.023 NA
ATOM     20  N   UNL     1       5.978  -2.626   0.673  0.00  0.00    -0.043 NA
BRANCH  16  21
ATOM     21  C   UNL     1       6.625  -1.288  -1.289  0.00  0.00    +0.061 C 
ATOM     22  C   UNL     1       5.529  -0.810  -2.243  0.00  0.00    +0.036 C 
ATOM     23  C   UNL     1       7.727  -0.230  -1.207  0.00  0.00    +0.036 C 
BRANCH  21  25
ATOM     24  C   UNL     1       7.812  -2.377  -3.199  0.00  0.00    +0.006 C 
ATOM     25  C   UNL     1       7.216  -2.601  -1.808  0.00  0.00    +0.026 C 
ENDBRANCH  21  25
ENDBRANCH  16  21
ENDBRANCH   1  17
BRANCH   1  26
ATOM     26  N   UNL     1       4.061   1.374   1.034  0.00  0.00    +0.395 N 
ATOM     27  H   UNL     1       3.954   1.085   2.014  0.00  0.00    -0.079 HD
BRANCH  26  28
ATOM     28  C   UNL     1       3.990   2.848   0.958  0.00  0.00    -0.041 C 
BRANCH  28  29
ATOM     29  C   UNL     1       2.840   3.322   1.808  0.00  0.00    -0.064 A 
ATOM     30  C   UNL     1       1.618   3.602   1.225  0.00  0.00    +0.002 A 
ATOM     31  C   UNL     1       0.561   4.031   2.006  0.00  0.00    +0.000 A 
ATOM     32  C   UNL     1       0.729   4.191   3.369  0.00  0.00    +0.000 A 
ATOM     33  C   UNL     1       1.953   3.916   3.951  0.00  0.00    +0.000 A 
ATOM     34  C   UNL     1       3.008   3.481   3.171  0.00  0.00    +0.002 A 
ENDBRANCH  28  29
ENDBRANCH  26  28
BRANCH  26  35
ATOM     35  C   UNL     1       2.972   0.773   0.236  0.00  0.00    -0.040 C 
BRANCH  35  36
ATOM     36  C   UNL     1       2.724  -0.627   0.735  0.00  0.00    -0.046 A 
ATOM     37  C   UNL     1       1.942  -0.843   1.860  0.00  0.00    +0.005 A 
ATOM     38  C   UNL     1       1.745  -2.147   2.286  0.00  0.00    +0.020 A 
ATOM     39  C   UNL     1       2.321  -3.183   1.574  0.00  0.00    +0.111 A 
ATOM     40  N   UNL     1       3.059  -2.940   0.509  0.00  0.00    -0.263 NA
ATOM     41  C   UNL     1       3.272  -1.712   0.078  0.00  0.00    +0.112 A 
ENDBRANCH  35  36
ENDBRANCH  26  35
ENDBRANCH   1  26
TORSDOF 9
