REMARK  Name = ZINC63375827
REMARK  9 active torsions:
REMARK  status: ('A' for Active; 'I' for Inactive)
REMARK    1  A    between atoms: C_1  and  C_2
REMARK    2  A    between atoms: C_6  and  C_11
REMARK    3  A    between atoms: C_12  and  O_14
REMARK    4  A    between atoms: O_14  and  C_15
REMARK    5  A    between atoms: C_15  and  C_17
REMARK    6  A    between atoms: C_15  and  C_18
REMARK    7  A    between atoms: N_20  and  C_21
REMARK    8  A    between atoms: C_21  and  C_22
REMARK    9  A    between atoms: C_22  and  C_23
REMARK                            x       y       z     vdW  Elec       q    Type
REMARK                         _______ _______ _______ _____ _____    ______ ____
ROOT
ATOM      1  C   UNL     1       0.214  -2.057   3.455  0.00  0.00    +0.255 C 
ATOM      2  C   UNL     1      -1.231  -1.923   3.940  0.00  0.00    +0.062 C 
ENDROOT
BRANCH   1   3
ATOM      3  C   UNL     1       1.045  -2.715   4.527  0.00  0.00    +0.254 C 
ATOM      4  O   UNL     1       1.609  -3.764   4.299  0.00  0.00    -0.272 OA
ATOM      5  N   UNL     1       1.160  -2.137   5.740  0.00  0.00    -0.312 N 
ATOM      6  H   UNL     1       0.709  -1.298   5.922  0.00  0.00    +0.149 HD
BRANCH   5   7
ATOM      7  C   UNL     1       1.968  -2.776   6.782  0.00  0.00    +0.108 C 
BRANCH   7   8
ATOM      8  C   UNL     1       1.932  -1.922   8.050  0.00  0.00    +0.052 C 
BRANCH   8   9
ATOM      9  C   UNL     1       2.763  -2.579   9.122  0.00  0.00    -0.040 C 
ATOM     10  C   UNL     1       4.056  -2.319   9.423  0.00  0.00    -0.001 A 
ATOM     11  C   UNL     1       5.038  -1.383   8.863  0.00  0.00    +0.010 A 
ATOM     12  C   UNL     1       6.285  -1.351   9.386  0.00  0.00    +0.001 A 
ATOM     13  C   UNL     1       6.662  -2.187  10.445  0.00  0.00    +0.002 A 
ATOM     14  C   UNL     1       5.816  -3.073  11.012  0.00  0.00    +0.026 A 
ATOM     15  C   UNL     1       4.479  -3.191  10.542  0.00  0.00    +0.043 A 
ATOM     16  N   UNL     1       3.486  -3.960  10.918  0.00  0.00    -0.380 N 
ATOM     17  C   UNL     1       2.318  -3.658  10.083  0.00  0.00    +0.144 C 
ATOM     18  H   UNL     1       3.517  -4.616  11.632  0.00  0.00    +0.160 HD
ENDBRANCH   8   9
ENDBRANCH   7   8
ENDBRANCH   5   7
ENDBRANCH   1   3
BRANCH   1  19
ATOM     19  O   UNL     1       0.247  -2.856   2.271  0.00  0.00    -0.479 OA
BRANCH  19  31
ATOM     20  C   UNL     1      -0.943   1.224  -0.122  0.00  0.00    +0.044 C 
ATOM     21  C   UNL     1      -0.555  -0.232  -0.124  0.00  0.00    -0.043 A 
ATOM     22  C   UNL     1      -0.429  -0.903  -1.324  0.00  0.00    +0.050 A 
ATOM     23  C   UNL     1      -0.073  -2.244  -1.337  0.00  0.00    +0.143 A 
ATOM     24  C   UNL     1       0.158  -2.911  -0.121  0.00  0.00    +0.062 A 
ATOM     25  C   UNL     1       0.533  -4.326  -0.147  0.00  0.00    -0.030 A 
ATOM     26  C   UNL     1       0.644  -4.939  -1.354  0.00  0.00    +0.096 A 
ATOM     27  C   UNL     1       0.398  -4.209  -2.535  0.00  0.00    +0.337 A 
ATOM     28  O   UNL     1       0.500  -4.770  -3.611  0.00  0.00    -0.245 OA
ATOM     29  O   UNL     1       0.054  -2.912  -2.504  0.00  0.00    -0.422 OA
ATOM     30  C   UNL     1       0.791  -5.081   1.132  0.00  0.00    +0.045 C 
ATOM     31  C   UNL     1       0.026  -2.219   1.093  0.00  0.00    +0.133 A 
ATOM     32  C   UNL     1      -0.324  -0.880   1.078  0.00  0.00    +0.050 A 
ENDBRANCH  19  31
ENDBRANCH   1  19
TORSDOF 6
