REMARK  Name = ZINC42859759
REMARK  4 active torsions:
REMARK  status: ('A' for Active; 'I' for Inactive)
REMARK    1  A    between atoms: C_1  and  C_2
REMARK    2  A    between atoms: C_8  and  C_10
REMARK    3  A    between atoms: C_10  and  N_11
REMARK    4  A    between atoms: N_11  and  C_12
REMARK                            x       y       z     vdW  Elec       q    Type
REMARK                         _______ _______ _______ _____ _____    ______ ____
ROOT
ATOM      1  C   UNL     1       4.229   0.141   2.467  0.00  0.00    +0.049 C 
ATOM      2  C   UNL     1       4.969  -0.308   3.706  0.00  0.00    -0.028 A 
ATOM      3  C   UNL     1       5.297  -1.551   4.202  0.00  0.00    +0.042 A 
ATOM      4  C   UNL     1       5.997  -1.657   5.393  0.00  0.00    +0.125 A 
ATOM      5  C   UNL     1       6.364  -0.512   6.080  0.00  0.00    +0.055 A 
ATOM      6  C   UNL     1       6.037   0.734   5.583  0.00  0.00    +0.042 A 
ATOM      7  C   UNL     1       5.332   0.847   4.386  0.00  0.00    +0.050 A 
ATOM      8  N   UNL     1       4.890   1.975   3.690  0.00  0.00    -0.285 N 
ATOM      9  C   UNL     1       4.238   1.652   2.557  0.00  0.00    +0.208 C 
ATOM     10  O   UNL     1       3.750   2.424   1.758  0.00  0.00    -0.277 OA
ATOM     11 BR   UNL     1       6.544   2.290   6.530  0.00  0.00    -0.048 Br
ATOM     12  F   UNL     1       6.320  -2.874   5.883  0.00  0.00    -0.205 F 
ATOM     13  H   UNL     1       5.036   2.886   3.988  0.00  0.00    +0.155 HD
ENDROOT
BRANCH   1  14
ATOM     14  N   UNL     1       2.851  -0.368   2.478  0.00  0.00    +0.390 N 
ATOM     15  H   UNL     1       2.354   0.024   3.264  0.00  0.00    -0.084 HD
ATOM     16  H   UNL     1       2.865  -1.374   2.555  0.00  0.00    -0.084 HD
BRANCH  14  17
ATOM     17  C   UNL     1       2.178   0.019   1.231  0.00  0.00    -0.077 C 
BRANCH  17  24
ATOM     18  C   UNL     1      -0.019   1.526   0.010  0.00  0.00    +0.008 C 
ATOM     19  C   UNL     1       0.002  -0.004   0.002  0.00  0.00    -0.013 C 
ATOM     20  C   UNL     1      -1.433  -0.534   0.013  0.00  0.00    +0.003 C 
ATOM     21  C   UNL     1      -1.413  -2.063   0.004  0.00  0.00    +0.000 C 
ATOM     22  C   UNL     1      -0.673  -2.570   1.244  0.00  0.00    +0.000 C 
ATOM     23  C   UNL     1       0.763  -2.041   1.233  0.00  0.00    +0.002 C 
ATOM     24  C   UNL     1       0.742  -0.511   1.242  0.00  0.00    -0.025 C 
ENDBRANCH  17  24
ENDBRANCH  14  17
ENDBRANCH   1  14
TORSDOF 3
