REMARK  Name = ZINC14815508
REMARK  4 active torsions:
REMARK  status: ('A' for Active; 'I' for Inactive)
REMARK    1  A    between atoms: C_6  and  C_7
REMARK    2  A    between atoms: N_14  and  C_17
REMARK    3  A    between atoms: C_17  and  C_18
REMARK    4  A    between atoms: C_21  and  C_23
REMARK                            x       y       z     vdW  Elec       q    Type
REMARK                         _______ _______ _______ _____ _____    ______ ____
ROOT
ATOM      1  C   UNL     1       2.583   1.473  -0.014  0.00  0.00    +0.004 A 
ATOM      2  C   UNL     1       3.594   2.376  -0.018  0.00  0.00    +0.056 A 
ATOM      3  S   UNL     1       2.745   3.943  -0.003  0.00  0.00    -0.076 S 
ATOM      4  C   UNL     1       1.071   3.356   0.009  0.00  0.00    +0.116 A 
ATOM      5  C   UNL     1       1.209   1.958   0.001  0.00  0.00    +0.080 A 
ATOM      6  C   UNL     1      -0.015   1.215   0.009  0.00  0.00    +0.263 A 
ATOM      7  O   UNL     1       0.002  -0.004   0.002  0.00  0.00    -0.267 OA
ATOM      8  N   UNL     1      -1.183   1.882   0.018  0.00  0.00    -0.293 N 
ATOM      9  C   UNL     1      -1.220   3.239   0.029  0.00  0.00    +0.203 A 
ATOM     10  N   UNL     1      -0.121   3.945   0.023  0.00  0.00    -0.230 NA
ENDROOT
BRANCH   1  16
ATOM     11  C   UNL     1       2.258  -0.822   0.904  0.00  0.00    +0.011 A 
ATOM     12  C   UNL     1       2.525  -2.176   0.887  0.00  0.00    +0.039 A 
ATOM     13  C   UNL     1       3.408  -2.699  -0.043  0.00  0.00    +0.123 A 
ATOM     14  C   UNL     1       4.023  -1.867  -0.965  0.00  0.00    +0.039 A 
ATOM     15  C   UNL     1       3.759  -0.512  -0.959  0.00  0.00    +0.011 A 
ATOM     16  C   UNL     1       2.871   0.018  -0.024  0.00  0.00    -0.016 A 
ATOM     17  F   UNL     1       3.669  -4.024  -0.053  0.00  0.00    -0.205 F 
ENDBRANCH   1  16
BRANCH   8  18
ATOM     18  C   UNL     1      -2.440   1.129   0.020  0.00  0.00    +0.182 C 
BRANCH  18  19
ATOM     19  C   UNL     1      -2.864   0.864   1.442  0.00  0.00    +0.069 A 
ATOM     20  C   UNL     1      -3.737   1.703   2.059  0.00  0.00    +0.072 A 
ATOM     21  S   UNL     1      -3.869   0.920   3.662  0.00  0.00    -0.075 S 
ATOM     22  C   UNL     1      -2.743  -0.431   3.338  0.00  0.00    +0.109 A 
ATOM     23  N   UNL     1      -2.387  -0.175   2.087  0.00  0.00    -0.242 NA
BRANCH  22  24
ATOM     24  C   UNL     1      -2.322  -1.535   4.226  0.00  0.00    +0.007 A 
ATOM     25  C   UNL     1      -1.425  -2.501   3.766  0.00  0.00    +0.013 A 
ATOM     26  C   UNL     1      -1.033  -3.526   4.600  0.00  0.00    +0.039 A 
ATOM     27  C   UNL     1      -1.535  -3.605   5.889  0.00  0.00    +0.123 A 
ATOM     28  C   UNL     1      -2.429  -2.652   6.349  0.00  0.00    +0.039 A 
ATOM     29  C   UNL     1      -2.825  -1.619   5.525  0.00  0.00    +0.013 A 
ATOM     30  F   UNL     1      -1.151  -4.615   6.701  0.00  0.00    -0.205 F 
ENDBRANCH  22  24
ENDBRANCH  18  19
ENDBRANCH   8  18
TORSDOF 4
