REMARK  Name = ZINC35259824
REMARK  4 active torsions:
REMARK  status: ('A' for Active; 'I' for Inactive)
REMARK    1  A    between atoms: C_1  and  C_2
REMARK    2  A    between atoms: C_2  and  C_3
REMARK    3  A    between atoms: C_2  and  N_4
REMARK    4  A    between atoms: N_7  and  C_8
REMARK                            x       y       z     vdW  Elec       q    Type
REMARK                         _______ _______ _______ _____ _____    ______ ____
ROOT
ATOM      1  C   UNL     1      -3.121  -3.511  -0.921  0.00  0.00    +0.038 A 
ATOM      2  C   UNL     1      -4.402  -4.029  -0.945  0.00  0.00    +0.033 A 
ATOM      3  C   UNL     1      -4.610  -5.339  -1.391  0.00  0.00    +0.003 A 
ATOM      4  C   UNL     1      -5.953  -5.919  -1.430  0.00  0.00    +0.015 A 
ATOM      5  C   UNL     1      -6.097  -7.193  -1.872  0.00  0.00    +0.071 A 
ATOM      6  C   UNL     1      -4.968  -7.934  -2.283  0.00  0.00    +0.249 A 
ATOM      7  O   UNL     1      -5.120  -9.078  -2.677  0.00  0.00    -0.268 OA
ATOM      8  N   UNL     1      -3.731  -7.410  -2.252  0.00  0.00    -0.320 N 
ATOM      9  H   UNL     1      -2.977  -7.947  -2.542  0.00  0.00    +0.169 HD
ATOM     10  C   UNL     1      -3.517  -6.119  -1.812  0.00  0.00    +0.085 A 
ATOM     11  C   UNL     1      -2.233  -5.579  -1.780  0.00  0.00    +0.149 A 
ATOM     12  C   UNL     1      -2.041  -4.285  -1.344  0.00  0.00    +0.063 A 
ATOM     13  F   UNL     1      -1.177  -6.320  -2.182  0.00  0.00    -0.203 F 
ENDROOT
BRANCH   1  17
ATOM     14  N   UNL     1      -3.392  -0.472   1.017  0.00  0.00    -0.297 N 
ATOM     15  C   UNL     1      -3.658  -1.699   0.525  0.00  0.00    +0.304 C 
ATOM     16  O   UNL     1      -4.575  -2.352   0.984  0.00  0.00    -0.253 OA
ATOM     17  N   UNL     1      -2.908  -2.201  -0.475  0.00  0.00    -0.269 N 
ATOM     18  H   UNL     1      -2.660   0.049   0.651  0.00  0.00    +0.151 HD
ATOM     19  H   UNL     1      -2.220  -1.655  -0.887  0.00  0.00    +0.156 HD
BRANCH  14  21
ATOM     20  C   UNL     1      -3.394   1.110   2.882  0.00  0.00    +0.027 C 
ATOM     21  C   UNL     1      -4.208   0.073   2.105  0.00  0.00    +0.068 C 
ATOM     22  C   UNL     1      -5.456   0.739   1.522  0.00  0.00    +0.027 C 
ENDBRANCH  14  21
ENDBRANCH   1  17
TORSDOF 2
