REMARK  Name = ZINC49132212
REMARK  7 active torsions:
REMARK  status: ('A' for Active; 'I' for Inactive)
REMARK    1  A    between atoms: C_1  and  C_2
REMARK    2  A    between atoms: C_5  and  N_27
REMARK    3  A    between atoms: C_7  and  N_8
REMARK    4  A    between atoms: C_9  and  C_11
REMARK    5  A    between atoms: N_13  and  C_14
REMARK    6  A    between atoms: C_14  and  C_16
REMARK    7  A    between atoms: C_14  and  C_17
REMARK                            x       y       z     vdW  Elec       q    Type
REMARK                         _______ _______ _______ _____ _____    ______ ____
ROOT
ATOM      1  C   UNL     1      -0.167   0.044   4.869  0.00  0.00    +0.300 C 
ATOM      2  O   UNL     1      -0.183   1.257   4.874  0.00  0.00    -0.265 OA
ATOM      3  N   UNL     1      -0.248  -0.636   6.030  0.00  0.00    -0.301 N 
ATOM      4  H   UNL     1      -0.235  -1.606   6.026  0.00  0.00    +0.150 HD
ENDROOT
BRANCH   1   6
ATOM      5  N   UNL     1       0.025  -0.016   2.416  0.00  0.00    -0.277 N 
ATOM      6  C   UNL     1      -0.056  -0.696   3.577  0.00  0.00    +0.303 C 
ATOM      7  O   UNL     1      -0.040  -1.910   3.572  0.00  0.00    -0.265 OA
ATOM      8  H   UNL     1       0.078   0.952   2.424  0.00  0.00    +0.155 HD
BRANCH   5  15
ATOM      9  C   UNL     1      -1.268   1.182   0.182  0.00  0.00    +0.045 C 
ATOM     10  C   UNL     1      -0.586  -0.159   0.085  0.00  0.00    -0.029 A 
ATOM     11  C   UNL     1      -0.571  -0.841  -1.116  0.00  0.00    +0.007 A 
ATOM     12  C   UNL     1       0.055  -2.071  -1.206  0.00  0.00    +0.033 A 
ATOM     13  C   UNL     1       0.667  -2.622  -0.095  0.00  0.00    +0.128 A 
ATOM     14  C   UNL     1       0.655  -1.946   1.108  0.00  0.00    +0.056 A 
ATOM     15  C   UNL     1       0.033  -0.706   1.201  0.00  0.00    +0.039 A 
BRANCH  13  16
ATOM     16  N   UNL     1       1.335  -3.939  -0.197  0.00  0.00    +0.056 N 
ATOM     17  O   UNL     1       1.345  -4.532  -1.250  0.00  0.00    -0.126 OA
ATOM     18  O   UNL     1       1.870  -4.422   0.774  0.00  0.00    -0.126 OA
ENDBRANCH  13  16
ENDBRANCH   5  15
ENDBRANCH   1   6
BRANCH   3  19
ATOM     19  C   UNL     1      -0.356   0.090   7.298  0.00  0.00    +0.101 C 
ATOM     20  C   UNL     1      -1.823   0.433   7.566  0.00  0.00    +0.033 C 
BRANCH  19  21
ATOM     21  C   UNL     1       0.170  -0.772   8.417  0.00  0.00    -0.027 A 
ATOM     22  C   UNL     1      -0.101  -2.128   8.435  0.00  0.00    +0.006 A 
ATOM     23  C   UNL     1       0.382  -2.909   9.463  0.00  0.00    +0.004 A 
ATOM     24  C   UNL     1       1.140  -2.346  10.482  0.00  0.00    -0.044 A 
ATOM     25  C   UNL     1       1.415  -0.997  10.461  0.00  0.00    -0.044 A 
ATOM     26  C   UNL     1       0.929  -0.212   9.423  0.00  0.00    +0.009 A 
ATOM     27  C   UNL     1       2.244  -0.322  11.523  0.00  0.00    +0.035 C 
ATOM     28  C   UNL     1       2.333  -1.197  12.772  0.00  0.00    +0.005 C 
ATOM     29  C   UNL     1       2.775  -2.602  12.348  0.00  0.00    +0.005 C 
ATOM     30  C   UNL     1       1.629  -3.256  11.578  0.00  0.00    +0.035 C 
ENDBRANCH  19  21
ENDBRANCH   3  19
TORSDOF 5
