REMARK  Name = ZINC06740117
REMARK  10 active torsions:
REMARK  status: ('A' for Active; 'I' for Inactive)
REMARK    1  A    between atoms: C_1  and  C_2
REMARK    2  A    between atoms: C_2  and  C_3
REMARK    3  A    between atoms: C_12  and  C_13
REMARK    4  A    between atoms: C_13  and  C_15
REMARK    5  A    between atoms: C_13  and  C_24
REMARK    6  A    between atoms: C_15  and  C_16
REMARK    7  A    between atoms: N_18  and  C_19
REMARK    8  A    between atoms: C_19  and  C_21
REMARK    9  A    between atoms: C_19  and  C_22
REMARK   10  A    between atoms: C_22  and  C_23
REMARK                            x       y       z     vdW  Elec       q    Type
REMARK                         _______ _______ _______ _____ _____    ______ ____
ROOT
ATOM      1  C   UNL     1      -5.895   0.652  -1.885  0.00  0.00    +0.060 C 
ENDROOT
BRANCH   1  11
ATOM      2  C   UNL     1      -9.799   2.661  -4.309  0.00  0.00    -0.024 A 
ATOM      3  C   UNL     1     -10.741   2.509  -3.314  0.00  0.00    +0.005 A 
ATOM      4  C   UNL     1     -10.400   1.930  -2.100  0.00  0.00    +0.001 A 
ATOM      5  C   UNL     1      -9.124   1.499  -1.870  0.00  0.00    +0.010 A 
ATOM      6  C   UNL     1      -8.155   1.639  -2.865  0.00  0.00    +0.004 A 
ATOM      7  C   UNL     1      -8.494   2.231  -4.096  0.00  0.00    +0.050 A 
ATOM      8  N   UNL     1      -7.355   2.241  -4.869  0.00  0.00    -0.360 N 
ATOM      9  H   UNL     1      -7.297   2.589  -5.773  0.00  0.00    +0.165 HD
ATOM     10  C   UNL     1      -6.316   1.685  -4.173  0.00  0.00    +0.088 A 
ATOM     11  C   UNL     1      -6.732   1.305  -2.955  0.00  0.00    -0.015 A 
BRANCH   2  13
ATOM     12  C   UNL     1     -10.537   2.196  -6.630  0.00  0.00    +0.009 C 
ATOM     13  C   UNL     1     -10.183   3.292  -5.623  0.00  0.00    +0.034 C 
ENDBRANCH   2  13
ENDBRANCH   1  11
BRANCH   1  14
ATOM     14  C   UNL     1      -5.343  -0.651  -2.404  0.00  0.00    -0.036 A 
ATOM     15  C   UNL     1      -4.531  -0.659  -3.523  0.00  0.00    +0.008 A 
ATOM     16  C   UNL     1      -4.019  -1.851  -4.000  0.00  0.00    +0.050 A 
ATOM     17  C   UNL     1      -4.327  -3.042  -3.364  0.00  0.00    +0.166 A 
ATOM     18  C   UNL     1      -5.149  -3.035  -2.240  0.00  0.00    +0.167 A 
ATOM     19  C   UNL     1      -5.655  -1.836  -1.764  0.00  0.00    +0.053 A 
ATOM     20  O   UNL     1      -5.301  -4.318  -1.801  0.00  0.00    -0.453 OA
ATOM     21  C   UNL     1      -4.237  -5.065  -2.421  0.00  0.00    +0.466 C 
ATOM     22  O   UNL     1      -3.964  -4.331  -3.629  0.00  0.00    -0.453 OA
ENDBRANCH   1  14
BRANCH   1  23
ATOM     23  C   UNL     1      -4.739   1.580  -1.505  0.00  0.00    +0.108 C 
BRANCH  23  24
ATOM     24  C   UNL     1      -3.975   0.983  -0.351  0.00  0.00    +0.214 C 
ATOM     25  O   UNL     1      -4.320  -0.080   0.120  0.00  0.00    -0.276 OA
ATOM     26  N   UNL     1      -2.907   1.630   0.156  0.00  0.00    -0.313 N 
ATOM     27  H   UNL     1      -2.631   2.480  -0.221  0.00  0.00    +0.149 HD
BRANCH  26  28
ATOM     28  C   UNL     1      -2.164   1.050   1.278  0.00  0.00    +0.070 C 
ATOM     29  C   UNL     1      -2.841   1.438   2.594  0.00  0.00    +0.028 C 
BRANCH  28  30
ATOM     30  C   UNL     1      -0.729   1.579   1.267  0.00  0.00    +0.018 C 
ATOM     31  C   UNL     1      -0.013   1.086   0.008  0.00  0.00    +0.005 C 
ENDBRANCH  28  30
ENDBRANCH  26  28
ENDBRANCH  23  24
ENDBRANCH   1  23
TORSDOF 7
