REMARK  Name = ZINC36372223
REMARK  13 active torsions:
REMARK  status: ('A' for Active; 'I' for Inactive)
REMARK    1  A    between atoms: C_1  and  C_2
REMARK    2  A    between atoms: C_2  and  O_3
REMARK    3  A    between atoms: O_3  and  C_4
REMARK    4  A    between atoms: C_4  and  C_6
REMARK    5  A    between atoms: C_10  and  O_42
REMARK    6  A    between atoms: C_11  and  C_41
REMARK    7  A    between atoms: C_13  and  O_40
REMARK    8  A    between atoms: C_21  and  O_39
REMARK    9  A    between atoms: C_25  and  C_37
REMARK   10  A    between atoms: C_25  and  C_38
REMARK   11  A    between atoms: C_30  and  O_33
REMARK   12  A    between atoms: O_33  and  C_34
REMARK   13  A    between atoms: C_34  and  C_36
REMARK                            x       y       z     vdW  Elec       q    Type
REMARK                         _______ _______ _______ _____ _____    ______ ____
ROOT
ATOM      1  C   UNL     1      -2.477  -2.584   0.485  0.00  0.00    +0.107 C 
ATOM      2  C   UNL     1      -2.979  -1.569  -0.575  0.00  0.00    +0.018 C 
ATOM      3  C   UNL     1      -3.813  -2.388  -1.604  0.00  0.00    +0.036 C 
ATOM      4  C   UNL     1      -4.155  -3.647  -0.787  0.00  0.00    +0.075 C 
ATOM      5  C   UNL     1      -2.782  -3.962  -0.153  0.00  0.00    +0.012 C 
ATOM      6  C   UNL     1      -2.889  -5.099   0.828  0.00  0.00    +0.042 C 
ATOM      7  C   UNL     1      -3.829  -6.206   0.309  0.00  0.00    +0.119 C 
ATOM      8  C   UNL     1      -4.014  -6.112  -1.194  0.00  0.00    +0.037 C 
ATOM      9  C   UNL     1      -4.739  -4.810  -1.534  0.00  0.00    +0.028 C 
ATOM     10  C   UNL     1      -4.803  -4.621  -3.040  0.00  0.00    +0.009 C 
ATOM     11  C   UNL     1      -5.528  -5.807  -3.681  0.00  0.00    +0.036 C 
ATOM     12  C   UNL     1      -5.915  -6.860  -2.647  0.00  0.00    +0.080 C 
ATOM     13  C   UNL     1      -4.702  -7.309  -1.840  0.00  0.00    +0.055 C 
ATOM     14  C   UNL     1      -3.679  -7.957  -2.801  0.00  0.00    +0.176 C 
ATOM     15  O   UNL     1      -2.529  -8.299  -2.031  0.00  0.00    -0.348 OA
ATOM     16  C   UNL     1      -2.733  -9.174  -0.928  0.00  0.00    +0.165 C 
ATOM     17  O   UNL     1      -3.908  -8.897  -0.193  0.00  0.00    -0.345 OA
ATOM     18  C   UNL     1      -5.074  -8.389  -0.830  0.00  0.00    +0.136 C 
ATOM     19  C   UNL     1      -5.795  -9.554  -1.517  0.00  0.00    +0.077 C 
ATOM     20  C   UNL     1      -6.999  -9.063  -2.320  0.00  0.00    +0.182 C 
ATOM     21  C   UNL     1      -6.513  -8.073  -3.382  0.00  0.00    +0.080 C 
ATOM     22  C   UNL     1      -2.732 -10.629  -1.420  0.00  0.00    +0.074 C 
ATOM     23  C   UNL     1      -1.520  -9.024   0.017  0.00  0.00    +0.074 C 
ATOM     24  C   UNL     1      -1.677  -4.200  -1.179  0.00  0.00    +0.015 C 
ENDROOT
BRANCH   1  25
ATOM     25  C   UNL     1      -0.994  -2.442   0.689  0.00  0.00    +0.311 C 
ATOM     26  O   UNL     1      -0.335  -3.400   1.015  0.00  0.00    -0.251 OA
BRANCH  25  27
ATOM     27  O   UNL     1      -0.403  -1.250   0.510  0.00  0.00    -0.465 OA
BRANCH  27  29
ATOM     28  C   UNL     1       1.500   0.239   0.471  0.00  0.00    +0.048 C 
ATOM     29  C   UNL     1       1.009  -1.188   0.721  0.00  0.00    +0.229 C 
ENDBRANCH  27  29
ENDBRANCH  25  27
ENDBRANCH   1  25
BRANCH  12  30
ATOM     30  O   UNL     1      -6.942  -6.365  -1.787  0.00  0.00    -0.388 OA
ATOM     31  H   UNL     1      -7.756  -6.119  -2.248  0.00  0.00    +0.210 HD
ENDBRANCH  12  30
BRANCH   7  32
ATOM     32  O   UNL     1      -5.098  -6.067   0.964  0.00  0.00    -0.391 OA
ATOM     33  H   UNL     1      -5.054  -6.144   1.927  0.00  0.00    +0.210 HD
ENDBRANCH   7  32
BRANCH   4  34
ATOM     34  O   UNL     1      -5.077  -3.258   0.255  0.00  0.00    -0.388 OA
ATOM     35  H   UNL     1      -5.913  -2.899  -0.073  0.00  0.00    +0.210 HD
ENDBRANCH   4  34
BRANCH  20  36
ATOM     36  O   UNL     1      -7.628 -10.175  -2.961  0.00  0.00    -0.461 OA
BRANCH  36  37
ATOM     37  C   UNL     1      -8.597 -10.805  -2.278  0.00  0.00    +0.304 C 
ATOM     38  O   UNL     1      -8.902 -10.425  -1.173  0.00  0.00    -0.251 OA
ATOM     39  C   UNL     1      -9.306 -11.985  -2.891  0.00  0.00    +0.136 C 
ENDBRANCH  36  37
ENDBRANCH  20  36
TORSDOF 8
