REMARK  Name = ZINC26642482
REMARK  5 active torsions:
REMARK  status: ('A' for Active; 'I' for Inactive)
REMARK    1  A    between atoms: C_4  and  O_7
REMARK    2  A    between atoms: O_7  and  C_8
REMARK    3  A    between atoms: C_8  and  C_9
REMARK    4  A    between atoms: C_15  and  C_16
REMARK    5  A    between atoms: C_19  and  C_21
REMARK                            x       y       z     vdW  Elec       q    Type
REMARK                         _______ _______ _______ _____ _____    ______ ____
ROOT
ATOM      1  C   UNL     1       4.870  -2.802  -1.759  0.00  0.00    +0.137 C 
ATOM      2  N   UNL     1       5.935  -2.134  -1.420  0.00  0.00    -0.166 NA
ATOM      3  N   UNL     1       7.114  -2.777  -1.112  0.00  0.00    -0.152 N 
ATOM      4  C   UNL     1       8.296  -2.159  -0.649  0.00  0.00    +0.153 C 
ATOM      5  N   UNL     1       8.312  -0.990  -0.061  0.00  0.00    -0.283 NA
ATOM      6  C   UNL     1       9.520  -2.966  -0.894  0.00  0.00    +0.084 C 
ATOM      7  C   UNL     1      10.745  -2.373  -1.163  0.00  0.00    +0.063 C 
ATOM      8  C   UNL     1       9.363  -4.438  -0.837  0.00  0.00    +0.273 C 
ATOM      9  O   UNL     1      10.310  -5.160  -0.570  0.00  0.00    -0.268 OA
ATOM     10  N   UNL     1       8.144  -4.957  -1.087  0.00  0.00    -0.152 NA
ATOM     11  C   UNL     1       7.125  -4.149  -1.243  0.00  0.00    +0.181 C 
ATOM     12  S   UNL     1       5.441  -4.494  -1.678  0.00  0.00    -0.035 S 
ATOM     13  H   UNL     1       7.484  -0.504   0.075  0.00  0.00    +0.188 HD
ENDROOT
BRANCH   7  14
ATOM     14  C   UNL     1      10.820  -0.989  -1.388  0.00  0.00    +0.129 A 
ATOM     15  C   UNL     1      11.986  -0.250  -1.533  0.00  0.00    +0.050 A 
ATOM     16  C   UNL     1      11.600   1.074  -1.739  0.00  0.00    +0.050 A 
ATOM     17  C   UNL     1      10.222   1.102  -1.713  0.00  0.00    +0.137 A 
ATOM     18  O   UNL     1       9.771  -0.147  -1.506  0.00  0.00    -0.455 OA
BRANCH  17  19
ATOM     19  C   UNL     1       9.382   2.302  -1.888  0.00  0.00    +0.037 A 
ATOM     20  C   UNL     1       9.645   3.457  -1.147  0.00  0.00    +0.033 A 
ATOM     21  C   UNL     1       8.855   4.576  -1.316  0.00  0.00    +0.042 A 
ATOM     22  C   UNL     1       7.803   4.556  -2.218  0.00  0.00    +0.021 A 
ATOM     23  C   UNL     1       7.538   3.416  -2.956  0.00  0.00    +0.022 A 
ATOM     24  C   UNL     1       8.323   2.291  -2.801  0.00  0.00    +0.052 A 
ATOM     25 CL   UNL     1       7.992   0.864  -3.733  0.00  0.00    -0.083 Cl
ATOM     26 CL   UNL     1       9.179   6.012  -0.396  0.00  0.00    -0.084 Cl
ENDBRANCH  17  19
ENDBRANCH   7  14
BRANCH   1  27
ATOM     27  C   UNL     1       3.502  -2.282  -2.121  0.00  0.00    +0.293 C 
BRANCH  27  28
ATOM     28  O   UNL     1       3.502  -0.855  -2.052  0.00  0.00    -0.485 OA
BRANCH  28  32
ATOM     29  C   UNL     1      -0.035   1.064  -2.962  0.00  0.00    +0.000 A 
ATOM     30  C   UNL     1       1.080   1.802  -2.610  0.00  0.00    +0.004 A 
ATOM     31  C   UNL     1       2.265   1.162  -2.305  0.00  0.00    +0.045 A 
ATOM     32  C   UNL     1       2.337  -0.223  -2.352  0.00  0.00    +0.121 A 
ATOM     33  C   UNL     1       1.216  -0.961  -2.704  0.00  0.00    +0.045 A 
ATOM     34  C   UNL     1       0.033  -0.316  -3.009  0.00  0.00    +0.004 A 
ENDBRANCH  28  32
ENDBRANCH  27  28
ENDBRANCH   1  27
TORSDOF 5
