REMARK  Name = ZINC63708480
REMARK  9 active torsions:
REMARK  status: ('A' for Active; 'I' for Inactive)
REMARK    1  A    between atoms: C_4  and  C_7
REMARK    2  A    between atoms: C_7  and  N_8
REMARK    3  A    between atoms: C_9  and  C_11
REMARK    4  A    between atoms: C_11  and  S_12
REMARK    5  A    between atoms: S_12  and  C_13
REMARK    6  A    between atoms: N_24  and  N_25
REMARK    7  A    between atoms: C_26  and  C_28
REMARK    8  A    between atoms: C_28  and  C_29
REMARK    9  A    between atoms: C_29  and  C_30
REMARK                            x       y       z     vdW  Elec       q    Type
REMARK                         _______ _______ _______ _____ _____    ______ ____
ROOT
ATOM      1  C   UNL     1       7.748  -2.961   4.718  0.00  0.00    +0.241 C 
ATOM      2  N   UNL     1       6.690  -3.748   5.362  0.00  0.00    -0.316 N 
ATOM      3  C   UNL     1       5.489  -3.122   5.677  0.00  0.00    +0.041 A 
ATOM      4  C   UNL     1       4.294  -3.820   5.721  0.00  0.00    +0.024 A 
ATOM      5  C   UNL     1       3.127  -3.157   6.050  0.00  0.00    +0.002 A 
ATOM      6  C   UNL     1       3.144  -1.801   6.336  0.00  0.00    +0.001 A 
ATOM      7  C   UNL     1       4.325  -1.090   6.292  0.00  0.00    +0.015 A 
ATOM      8  C   UNL     1       5.508  -1.745   5.958  0.00  0.00    +0.059 A 
ATOM      9  C   UNL     1       6.792  -1.026   5.873  0.00  0.00    +0.267 C 
ATOM     10  O   UNL     1       6.879   0.122   6.267  0.00  0.00    -0.268 OA
ATOM     11  N   UNL     1       7.865  -1.651   5.358  0.00  0.00    -0.186 N 
ATOM     12  H   UNL     1       6.826  -4.686   5.564  0.00  0.00    +0.149 HD
ENDROOT
BRANCH  11  13
ATOM     13  N   UNL     1       9.119  -1.032   5.436  0.00  0.00    -0.229 N 
ATOM     14  C   UNL     1       9.412   0.003   4.624  0.00  0.00    +0.230 C 
ATOM     15  O   UNL     1       8.589   0.398   3.825  0.00  0.00    -0.274 OA
ATOM     16  H   UNL     1       9.777  -1.348   6.075  0.00  0.00    +0.173 HD
BRANCH  14  17
ATOM     17  C   UNL     1      10.761   0.669   4.708  0.00  0.00    +0.102 C 
BRANCH  17  18
ATOM     18  C   UNL     1      10.834   1.805   3.686  0.00  0.00    +0.042 C 
BRANCH  18  19
ATOM     19  C   UNL     1      12.183   2.471   3.770  0.00  0.00    -0.041 C 
ATOM     20  C   UNL     1      13.269   2.207   3.008  0.00  0.00    -0.001 A 
ATOM     21  C   UNL     1      13.510   1.257   1.915  0.00  0.00    +0.010 A 
ATOM     22  C   UNL     1      14.729   1.224   1.332  0.00  0.00    +0.001 A 
ATOM     23  C   UNL     1      15.767   2.071   1.744  0.00  0.00    +0.002 A 
ATOM     24  C   UNL     1      15.622   2.970   2.741  0.00  0.00    +0.026 A 
ATOM     25  C   UNL     1      14.381   3.091   3.424  0.00  0.00    +0.043 A 
ATOM     26  N   UNL     1      13.997   3.871   4.406  0.00  0.00    -0.380 N 
ATOM     27  C   UNL     1      12.595   3.573   4.719  0.00  0.00    +0.144 C 
ATOM     28  H   UNL     1      14.547   4.536   4.848  0.00  0.00    +0.160 HD
ENDBRANCH  18  19
ENDBRANCH  17  18
ENDBRANCH  14  17
ENDBRANCH  11  13
BRANCH   1  29
ATOM     29  S   UNL     1       7.347  -2.738   2.963  0.00  0.00    -0.108 S 
BRANCH  29  30
ATOM     30  C   UNL     1       5.764  -1.853   2.984  0.00  0.00    +0.168 C 
BRANCH  30  32
ATOM     31  N   UNL     1       4.152  -0.952   1.338  0.00  0.00    -0.311 N 
ATOM     32  C   UNL     1       5.311  -1.601   1.569  0.00  0.00    +0.223 C 
ATOM     33  O   UNL     1       5.989  -1.981   0.638  0.00  0.00    -0.275 OA
ATOM     34  H   UNL     1       3.610  -0.648   2.082  0.00  0.00    +0.149 HD
BRANCH  31  35
ATOM     35  C   UNL     1       3.711  -0.707  -0.038  0.00  0.00    +0.139 C 
BRANCH  35  39
ATOM     36  C   UNL     1      -0.017   1.378   0.010  0.00  0.00    +0.000 A 
ATOM     37  C   UNL     1       1.171   2.086   0.002  0.00  0.00    +0.000 A 
ATOM     38  C   UNL     1       2.377   1.411  -0.013  0.00  0.00    +0.005 A 
ATOM     39  C   UNL     1       2.396   0.029  -0.020  0.00  0.00    -0.030 A 
ATOM     40  C   UNL     1       1.208  -0.679  -0.012  0.00  0.00    +0.005 A 
ATOM     41  C   UNL     1       0.002  -0.004   0.002  0.00  0.00    +0.000 A 
ENDBRANCH  35  39
ENDBRANCH  31  35
ENDBRANCH  30  32
ENDBRANCH  29  30
ENDBRANCH   1  29
TORSDOF 9
