REMARK  Name = ZINC12731975
REMARK  12 active torsions:
REMARK  status: ('A' for Active; 'I' for Inactive)
REMARK    1  A    between atoms: C_1  and  C_2
REMARK    2  A    between atoms: C_2  and  N_3
REMARK    3  A    between atoms: N_3  and  C_4
REMARK    4  A    between atoms: N_3  and  S_6
REMARK    5  A    between atoms: C_4  and  C_5
REMARK    6  A    between atoms: S_6  and  C_9
REMARK    7  A    between atoms: C_12  and  N_26
REMARK    8  A    between atoms: C_13  and  N_15
REMARK    9  A    between atoms: N_15  and  S_16
REMARK   10  A    between atoms: S_16  and  C_19
REMARK   11  A    between atoms: N_26  and  C_27
REMARK   12  A    between atoms: N_26  and  C_28
REMARK                            x       y       z     vdW  Elec       q    Type
REMARK                         _______ _______ _______ _____ _____    ______ ____
ROOT
ATOM      1  C   UNL     1       2.625   3.523   0.221  0.00  0.00    +0.107 A 
ATOM      2  C   UNL     1       3.685   2.862  -0.371  0.00  0.00    +0.030 A 
ATOM      3  C   UNL     1       3.526   1.571  -0.839  0.00  0.00    +0.027 A 
ATOM      4  C   UNL     1       2.300   0.935  -0.716  0.00  0.00    +0.052 A 
ATOM      5  C   UNL     1       1.230   1.602  -0.119  0.00  0.00    +0.071 A 
ATOM      6  C   UNL     1       1.397   2.898   0.343  0.00  0.00    +0.055 A 
ENDROOT
BRANCH   1   7
ATOM      7  S   UNL     1       2.836   5.168   0.816  0.00  0.00    +0.061 S 
ATOM      8  O   UNL     1       1.849   5.368   1.818  0.00  0.00    -0.153 OA
ATOM      9  O   UNL     1       4.224   5.332   1.071  0.00  0.00    -0.153 OA
BRANCH   7  10
ATOM     10  N   UNL     1       2.460   6.191  -0.431  0.00  0.00    -0.177 NA
BRANCH  10  12
ATOM     11  C   UNL     1       0.921   8.022   0.080  0.00  0.00    +0.022 C 
ATOM     12  C   UNL     1       1.083   6.662  -0.602  0.00  0.00    +0.106 C 
ENDBRANCH  10  12
BRANCH  10  13
ATOM     13  C   UNL     1       3.504   6.626  -1.362  0.00  0.00    +0.106 C 
ATOM     14  C   UNL     1       3.501   5.715  -2.592  0.00  0.00    +0.022 C 
ENDBRANCH  10  13
ENDBRANCH   7  10
ENDBRANCH   1   7
BRANCH   4  15
ATOM     15  N   UNL     1       2.136  -0.372  -1.191  0.00  0.00    -0.335 N 
ATOM     16  C   UNL     1       2.402  -0.446  -2.634  0.00  0.00    +0.129 C 
ATOM     17  C   UNL     1       2.987  -1.312  -0.449  0.00  0.00    +0.129 C 
ENDBRANCH   4  15
BRANCH   5  18
ATOM     18  N   UNL     1      -0.011   0.966   0.007  0.00  0.00    -0.214 N 
ATOM     19  H   UNL     1      -0.052   0.014   0.189  0.00  0.00    +0.174 HD
BRANCH  18  20
ATOM     20  S   UNL     1      -1.409   1.838  -0.159  0.00  0.00    +0.072 S 
ATOM     21  O   UNL     1      -2.481   0.910  -0.054  0.00  0.00    -0.150 OA
ATOM     22  O   UNL     1      -1.290   2.965   0.698  0.00  0.00    -0.150 OA
BRANCH  20  23
ATOM     23  C   UNL     1      -1.442   2.460  -1.807  0.00  0.00    +0.110 A 
ATOM     24  C   UNL     1      -2.028   1.716  -2.815  0.00  0.00    +0.029 A 
ATOM     25  C   UNL     1      -2.054   2.204  -4.108  0.00  0.00    +0.003 A 
ATOM     26  C   UNL     1      -1.496   3.436  -4.394  0.00  0.00    +0.020 A 
ATOM     27  C   UNL     1      -0.909   4.180  -3.386  0.00  0.00    +0.043 A 
ATOM     28  C   UNL     1      -0.887   3.693  -2.091  0.00  0.00    +0.048 A 
ATOM     29 CL   UNL     1      -0.207   5.727  -3.745  0.00  0.00    -0.083 Cl
ENDBRANCH  20  23
ENDBRANCH  18  20
ENDBRANCH   5  18
TORSDOF 8
