REMARK  Name = ZINC12296398
REMARK  6 active torsions:
REMARK  status: ('A' for Active; 'I' for Inactive)
REMARK    1  A    between atoms: C_1  and  C_2
REMARK    2  A    between atoms: C_14  and  O_30
REMARK    3  A    between atoms: C_15  and  C_16
REMARK    4  A    between atoms: C_19  and  C_22
REMARK    5  A    between atoms: C_25  and  O_28
REMARK    6  A    between atoms: O_28  and  C_29
REMARK                            x       y       z     vdW  Elec       q    Type
REMARK                         _______ _______ _______ _____ _____    ______ ____
ROOT
ATOM      1  C   UNL     1       4.663   3.582   2.884  0.00  0.00    +0.044 C 
ATOM      2  C   UNL     1       4.312   5.020   3.167  0.00  0.00    -0.035 A 
ATOM      3  C   UNL     1       4.949   5.690   4.188  0.00  0.00    +0.051 A 
ATOM      4  C   UNL     1       4.632   7.014   4.463  0.00  0.00    +0.143 A 
ATOM      5  C   UNL     1       3.657   7.673   3.692  0.00  0.00    +0.063 A 
ATOM      6  C   UNL     1       3.331   9.068   3.998  0.00  0.00    -0.023 A 
ATOM      7  C   UNL     1       3.987   9.675   5.018  0.00  0.00    +0.041 A 
ATOM      8  C   UNL     1       4.957   8.952   5.749  0.00  0.00    +0.341 A 
ATOM      9  O   UNL     1       5.542   9.505   6.663  0.00  0.00    -0.245 OA
ATOM     10  O   UNL     1       5.250   7.675   5.466  0.00  0.00    -0.422 OA
ATOM     11  C   UNL     1       3.505  11.102   5.167  0.00  0.00    +0.043 C 
ATOM     12  C   UNL     1       2.170  11.159   4.394  0.00  0.00    +0.010 C 
ATOM     13  C   UNL     1       2.347  10.023   3.363  0.00  0.00    +0.037 C 
ATOM     14  C   UNL     1       3.011   6.996   2.648  0.00  0.00    +0.137 A 
ATOM     15  C   UNL     1       3.346   5.664   2.387  0.00  0.00    +0.043 A 
ENDROOT
BRANCH  15  16
ATOM     16  C   UNL     1       2.675   4.936   1.293  0.00  0.00    +0.072 C 
ATOM     17  N   UNL     1       3.084   4.888   0.073  0.00  0.00    -0.190 NA
ATOM     18  N   UNL     1       2.272   4.133  -0.770  0.00  0.00    -0.261 N 
ATOM     19  C   UNL     1       1.147   3.593   0.011  0.00  0.00    +0.125 C 
ATOM     20  C   UNL     1       1.403   4.131   1.432  0.00  0.00    +0.086 C 
ATOM     21  H   UNL     1       2.423   3.986  -1.717  0.00  0.00    +0.169 HD
BRANCH  19  22
ATOM     22  C   UNL     1       1.171   2.086   0.002  0.00  0.00    -0.025 A 
ATOM     23  C   UNL     1      -0.017   1.377   0.010  0.00  0.00    +0.009 A 
ATOM     24  C   UNL     1       0.002  -0.004   0.002  0.00  0.00    +0.046 A 
ATOM     25  C   UNL     1       1.213  -0.680  -0.013  0.00  0.00    +0.120 A 
ATOM     26  C   UNL     1       2.403   0.033  -0.021  0.00  0.00    +0.046 A 
ATOM     27  C   UNL     1       2.379   1.415  -0.013  0.00  0.00    +0.009 A 
BRANCH  25  28
ATOM     28  O   UNL     1       1.234  -2.039  -0.020  0.00  0.00    -0.495 OA
ATOM     29  C   UNL     1       2.518  -2.668  -0.036  0.00  0.00    +0.277 C 
ENDBRANCH  25  28
ENDBRANCH  19  22
ENDBRANCH  15  16
BRANCH  14  30
ATOM     30  O   UNL     1       2.072   7.626   1.900  0.00  0.00    -0.505 OA
ATOM     31  H   UNL     1       1.173   7.542   2.245  0.00  0.00    +0.292 HD
ENDBRANCH  14  30
TORSDOF 4
