REMARK  Name = ZINC39675252
REMARK  13 active torsions:
REMARK  status: ('A' for Active; 'I' for Inactive)
REMARK    1  A    between atoms: C_1  and  C_2
REMARK    2  A    between atoms: C_2  and  C_4
REMARK    3  A    between atoms: C_2  and  N_14
REMARK    4  A    between atoms: C_4  and  C_5
REMARK    5  A    between atoms: C_5  and  C_6
REMARK    6  A    between atoms: C_9  and  O_12
REMARK    7  A    between atoms: O_12  and  C_13
REMARK    8  A    between atoms: C_15  and  C_17
REMARK    9  A    between atoms: C_28  and  C_30
REMARK   10  A    between atoms: C_33  and  O_38
REMARK   11  A    between atoms: C_35  and  O_36
REMARK   12  A    between atoms: O_36  and  C_37
REMARK   13  A    between atoms: O_38  and  C_39
REMARK                            x       y       z     vdW  Elec       q    Type
REMARK                         _______ _______ _______ _____ _____    ______ ____
ROOT
ATOM      1  C   UNL     1      -3.466  -1.165  -1.127  0.00  0.00    +0.100 C 
ATOM      2  C   UNL     1      -4.368  -0.272  -0.245  0.00  0.00    +0.121 C 
ATOM      3  N   UNL     1      -4.986   0.686  -1.192  0.00  0.00    -0.296 N 
ATOM      4  C   UNL     1      -5.284  -0.126  -2.396  0.00  0.00    +0.115 C 
ATOM      5  C   UNL     1      -4.073  -1.070  -2.537  0.00  0.00    -0.004 C 
ATOM      6  C   UNL     1      -4.529  -2.447  -3.010  0.00  0.00    -0.010 C 
ATOM      7  C   UNL     1      -5.074  -2.336  -4.437  0.00  0.00    -0.082 C 
ATOM      8  N   UNL     1      -4.029  -1.813  -5.324  0.00  0.00    +0.379 N 
ATOM      9  C   UNL     1      -3.662  -0.451  -4.917  0.00  0.00    -0.082 C 
ATOM     10  C   UNL     1      -3.057  -0.482  -3.511  0.00  0.00    -0.010 C 
ATOM     11  C   UNL     1      -5.223   1.999  -1.002  0.00  0.00    +0.250 C 
ATOM     12  O   UNL     1      -4.832   2.547   0.011  0.00  0.00    -0.270 OA
ATOM     13  H   UNL     1      -3.216  -2.408  -5.271  0.00  0.00    -0.086 HD
ATOM     14  H   UNL     1      -4.371  -1.798  -6.273  0.00  0.00    -0.086 HD
ENDROOT
BRANCH  11  15
ATOM     15  C   UNL     1      -5.957   2.770  -2.020  0.00  0.00    +0.079 A 
ATOM     16  C   UNL     1      -6.990   2.168  -2.747  0.00  0.00    +0.020 A 
ATOM     17  C   UNL     1      -7.673   2.891  -3.696  0.00  0.00    +0.046 A 
ATOM     18  C   UNL     1      -7.341   4.221  -3.937  0.00  0.00    +0.124 A 
ATOM     19  C   UNL     1      -6.319   4.828  -3.222  0.00  0.00    +0.092 A 
ATOM     20  C   UNL     1      -5.628   4.112  -2.260  0.00  0.00    +0.136 A 
BRANCH  20  21
ATOM     21  O   UNL     1      -4.632   4.705  -1.555  0.00  0.00    -0.494 OA
ATOM     22  C   UNL     1      -4.352   6.074  -1.854  0.00  0.00    +0.277 C 
ENDBRANCH  20  21
BRANCH  18  23
ATOM     23  O   UNL     1      -8.021   4.928  -4.876  0.00  0.00    -0.495 OA
ATOM     24  C   UNL     1      -9.061   4.243  -5.577  0.00  0.00    +0.277 C 
ENDBRANCH  18  23
ENDBRANCH  11  15
BRANCH   1  26
ATOM     25  N   UNL     1      -1.020  -1.499  -1.271  0.00  0.00    -0.312 N 
ATOM     26  C   UNL     1      -2.052  -0.645  -1.128  0.00  0.00    +0.218 C 
ATOM     27  O   UNL     1      -1.843   0.543  -1.000  0.00  0.00    -0.275 OA
ATOM     28  H   UNL     1      -1.187  -2.449  -1.374  0.00  0.00    +0.149 HD
BRANCH  25  30
ATOM     29  C   UNL     1       0.853  -0.865   0.169  0.00  0.00    +0.028 C 
ATOM     30  C   UNL     1       0.355  -0.993  -1.272  0.00  0.00    +0.070 C 
BRANCH  30  31
ATOM     31  C   UNL     1       1.256  -1.965  -2.038  0.00  0.00    +0.026 C 
BRANCH  31  32
ATOM     32  C   UNL     1       0.836  -1.998  -3.509  0.00  0.00    +0.037 C 
BRANCH  32  33
ATOM     33  C   UNL     1       1.723  -2.955  -4.263  0.00  0.00    -0.047 A 
ATOM     34  C   UNL     1       2.893  -2.501  -4.841  0.00  0.00    +0.007 A 
ATOM     35  C   UNL     1       3.708  -3.376  -5.533  0.00  0.00    +0.046 A 
ATOM     36  C   UNL     1       3.351  -4.712  -5.647  0.00  0.00    +0.120 A 
ATOM     37  C   UNL     1       2.176  -5.165  -5.066  0.00  0.00    +0.046 A 
ATOM     38  C   UNL     1       1.367  -4.287  -4.370  0.00  0.00    +0.007 A 
BRANCH  36  39
ATOM     39  O   UNL     1       4.150  -5.575  -6.328  0.00  0.00    -0.495 OA
ATOM     40  C   UNL     1       3.719  -6.935  -6.405  0.00  0.00    +0.277 C 
ENDBRANCH  36  39
ENDBRANCH  32  33
ENDBRANCH  31  32
ENDBRANCH  30  31
ENDBRANCH  25  30
ENDBRANCH   1  26
TORSDOF 9
