REMARK  Name = ZINC19113440
REMARK  7 active torsions:
REMARK  status: ('A' for Active; 'I' for Inactive)
REMARK    1  A    between atoms: C_1  and  C_2
REMARK    2  A    between atoms: C_2  and  C_3
REMARK    3  A    between atoms: C_3  and  C_20
REMARK    4  A    between atoms: N_6  and  C_10
REMARK    5  A    between atoms: C_10  and  C_11
REMARK    6  A    between atoms: C_25  and  C_26
REMARK    7  A    between atoms: C_25  and  N_62
REMARK                            x       y       z     vdW  Elec       q    Type
REMARK                         _______ _______ _______ _____ _____    ______ ____
ROOT
ATOM      1  C   UNL     1      -0.756   2.035  -1.230  0.00  0.00    +0.115 C 
ATOM      2  C   UNL     1      -2.162   1.470  -1.284  0.00  0.00    +0.247 C 
ATOM      3  O   UNL     1      -3.049   1.634  -0.474  0.00  0.00    -0.273 OA
ATOM      4  N   UNL     1      -2.220   0.746  -2.419  0.00  0.00    -0.220 N 
ATOM      5  C   UNL     1      -1.059   0.775  -3.083  0.00  0.00    +0.310 C 
ATOM      6  O   UNL     1      -0.868   0.198  -4.135  0.00  0.00    -0.252 OA
ATOM      7  N   UNL     1      -0.125   1.519  -2.457  0.00  0.00    -0.285 N 
ATOM      8  H   UNL     1       0.784   1.683  -2.753  0.00  0.00    +0.151 HD
ENDROOT
BRANCH   1   9
ATOM      9  C   UNL     1      -0.019   1.527   0.010  0.00  0.00    +0.018 C 
ATOM     10  C   UNL     1       1.421   2.049  -0.001  0.00  0.00    -0.013 C 
ATOM     11  C   UNL     1       2.171   1.488   1.210  0.00  0.00    -0.078 C 
ATOM     12  C   UNL     1       0.793  -0.505   1.212  0.00  0.00    -0.078 C 
ATOM     13  C   UNL     1       0.002  -0.004   0.002  0.00  0.00    -0.013 C 
ATOM     14  N   UNL     1       2.176   0.012   1.129  0.00  0.00    +0.382 N 
ATOM     15  H   UNL     1       2.584  -0.271   0.231  0.00  0.00    -0.081 HD
BRANCH  14  16
ATOM     16  C   UNL     1       2.991  -0.550   2.226  0.00  0.00    -0.043 C 
BRANCH  16  17
ATOM     17  C   UNL     1       4.305   0.186   2.291  0.00  0.00    -0.062 A 
ATOM     18  C   UNL     1       5.381  -0.273   1.532  0.00  0.00    +0.004 A 
ATOM     19  C   UNL     1       6.581   0.356   1.552  0.00  0.00    +0.031 A 
ATOM     20  C   UNL     1       6.768   1.503   2.366  0.00  0.00    +0.100 A 
ATOM     21  C   UNL     1       5.643   1.980   3.165  0.00  0.00    +0.100 A 
ATOM     22  C   UNL     1       4.414   1.274   3.090  0.00  0.00    +0.032 A 
ATOM     23  N   UNL     1       5.958   3.060   3.877  0.00  0.00    -0.191 NA
ATOM     24  S   UNL     1       7.457   3.379   3.550  0.00  0.00    +0.116 S 
ATOM     25  N   UNL     1       7.854   2.256   2.532  0.00  0.00    -0.191 NA
ENDBRANCH  16  17
ENDBRANCH  14  16
ENDBRANCH   1   9
BRANCH   1  27
ATOM     26  C   UNL     1      -1.533   4.046  -2.493  0.00  0.00    +0.006 C 
ATOM     27  C   UNL     1      -0.791   3.565  -1.245  0.00  0.00    +0.032 C 
ENDBRANCH   1  27
BRANCH   4  28
ATOM     28  C   UNL     1      -3.408   0.018  -2.871  0.00  0.00    +0.153 C 
BRANCH  28  29
ATOM     29  C   UNL     1      -4.251   0.918  -3.737  0.00  0.00    -0.026 A 
ATOM     30  C   UNL     1      -4.039   0.958  -5.102  0.00  0.00    +0.009 A 
ATOM     31  C   UNL     1      -4.809   1.782  -5.901  0.00  0.00    +0.050 A 
ATOM     32  C   UNL     1      -5.797   2.571  -5.333  0.00  0.00    +0.166 A 
ATOM     33  C   UNL     1      -6.010   2.532  -3.958  0.00  0.00    +0.167 A 
ATOM     34  C   UNL     1      -5.237   1.700  -3.164  0.00  0.00    +0.054 A 
ATOM     35  O   UNL     1      -7.026   3.390  -3.649  0.00  0.00    -0.453 OA
ATOM     36  C   UNL     1      -7.157   4.257  -4.791  0.00  0.00    +0.466 C 
ATOM     37  O   UNL     1      -6.679   3.454  -5.887  0.00  0.00    -0.453 OA
ENDBRANCH  28  29
ENDBRANCH   4  28
TORSDOF 6
