REMARK  Name = ZINC39710558
REMARK  13 active torsions:
REMARK  status: ('A' for Active; 'I' for Inactive)
REMARK    1  A    between atoms: C_1  and  C_2
REMARK    2  A    between atoms: C_2  and  C_3
REMARK    3  A    between atoms: C_10  and  C_15
REMARK    4  A    between atoms: C_15  and  C_17
REMARK    5  A    between atoms: C_15  and  N_27
REMARK    6  A    between atoms: N_22  and  C_23
REMARK    7  A    between atoms: C_23  and  C_24
REMARK    8  A    between atoms: C_23  and  C_25
REMARK    9  A    between atoms: C_23  and  C_26
REMARK   10  A    between atoms: N_27  and  C_28
REMARK   11  A    between atoms: N_27  and  C_34
REMARK   12  A    between atoms: C_28  and  C_29
REMARK   13  A    between atoms: C_34  and  C_35
REMARK                            x       y       z     vdW  Elec       q    Type
REMARK                         _______ _______ _______ _____ _____    ______ ____
ROOT
ATOM      1  C   UNL     1       5.725  -3.464  -3.241  0.00  0.00    -0.008 C 
ENDROOT
BRANCH   1   9
ATOM      2  C   UNL     1       2.129  -1.001   0.638  0.00  0.00    -0.047 A 
ATOM      3  C   UNL     1       1.118  -0.865  -0.313  0.00  0.00    +0.005 A 
ATOM      4  C   UNL     1       1.334  -1.043  -1.643  0.00  0.00    +0.024 A 
ATOM      5  C   UNL     1       2.614  -1.379  -2.120  0.00  0.00    +0.040 A 
ATOM      6  N   UNL     1       2.814  -1.550  -3.426  0.00  0.00    -0.285 N 
ATOM      7  C   UNL     1       3.991  -1.867  -3.941  0.00  0.00    +0.223 C 
ATOM      8  O   UNL     1       4.112  -2.011  -5.143  0.00  0.00    -0.275 OA
ATOM      9  C   UNL     1       5.184  -2.048  -3.030  0.00  0.00    +0.088 C 
ATOM     10  C   UNL     1       4.961  -1.853  -1.543  0.00  0.00    -0.006 C 
ATOM     11  C   UNL     1       3.701  -1.528  -1.137  0.00  0.00    -0.007 A 
ATOM     12  C   UNL     1       3.400  -1.317   0.280  0.00  0.00    +0.013 A 
ATOM     13  H   UNL     1       2.062  -1.439  -4.028  0.00  0.00    +0.155 HD
BRANCH   2  15
ATOM     14  C   UNL     1       2.006   0.690   2.449  0.00  0.00    +0.009 C 
ATOM     15  C   UNL     1       1.806  -0.785   2.095  0.00  0.00    +0.032 C 
ENDBRANCH   2  15
ENDBRANCH   1   9
BRANCH   1  16
ATOM     16  C   UNL     1       4.624  -4.481  -2.937  0.00  0.00    +0.205 C 
ATOM     17  N   UNL     1       3.444  -4.226  -3.774  0.00  0.00    -0.152 NA
ATOM     18  N   UNL     1       2.484  -3.969  -3.043  0.00  0.00    -0.070 NA
ATOM     19  N   UNL     1       2.811  -4.001  -1.688  0.00  0.00    -0.179 N 
ATOM     20  N   UNL     1       4.140  -4.318  -1.550  0.00  0.00    -0.183 NA
ATOM     21  H   UNL     1       2.196  -3.827  -0.958  0.00  0.00    +0.191 HD
BRANCH  20  22
ATOM     22  C   UNL     1       4.310  -5.559  -0.783  0.00  0.00    +0.035 C 
ATOM     23  C   UNL     1       5.793  -5.935  -0.744  0.00  0.00    +0.029 C 
ATOM     24  C   UNL     1       3.799  -5.351   0.644  0.00  0.00    +0.029 C 
ATOM     25  C   UNL     1       3.516  -6.684  -1.450  0.00  0.00    +0.029 C 
ENDBRANCH  20  22
ENDBRANCH   1  16
BRANCH   1  26
ATOM     26  N   UNL     1       6.162  -3.618  -4.635  0.00  0.00    +0.392 N 
ATOM     27  H   UNL     1       5.371  -3.498  -5.251  0.00  0.00    -0.080 HD
BRANCH  26  28
ATOM     28  C   UNL     1       7.181  -2.605  -4.944  0.00  0.00    -0.002 C 
BRANCH  28  29
ATOM     29  C   UNL     1       8.285  -2.677  -3.922  0.00  0.00    +0.089 A 
ATOM     30  C   UNL     1       9.423  -3.385  -4.040  0.00  0.00    +0.042 A 
ATOM     31  C   UNL     1      10.167  -3.166  -2.859  0.00  0.00    +0.041 A 
ATOM     32  C   UNL     1       9.440  -2.337  -2.088  0.00  0.00    +0.195 A 
ATOM     33  O   UNL     1       8.304  -2.039  -2.740  0.00  0.00    -0.470 OA
ENDBRANCH  28  29
ENDBRANCH  26  28
BRANCH  26  34
ATOM     34  C   UNL     1       6.731  -4.959  -4.825  0.00  0.00    -0.034 C 
BRANCH  34  35
ATOM     35  C   UNL     1       7.058  -5.164  -6.281  0.00  0.00    -0.027 A 
ATOM     36  C   UNL     1       8.239  -4.987  -6.924  0.00  0.00    +0.009 A 
ATOM     37  C   UNL     1       8.308  -5.240  -8.281  0.00  0.00    +0.008 A 
ATOM     38  C   UNL     1       7.193  -5.659  -8.929  0.00  0.00    +0.045 A 
ATOM     39  S   UNL     1       5.995  -5.712  -7.607  0.00  0.00    -0.103 S 
ENDBRANCH  34  35
ENDBRANCH  26  34
ENDBRANCH   1  26
TORSDOF 9
