REMARK  Name = ZINC03589078
REMARK  9 active torsions:
REMARK  status: ('A' for Active; 'I' for Inactive)
REMARK    1  A    between atoms: C_1  and  C_2
REMARK    2  A    between atoms: C_2  and  C_3
REMARK    3  A    between atoms: C_2  and  C_4
REMARK    4  A    between atoms: C_2  and  C_5
REMARK    5  A    between atoms: C_5  and  C_7
REMARK    6  A    between atoms: C_14  and  C_15
REMARK    7  A    between atoms: C_17  and  O_23
REMARK    8  A    between atoms: C_18  and  O_22
REMARK    9  A    between atoms: O_23  and  C_24
REMARK                            x       y       z     vdW  Elec       q    Type
REMARK                         _______ _______ _______ _____ _____    ______ ____
ROOT
ATOM      1  C   UNL     1      -5.163   7.378  -0.273  0.00  0.00    +0.079 C 
ATOM      2  C   UNL     1      -3.797   7.161  -0.208  0.00  0.00    +0.084 A 
ATOM      3  N   UNL     1      -2.783   8.088  -0.236  0.00  0.00    -0.316 N 
ATOM      4  H   UNL     1      -2.996   9.031  -0.308  0.00  0.00    +0.169 HD
ATOM      5  C   UNL     1      -1.518   7.708  -0.164  0.00  0.00    +0.263 A 
ATOM      6  O   UNL     1      -0.608   8.516  -0.187  0.00  0.00    -0.267 OA
ATOM      7  C   UNL     1      -1.261   6.259  -0.054  0.00  0.00    +0.079 A 
ATOM      8  C   UNL     1      -0.078   5.598   0.033  0.00  0.00    +0.028 C 
ATOM      9  S   UNL     1      -2.925   5.609  -0.076  0.00  0.00    -0.066 S 
ENDROOT
BRANCH   8  10
ATOM     10  C   UNL     1      -0.062   4.154   0.301  0.00  0.00    -0.019 A 
ATOM     11  C   UNL     1       1.095   3.406   0.049  0.00  0.00    +0.057 A 
ATOM     12  C   UNL     1       1.105   2.049   0.303  0.00  0.00    +0.163 A 
ATOM     13  C   UNL     1      -0.035   1.426   0.809  0.00  0.00    +0.177 A 
ATOM     14  C   UNL     1      -1.186   2.165   1.054  0.00  0.00    +0.087 A 
ATOM     15  C   UNL     1      -1.203   3.522   0.809  0.00  0.00    +0.032 A 
ATOM     16 CL   UNL     1      -2.603   1.380   1.678  0.00  0.00    -0.080 Cl
BRANCH  13  17
ATOM     17  O   UNL     1      -0.023   0.090   1.058  0.00  0.00    -0.502 OA
ATOM     18  H   UNL     1       0.261  -0.141   1.954  0.00  0.00    +0.292 HD
ENDBRANCH  13  17
BRANCH  12  19
ATOM     19  O   UNL     1       2.227   1.320   0.060  0.00  0.00    -0.491 OA
ATOM     20  C   UNL     1       3.358   2.023  -0.458  0.00  0.00    +0.277 C 
ENDBRANCH  12  19
ENDBRANCH   8  10
BRANCH   1  21
ATOM     21  C   UNL     1      -6.040   6.302  -0.230  0.00  0.00    +0.164 C 
ATOM     22  O   UNL     1      -5.608   5.168  -0.135  0.00  0.00    -0.292 OA
BRANCH  21  24
ATOM     23  C   UNL     1      -8.260   5.197  -0.234  0.00  0.00    +0.019 C 
ATOM     24  C   UNL     1      -7.527   6.538  -0.300  0.00  0.00    +0.025 C 
ATOM     25  C   UNL     1      -7.960   7.415   0.876  0.00  0.00    +0.019 C 
ATOM     26  C   UNL     1      -7.870   7.242  -1.615  0.00  0.00    +0.019 C 
ENDBRANCH  21  24
ENDBRANCH   1  21
TORSDOF 5
