REMARK  Name = ZINC21903042
REMARK  9 active torsions:
REMARK  status: ('A' for Active; 'I' for Inactive)
REMARK    1  A    between atoms: C_1  and  N_2
REMARK    2  A    between atoms: N_2  and  C_3
REMARK    3  A    between atoms: N_2  and  C_4
REMARK    4  A    between atoms: C_4  and  C_6
REMARK    5  A    between atoms: C_4  and  C_27
REMARK    6  A    between atoms: C_6  and  N_7
REMARK    7  A    between atoms: C_8  and  C_10
REMARK    8  A    between atoms: N_13  and  S_16
REMARK    9  A    between atoms: S_16  and  C_19
REMARK                            x       y       z     vdW  Elec       q    Type
REMARK                         _______ _______ _______ _____ _____    ______ ____
ROOT
ATOM      1  C   UNL     1      -4.882   1.355   5.532  0.00  0.00    +0.077 C 
ATOM      2  C   UNL     1      -5.428   2.773   5.349  0.00  0.00    +0.030 C 
ATOM      3  C   UNL     1      -4.275   3.720   5.001  0.00  0.00    +0.110 C 
ATOM      4  N   UNL     1      -3.565   3.190   3.829  0.00  0.00    -0.176 NA
ATOM      5  C   UNL     1      -3.082   1.803   3.863  0.00  0.00    +0.110 C 
ATOM      6  C   UNL     1      -4.243   0.880   4.225  0.00  0.00    +0.030 C 
ENDROOT
BRANCH   1   8
ATOM      7  N   UNL     1      -5.762  -0.880   6.121  0.00  0.00    -0.316 N 
ATOM      8  C   UNL     1      -6.008   0.427   5.907  0.00  0.00    +0.216 C 
ATOM      9  O   UNL     1      -7.137   0.857   6.017  0.00  0.00    -0.276 OA
ATOM     10  H   UNL     1      -4.738  -1.270   6.021  0.00  0.00    +0.149 HD
BRANCH   7  11
ATOM     11  C   UNL     1      -6.857  -1.782   6.486  0.00  0.00    +0.096 C 
BRANCH  11  12
ATOM     12  C   UNL     1      -6.311  -3.200   6.670  0.00  0.00    +0.016 C 
BRANCH  12  13
ATOM     13  C   UNL     1      -7.412  -4.102   7.163  0.00  0.00    +0.093 A 
ATOM     14  C   UNL     1      -8.014  -5.071   6.450  0.00  0.00    +0.043 A 
ATOM     15  C   UNL     1      -8.978  -5.664   7.298  0.00  0.00    +0.041 A 
ATOM     16  C   UNL     1      -8.912  -5.018   8.475  0.00  0.00    +0.195 A 
ATOM     17  O   UNL     1      -7.961  -4.073   8.388  0.00  0.00    -0.469 OA
ENDBRANCH  12  13
BRANCH  12  19
ATOM     18  C   UNL     1      -5.681  -2.665   8.945  0.00  0.00    -0.096 C 
ATOM     19  N   UNL     1      -5.217  -3.180   7.650  0.00  0.00    +0.384 N 
ATOM     20  C   UNL     1      -4.617  -4.513   7.797  0.00  0.00    -0.096 C 
ATOM     21  H   UNL     1      -4.439  -2.499   7.275  0.00  0.00    -0.082 HD
ENDBRANCH  12  19
ENDBRANCH  11  12
ENDBRANCH   7  11
ENDBRANCH   1   8
BRANCH   4  22
ATOM     22  S   UNL     1      -3.321   4.136   2.492  0.00  0.00    +0.064 S 
ATOM     23  O   UNL     1      -4.330   5.137   2.513  0.00  0.00    -0.153 OA
ATOM     24  O   UNL     1      -3.149   3.251   1.394  0.00  0.00    -0.153 OA
BRANCH  22  25
ATOM     25  C   UNL     1      -1.784   4.967   2.715  0.00  0.00    +0.142 A 
ATOM     26  C   UNL     1      -1.747   6.198   3.345  0.00  0.00    +0.069 A 
ATOM     27  C   UNL     1      -0.540   6.852   3.515  0.00  0.00    +0.022 A 
ATOM     28  C   UNL     1       0.630   6.274   3.060  0.00  0.00    +0.003 A 
ATOM     29  C   UNL     1       0.595   5.041   2.435  0.00  0.00    +0.022 A 
ATOM     30  C   UNL     1      -0.612   4.386   2.265  0.00  0.00    +0.069 A 
ATOM     31 CL   UNL     1      -0.656   2.839   1.479  0.00  0.00    -0.081 Cl
ATOM     32 CL   UNL     1      -3.217   6.925   3.917  0.00  0.00    -0.081 Cl
ENDBRANCH  22  25
ENDBRANCH   4  22
TORSDOF 7
