REMARK  Name = ZINC64622289
REMARK  3 active torsions:
REMARK  status: ('A' for Active; 'I' for Inactive)
REMARK    1  A    between atoms: C_8  and  C_30
REMARK    2  A    between atoms: C_16  and  C_18
REMARK    3  A    between atoms: C_22  and  N_24
REMARK                            x       y       z     vdW  Elec       q    Type
REMARK                         _______ _______ _______ _____ _____    ______ ____
ROOT
ATOM      1  C   UNL     1       1.877   1.514   1.894  0.00  0.00    +0.001 A 
ATOM      2  C   UNL     1       2.720   2.238   1.040  0.00  0.00    +0.002 A 
ATOM      3  C   UNL     1       3.622   1.643   0.232  0.00  0.00    +0.026 A 
ATOM      4  C   UNL     1       3.753   0.228   0.215  0.00  0.00    +0.043 A 
ATOM      5  N   UNL     1       4.527  -0.570  -0.485  0.00  0.00    -0.376 N 
ATOM      6  C   UNL     1       4.299  -1.944  -0.044  0.00  0.00    +0.127 C 
ATOM      7  C   UNL     1       3.871  -2.853  -1.202  0.00  0.00    +0.106 C 
ATOM      8  N   UNL     1       3.282  -4.071  -0.625  0.00  0.00    -0.292 N 
ATOM      9  C   UNL     1       2.105  -3.992   0.246  0.00  0.00    +0.113 C 
ATOM     10  C   UNL     1       2.425  -3.093   1.454  0.00  0.00    +0.052 C 
ATOM     11  C   UNL     1       3.138  -1.866   0.933  0.00  0.00    -0.035 C 
ATOM     12  C   UNL     1       2.867  -0.564   1.105  0.00  0.00    -0.001 A 
ATOM     13  C   UNL     1       1.916   0.164   1.955  0.00  0.00    +0.010 A 
ATOM     14  C   UNL     1       3.830  -5.272  -0.900  0.00  0.00    +0.247 C 
ATOM     15  O   UNL     1       4.873  -5.336  -1.521  0.00  0.00    -0.270 OA
ATOM     16  H   UNL     1       5.146  -0.293  -1.179  0.00  0.00    +0.160 HD
ENDROOT
BRANCH  14  17
ATOM     17  C   UNL     1       3.162  -6.511  -0.447  0.00  0.00    +0.039 A 
ATOM     18  C   UNL     1       1.771  -6.617  -0.505  0.00  0.00    +0.013 A 
ATOM     19  C   UNL     1       1.150  -7.774  -0.082  0.00  0.00    +0.003 A 
ATOM     20  C   UNL     1       1.900  -8.831   0.400  0.00  0.00    +0.023 A 
ATOM     21  C   UNL     1       3.285  -8.734   0.462  0.00  0.00    +0.039 A 
ATOM     22  C   UNL     1       3.919  -7.578   0.034  0.00  0.00    +0.036 A 
BRANCH  21  23
ATOM     23  N   UNL     1       4.040  -9.807   0.951  0.00  0.00    -0.254 N 
ATOM     24  C   UNL     1       3.508 -11.130   1.309  0.00  0.00    +0.134 C 
ATOM     25  C   UNL     1       4.750 -11.911   1.782  0.00  0.00    +0.125 C 
ATOM     26  N   UNL     1       5.849 -10.945   1.640  0.00  0.00    -0.297 N 
ATOM     27  C   UNL     1       5.363  -9.792   1.162  0.00  0.00    +0.307 C 
ATOM     28  O   UNL     1       6.058  -8.819   0.944  0.00  0.00    -0.252 OA
ATOM     29  H   UNL     1       6.780 -11.117   1.854  0.00  0.00    +0.150 HD
ENDBRANCH  21  23
ENDBRANCH  14  17
BRANCH   7  30
ATOM     30  C   UNL     1       5.089  -3.217  -2.052  0.00  0.00    +0.012 C 
ATOM     31  C   UNL     1       5.887  -1.950  -2.369  0.00  0.00    +0.005 C 
ATOM     32  C   UNL     1       7.106  -2.314  -3.219  0.00  0.00    +0.000 C 
ATOM     33  C   UNL     1       6.641  -2.964  -4.524  0.00  0.00    +0.000 C 
ATOM     34  C   UNL     1       5.843  -4.230  -4.208  0.00  0.00    +0.000 C 
ATOM     35  C   UNL     1       4.625  -3.866  -3.357  0.00  0.00    +0.005 C 
ENDBRANCH   7  30
TORSDOF 3
