REMARK  Name = ZINC39666241
REMARK  9 active torsions:
REMARK  status: ('A' for Active; 'I' for Inactive)
REMARK    1  A    between atoms: C_1  and  C_2
REMARK    2  A    between atoms: C_5  and  O_8
REMARK    3  A    between atoms: O_8  and  C_9
REMARK    4  A    between atoms: C_9  and  C_11
REMARK    5  A    between atoms: C_9  and  C_12
REMARK    6  A    between atoms: C_12  and  N_13
REMARK    7  A    between atoms: C_14  and  C_16
REMARK    8  A    between atoms: C_27  and  C_29
REMARK    9  A    between atoms: C_32  and  C_34
REMARK                            x       y       z     vdW  Elec       q    Type
REMARK                         _______ _______ _______ _____ _____    ______ ____
ROOT
ATOM      1  C   UNL     1      -4.028  -6.702   0.465  0.00  0.00    +0.100 C 
ATOM      2  C   UNL     1      -4.659  -5.803   1.552  0.00  0.00    +0.121 C 
ATOM      3  N   UNL     1      -6.045  -6.307   1.696  0.00  0.00    -0.294 N 
ATOM      4  C   UNL     1      -5.914  -7.780   1.595  0.00  0.00    +0.115 C 
ATOM      5  C   UNL     1      -4.854  -7.999   0.497  0.00  0.00    -0.004 C 
ATOM      6  C   UNL     1      -5.530  -8.228  -0.852  0.00  0.00    -0.010 C 
ATOM      7  C   UNL     1      -6.299  -9.551  -0.813  0.00  0.00    -0.082 C 
ATOM      8  N   UNL     1      -5.372 -10.650  -0.516  0.00  0.00    +0.379 N 
ATOM      9  C   UNL     1      -4.795 -10.470   0.822  0.00  0.00    -0.082 C 
ATOM     10  C   UNL     1      -3.963  -9.185   0.853  0.00  0.00    -0.010 C 
ATOM     11  C   UNL     1      -7.170  -5.588   1.879  0.00  0.00    +0.282 C 
ATOM     12  O   UNL     1      -8.243  -6.154   1.982  0.00  0.00    -0.267 OA
ATOM     13  H   UNL     1      -5.869 -11.527  -0.551  0.00  0.00    -0.086 HD
ATOM     14  H   UNL     1      -4.631 -10.658  -1.201  0.00  0.00    -0.086 HD
ENDROOT
BRANCH  11  15
ATOM     15  C   UNL     1      -7.102  -4.127   1.955  0.00  0.00    +0.190 A 
ATOM     16  C   UNL     1      -8.169  -3.276   2.143  0.00  0.00    +0.055 A 
ATOM     17  C   UNL     1      -7.652  -1.977   2.151  0.00  0.00    +0.050 A 
ATOM     18  C   UNL     1      -6.303  -2.080   1.968  0.00  0.00    +0.136 A 
ATOM     19  O   UNL     1      -5.982  -3.380   1.857  0.00  0.00    -0.450 OA
BRANCH  18  20
ATOM     20  C   UNL     1      -5.353  -0.951   1.909  0.00  0.00    +0.017 A 
ATOM     21  C   UNL     1      -5.814   0.360   2.050  0.00  0.00    +0.014 A 
ATOM     22  C   UNL     1      -4.922   1.411   1.994  0.00  0.00    +0.039 A 
ATOM     23  C   UNL     1      -3.572   1.168   1.799  0.00  0.00    +0.123 A 
ATOM     24  C   UNL     1      -3.109  -0.131   1.657  0.00  0.00    +0.039 A 
ATOM     25  C   UNL     1      -3.991  -1.190   1.717  0.00  0.00    +0.014 A 
ATOM     26  F   UNL     1      -2.703   2.201   1.745  0.00  0.00    -0.205 F 
ENDBRANCH  18  20
ENDBRANCH  11  15
BRANCH   1  28
ATOM     27  N   UNL     1      -1.708  -7.251  -0.194  0.00  0.00    -0.312 N 
ATOM     28  C   UNL     1      -2.586  -6.990   0.794  0.00  0.00    +0.218 C 
ATOM     29  O   UNL     1      -2.216  -6.988   1.950  0.00  0.00    -0.275 OA
ATOM     30  H   UNL     1      -2.003  -7.253  -1.118  0.00  0.00    +0.149 HD
BRANCH  27  31
ATOM     31  C   UNL     1      -0.306  -7.531   0.126  0.00  0.00    +0.148 C 
BRANCH  31  32
ATOM     32  C   UNL     1       0.471  -7.791  -1.166  0.00  0.00    +0.187 C 
ATOM     33  C   UNL     1       1.935  -8.084  -0.832  0.00  0.00    +0.053 C 
BRANCH  32  34
ATOM     34  O   UNL     1      -0.096  -8.913  -1.845  0.00  0.00    -0.488 OA
BRANCH  34  39
ATOM     35  C   UNL     1       0.716  -9.212  -7.411  0.00  0.00    +0.044 C 
ATOM     36  C   UNL     1       0.499  -9.133  -5.921  0.00  0.00    -0.050 A 
ATOM     37  C   UNL     1      -0.319 -10.054  -5.293  0.00  0.00    +0.007 A 
ATOM     38  C   UNL     1      -0.519  -9.982  -3.928  0.00  0.00    +0.046 A 
ATOM     39  C   UNL     1       0.100  -8.986  -3.188  0.00  0.00    +0.121 A 
ATOM     40  C   UNL     1       0.920  -8.063  -3.821  0.00  0.00    +0.046 A 
ATOM     41  C   UNL     1       1.122  -8.142  -5.185  0.00  0.00    +0.007 A 
ENDBRANCH  34  39
ENDBRANCH  32  34
ENDBRANCH  31  32
ENDBRANCH  27  31
ENDBRANCH   1  28
TORSDOF 7
