REMARK  Name = ZINC21038249
REMARK  7 active torsions:
REMARK  status: ('A' for Active; 'I' for Inactive)
REMARK    1  A    between atoms: C_4  and  C_7
REMARK    2  A    between atoms: C_10  and  C_12
REMARK    3  A    between atoms: C_12  and  C_14
REMARK    4  A    between atoms: C_12  and  N_21
REMARK    5  A    between atoms: N_21  and  S_22
REMARK    6  A    between atoms: S_22  and  C_25
REMARK    7  A    between atoms: C_28  and  C_31
REMARK                            x       y       z     vdW  Elec       q    Type
REMARK                         _______ _______ _______ _____ _____    ______ ____
ROOT
ATOM      1  C   UNL     1       2.453   3.935  -0.001  0.00  0.00    +0.196 C 
ENDROOT
BRANCH   1   2
ATOM      2  C   UNL     1       1.158   3.165   0.007  0.00  0.00    +0.015 A 
ATOM      3  C   UNL     1       1.175   1.783   0.000  0.00  0.00    +0.008 A 
ATOM      4  C   UNL     1      -0.013   1.076   0.008  0.00  0.00    +0.001 A 
ATOM      5  C   UNL     1      -1.220   1.750   0.017  0.00  0.00    +0.003 A 
ATOM      6  C   UNL     1      -1.240   3.132   0.031  0.00  0.00    +0.039 A 
ATOM      7  C   UNL     1      -0.050   3.841   0.023  0.00  0.00    +0.129 A 
ATOM      8  F   UNL     1      -0.068   5.192   0.029  0.00  0.00    -0.205 F 
ENDBRANCH   1   2
BRANCH   1  12
ATOM      9  C   UNL     1       2.978   5.644  -3.152  0.00  0.00    +0.248 A 
ATOM     10  N   UNL     1       3.316   4.409  -3.438  0.00  0.00    -0.107 NA
ATOM     11  N   UNL     1       3.181   3.678  -2.387  0.00  0.00    -0.110 NA
ATOM     12  C   UNL     1       2.745   4.411  -1.400  0.00  0.00    +0.241 A 
ATOM     13  O   UNL     1       2.611   5.668  -1.855  0.00  0.00    -0.418 OA
BRANCH   9  17
ATOM     14  C   UNL     1       3.036   8.952  -5.816  0.00  0.00    +0.000 A 
ATOM     15  C   UNL     1       3.422   7.701  -6.263  0.00  0.00    +0.001 A 
ATOM     16  C   UNL     1       3.405   6.622  -5.403  0.00  0.00    +0.013 A 
ATOM     17  C   UNL     1       2.999   6.796  -4.079  0.00  0.00    +0.038 A 
ATOM     18  C   UNL     1       2.606   8.059  -3.636  0.00  0.00    +0.013 A 
ATOM     19  C   UNL     1       2.632   9.131  -4.505  0.00  0.00    +0.001 A 
ENDBRANCH   9  17
ENDBRANCH   1  12
BRANCH   1  20
ATOM     20  N   UNL     1       3.541   3.067   0.457  0.00  0.00    -0.173 NA
ATOM     21  H   UNL     1       3.942   2.289  -0.210  0.00  0.00    +0.149 HD
BRANCH  20  22
ATOM     22  S   UNL     1       3.999   3.083   2.048  0.00  0.00    +0.059 S 
ATOM     23  O   UNL     1       5.043   2.128   2.180  0.00  0.00    -0.153 OA
ATOM     24  O   UNL     1       4.165   4.447   2.409  0.00  0.00    -0.153 OA
BRANCH  22  25
ATOM     25  C   UNL     1       2.639   2.475   2.989  0.00  0.00    +0.105 A 
ATOM     26  C   UNL     1       1.686   3.352   3.473  0.00  0.00    +0.029 A 
ATOM     27  C   UNL     1       0.616   2.875   4.206  0.00  0.00    +0.006 A 
ATOM     28  C   UNL     1       0.505   1.522   4.465  0.00  0.00    -0.044 A 
ATOM     29  C   UNL     1       1.460   0.645   3.986  0.00  0.00    +0.006 A 
ATOM     30  C   UNL     1       2.527   1.122   3.248  0.00  0.00    +0.029 A 
BRANCH  28  31
ATOM     31  C   UNL     1      -0.659   1.002   5.270  0.00  0.00    +0.019 C 
ATOM     32  C   UNL     1      -1.967   1.351   4.559  0.00  0.00    +0.008 C 
ATOM     33  C   UNL     1      -3.148   0.824   5.376  0.00  0.00    +0.001 C 
ATOM     34  C   UNL     1      -3.135   1.466   6.765  0.00  0.00    +0.000 C 
ATOM     35  C   UNL     1      -1.826   1.116   7.476  0.00  0.00    +0.001 C 
ATOM     36  C   UNL     1      -0.645   1.644   6.659  0.00  0.00    +0.008 C 
ENDBRANCH  28  31
ENDBRANCH  22  25
ENDBRANCH  20  22
ENDBRANCH   1  20
TORSDOF 7
