REMARK  Name = ZINC04973080
REMARK  5 active torsions:
REMARK  status: ('A' for Active; 'I' for Inactive)
REMARK    1  A    between atoms: C_1  and  C_2
REMARK    2  A    between atoms: C_3  and  C_16
REMARK    3  A    between atoms: C_7  and  N_10
REMARK    4  A    between atoms: C_11  and  O_13
REMARK    5  A    between atoms: O_13  and  C_14
REMARK                            x       y       z     vdW  Elec       q    Type
REMARK                         _______ _______ _______ _____ _____    ______ ____
ROOT
ATOM      1  C   UNL     1      -1.742   3.579  -2.355  0.00  0.00    +0.039 C 
ATOM      2  C   UNL     1      -1.193   2.948  -1.102  0.00  0.00    -0.072 C 
ATOM      3  C   UNL     1      -1.168   3.663  -0.023  0.00  0.00    -0.073 C 
ATOM      4  C   UNL     1      -0.641   3.178   1.296  0.00  0.00    +0.046 C 
ATOM      5  C   UNL     1      -0.543   1.651   1.298  0.00  0.00    +0.077 C 
ATOM      6  C   UNL     1       0.182   1.209   0.021  0.00  0.00    +0.093 C 
ATOM      7  C   UNL     1      -0.707   1.530  -1.182  0.00  0.00    +0.053 C 
ATOM      8  I   UNL     1       0.569   0.992   3.031  0.00  0.00    -0.079 I 
ATOM      9  C   UNL     1      -1.702   5.070  -0.096  0.00  0.00    +0.039 C 
ENDROOT
BRANCH   6  10
ATOM     10  N   UNL     1       1.452   1.930  -0.099  0.00  0.00    -0.277 N 
ATOM     11  C   UNL     1       2.464   1.398  -0.812  0.00  0.00    +0.400 C 
ATOM     12  O   UNL     1       2.323   0.321  -1.357  0.00  0.00    -0.226 OA
ATOM     13  H   UNL     1       1.565   2.790   0.336  0.00  0.00    +0.152 HD
BRANCH  11  14
ATOM     14  O   UNL     1       3.631   2.060  -0.922  0.00  0.00    -0.454 OA
ATOM     15  C   UNL     1       4.677   1.428  -1.706  0.00  0.00    +0.282 C 
ENDBRANCH  11  14
ENDBRANCH   6  10
TORSDOF 2
