REMARK  Name = ZINC11898390
REMARK  7 active torsions:
REMARK  status: ('A' for Active; 'I' for Inactive)
REMARK    1  A    between atoms: C_1  and  N_2
REMARK    2  A    between atoms: C_6  and  C_7
REMARK    3  A    between atoms: C_7  and  C_9
REMARK    4  A    between atoms: C_7  and  N_59
REMARK    5  A    between atoms: C_9  and  N_10
REMARK    6  A    between atoms: C_11  and  C_13
REMARK    7  A    between atoms: N_15  and  C_16
REMARK                            x       y       z     vdW  Elec       q    Type
REMARK                         _______ _______ _______ _____ _____    ______ ____
ROOT
ATOM      1  C   UNL     1      -4.647  -4.648  -0.406  0.00  0.00    -0.003 C 
ENDROOT
BRANCH   1  11
ATOM      2  C   UNL     1      -2.365  -5.210  -0.999  0.00  0.00    -0.073 C 
ATOM      3  C   UNL     1      -1.563  -6.103  -1.946  0.00  0.00    +0.017 C 
ATOM      4  C   UNL     1      -1.828  -5.707  -3.376  0.00  0.00    -0.048 A 
ATOM      5  C   UNL     1      -0.951  -6.144  -4.357  0.00  0.00    +0.004 A 
ATOM      6  C   UNL     1      -1.160  -5.808  -5.679  0.00  0.00    +0.000 A 
ATOM      7  C   UNL     1      -2.249  -5.030  -6.027  0.00  0.00    +0.000 A 
ATOM      8  C   UNL     1      -3.121  -4.593  -5.052  0.00  0.00    +0.002 A 
ATOM      9  C   UNL     1      -2.913  -4.930  -3.722  0.00  0.00    -0.061 A 
ATOM     10  C   UNL     1      -3.890  -4.426  -2.693  0.00  0.00    -0.042 C 
ATOM     11  N   UNL     1      -3.770  -5.215  -1.456  0.00  0.00    +0.389 N 
ATOM     12  H   UNL     1      -4.057  -6.182  -1.645  0.00  0.00    -0.080 HD
ENDBRANCH   1  11
BRANCH   1  18
ATOM     13  C   UNL     1      -7.151  -3.794   1.211  0.00  0.00    +0.148 C 
ATOM     14  N   UNL     1      -7.176  -4.551  -0.043  0.00  0.00    -0.355 N 
ATOM     15  C   UNL     1      -8.297  -4.990  -0.683  0.00  0.00    +0.085 A 
ATOM     16  C   UNL     1      -7.916  -5.645  -1.799  0.00  0.00    +0.019 A 
ATOM     17  C   UNL     1      -6.509  -5.603  -1.853  0.00  0.00    +0.021 A 
ATOM     18  C   UNL     1      -6.083  -4.933  -0.763  0.00  0.00    +0.006 A 
ENDBRANCH   1  18
BRANCH   1  19
ATOM     19  C   UNL     1      -4.438  -3.136  -0.299  0.00  0.00    +0.095 C 
BRANCH  19  20
ATOM     20  N   UNL     1      -3.076  -2.864   0.167  0.00  0.00    -0.309 N 
ATOM     21  C   UNL     1      -2.618  -1.597   0.207  0.00  0.00    +0.299 C 
ATOM     22  O   UNL     1      -3.334  -0.682  -0.143  0.00  0.00    -0.265 OA
ATOM     23  H   UNL     1      -2.503  -3.595   0.447  0.00  0.00    +0.149 HD
BRANCH  21  24
ATOM     24  C   UNL     1      -1.230  -1.319   0.681  0.00  0.00    +0.303 C 
ATOM     25  O   UNL     1      -0.513  -2.234   1.032  0.00  0.00    -0.265 OA
ATOM     26  N   UNL     1      -0.772  -0.052   0.721  0.00  0.00    -0.278 N 
ATOM     27  H   UNL     1      -1.370   0.686   0.525  0.00  0.00    +0.155 HD
BRANCH  26  28
ATOM     28  C   UNL     1       0.565   0.199   1.045  0.00  0.00    +0.038 A 
ATOM     29  C   UNL     1       1.558  -0.674   0.620  0.00  0.00    +0.027 A 
ATOM     30  C   UNL     1       2.880  -0.424   0.935  0.00  0.00    +0.051 A 
ATOM     31  C   UNL     1       3.218   0.694   1.679  0.00  0.00    +0.166 A 
ATOM     32  C   UNL     1       2.224   1.569   2.112  0.00  0.00    +0.168 A 
ATOM     33  C   UNL     1       0.899   1.318   1.797  0.00  0.00    +0.072 A 
ATOM     34  O   UNL     1       2.809   2.580   2.818  0.00  0.00    -0.453 OA
ATOM     35  C   UNL     1       4.205   2.537   2.467  0.00  0.00    +0.466 C 
ATOM     36  O   UNL     1       4.427   1.159   2.115  0.00  0.00    -0.453 OA
ENDBRANCH  26  28
ENDBRANCH  21  24
ENDBRANCH  19  20
ENDBRANCH   1  19
TORSDOF 6
