REMARK  Name = ZINC51546427
REMARK  6 active torsions:
REMARK  status: ('A' for Active; 'I' for Inactive)
REMARK    1  A    between atoms: C_1  and  C_2
REMARK    2  A    between atoms: C_2  and  C_20
REMARK    3  A    between atoms: C_8  and  O_11
REMARK    4  A    between atoms: O_11  and  C_12
REMARK    5  A    between atoms: C_16  and  C_18
REMARK    6  A    between atoms: C_18  and  N_19
REMARK                            x       y       z     vdW  Elec       q    Type
REMARK                         _______ _______ _______ _____ _____    ______ ____
ROOT
ATOM      1  O   UNL     1       3.016  -0.739   2.983  0.00  0.00    -0.434 OA
ENDROOT
BRANCH   1   9
ATOM      2  C   UNL     1       0.314   1.679  -0.184  0.00  0.00    +0.056 C 
ATOM      3  C   UNL     1       0.239   0.150  -0.181  0.00  0.00    +0.109 C 
ATOM      4  C   UNL     1       1.105  -0.443  -1.317  0.00  0.00    +0.086 C 
ATOM      5  C   UNL     1       2.424  -0.691  -0.611  0.00  0.00    +0.002 A 
ATOM      6  C   UNL     1       3.693  -0.944  -1.084  0.00  0.00    +0.007 A 
ATOM      7  C   UNL     1       4.740  -1.129  -0.199  0.00  0.00    +0.004 A 
ATOM      8  C   UNL     1       4.508  -1.059   1.163  0.00  0.00    +0.050 A 
ATOM      9  C   UNL     1       3.235  -0.807   1.642  0.00  0.00    +0.172 A 
ATOM     10  C   UNL     1       2.174  -0.624   0.752  0.00  0.00    +0.167 A 
ATOM     11  O   UNL     1       0.856  -0.388   1.002  0.00  0.00    -0.482 OA
ATOM     12  C   UNL     1      -1.212  -0.320  -0.297  0.00  0.00    +0.056 C 
ENDBRANCH   1   9
BRANCH   1  13
ATOM     13  C   UNL     1       2.599  -1.863   3.618  0.00  0.00    +0.221 A 
ATOM     14  C   UNL     1       2.337  -1.826   4.982  0.00  0.00    +0.067 A 
ATOM     15  C   UNL     1       1.912  -2.979   5.617  0.00  0.00    +0.007 A 
ATOM     16  C   UNL     1       1.762  -4.135   4.862  0.00  0.00    +0.021 A 
ATOM     17  C   UNL     1       2.040  -4.099   3.510  0.00  0.00    +0.028 A 
ATOM     18  N   UNL     1       2.439  -2.982   2.931  0.00  0.00    -0.220 NA
BRANCH  17  19
ATOM     19  C   UNL     1       1.880  -5.349   2.685  0.00  0.00    -0.030 C 
BRANCH  19  20
ATOM     20  N   UNL     1       0.552  -5.355   2.058  0.00  0.00    +0.382 N 
ATOM     21  H   UNL     1      -0.158  -5.332   2.774  0.00  0.00    -0.090 HD
ATOM     22  H   UNL     1       0.457  -4.545   1.463  0.00  0.00    -0.090 HD
ATOM     23  H   UNL     1       0.445  -6.193   1.505  0.00  0.00    -0.090 HD
ENDBRANCH  19  20
ENDBRANCH  17  19
ENDBRANCH   1  13
TORSDOF 4
