REMARK  Name = ZINC35955432
REMARK  7 active torsions:
REMARK  status: ('A' for Active; 'I' for Inactive)
REMARK    1  A    between atoms: C_4  and  S_7
REMARK    2  A    between atoms: S_7  and  N_10
REMARK    3  A    between atoms: N_10  and  C_11
REMARK    4  A    between atoms: N_10  and  C_19
REMARK    5  A    between atoms: C_11  and  C_12
REMARK    6  A    between atoms: C_25  and  N_27
REMARK    7  A    between atoms: C_28  and  C_30
REMARK                            x       y       z     vdW  Elec       q    Type
REMARK                         _______ _______ _______ _____ _____    ______ ____
ROOT
ATOM      1  N   UNL     1       3.891  -1.585   2.377  0.00  0.00    -0.167 NA
ENDROOT
BRANCH   1   2
ATOM      2  C   UNL     1       4.880  -0.524   2.584  0.00  0.00    +0.100 C 
ATOM      3  C   UNL     1       6.184  -1.136   3.100  0.00  0.00    +0.022 C 
ATOM      4  C   UNL     1       5.921  -1.854   4.426  0.00  0.00    +0.002 C 
ATOM      5  C   UNL     1       5.387  -0.852   5.451  0.00  0.00    +0.002 C 
ATOM      6  C   UNL     1       4.083  -0.240   4.935  0.00  0.00    +0.024 C 
ATOM      7  C   UNL     1       4.346   0.478   3.610  0.00  0.00    +0.092 C 
BRANCH   7   8
ATOM      8  N   UNL     1       3.097   1.064   3.116  0.00  0.00    -0.311 N 
ATOM      9  C   UNL     1       2.524   2.087   3.780  0.00  0.00    +0.215 C 
ATOM     10  O   UNL     1       3.087   2.583   4.733  0.00  0.00    -0.276 OA
ATOM     11  H   UNL     1       2.683   0.716   2.311  0.00  0.00    +0.149 HD
BRANCH   9  12
ATOM     12  C   UNL     1       1.183   2.614   3.339  0.00  0.00    +0.058 C 
ATOM     13  C   UNL     1       1.259   3.040   1.870  0.00  0.00    +0.009 C 
ATOM     14  C   UNL     1      -0.085   3.647   1.455  0.00  0.00    -0.018 C 
ATOM     15  C   UNL     1      -0.418   4.817   2.382  0.00  0.00    -0.083 C 
ATOM     16  N   UNL     1      -0.503   4.341   3.767  0.00  0.00    +0.380 N 
ATOM     17  C   UNL     1       0.802   3.823   4.197  0.00  0.00    -0.070 C 
ATOM     18  H   UNL     1      -0.775   5.104   4.369  0.00  0.00    -0.086 HD
ATOM     19  H   UNL     1      -1.191   3.606   3.828  0.00  0.00    -0.086 HD
ENDBRANCH   9  12
ENDBRANCH   7   8
ENDBRANCH   1   2
BRANCH   1  20
ATOM     20  S   UNL     1       2.274  -1.232   2.439  0.00  0.00    +0.061 S 
ATOM     21  O   UNL     1       1.889  -0.857   1.124  0.00  0.00    -0.153 OA
ATOM     22  O   UNL     1       2.086  -0.380   3.560  0.00  0.00    -0.153 OA
BRANCH  20  26
ATOM     23  C   UNL     1       0.098  -5.090   3.373  0.00  0.00    +0.000 A 
ATOM     24  C   UNL     1       1.422  -4.938   3.740  0.00  0.00    +0.002 A 
ATOM     25  C   UNL     1       2.086  -3.760   3.454  0.00  0.00    +0.028 A 
ATOM     26  C   UNL     1       1.427  -2.735   2.802  0.00  0.00    +0.105 A 
ATOM     27  C   UNL     1       0.103  -2.888   2.434  0.00  0.00    +0.028 A 
ATOM     28  C   UNL     1      -0.562  -4.065   2.721  0.00  0.00    +0.002 A 
ENDBRANCH  20  26
ENDBRANCH   1  20
BRANCH   1  29
ATOM     29  C   UNL     1       4.332  -2.957   2.115  0.00  0.00    +0.145 C 
BRANCH  29  30
ATOM     30  C   UNL     1       4.818  -3.066   0.693  0.00  0.00    -0.032 A 
ATOM     31  C   UNL     1       3.913  -3.269  -0.332  0.00  0.00    +0.006 A 
ATOM     32  C   UNL     1       4.358  -3.369  -1.637  0.00  0.00    +0.020 A 
ATOM     33  C   UNL     1       5.709  -3.265  -1.917  0.00  0.00    +0.041 A 
ATOM     34  C   UNL     1       6.614  -3.061  -0.890  0.00  0.00    +0.020 A 
ATOM     35  C   UNL     1       6.167  -2.956   0.413  0.00  0.00    +0.006 A 
ATOM     36 CL   UNL     1       6.269  -3.391  -3.555  0.00  0.00    -0.084 Cl
ENDBRANCH  29  30
ENDBRANCH   1  29
TORSDOF 7
