REMARK  Name = ZINC38685780
REMARK  14 active torsions:
REMARK  status: ('A' for Active; 'I' for Inactive)
REMARK    1  A    between atoms: C_1  and  C_2
REMARK    2  A    between atoms: C_2  and  O_3
REMARK    3  A    between atoms: O_3  and  C_4
REMARK    4  A    between atoms: C_7  and  C_10
REMARK    5  A    between atoms: C_15  and  O_24
REMARK    6  A    between atoms: C_19  and  N_23
REMARK    7  A    between atoms: C_20  and  C_21
REMARK    8  A    between atoms: O_24  and  C_25
REMARK    9  A    between atoms: C_25  and  C_27
REMARK   10  A    between atoms: C_28  and  C_29
REMARK   11  A    between atoms: C_32  and  C_35
REMARK   12  A    between atoms: C_35  and  C_36
REMARK   13  A    between atoms: C_35  and  C_37
REMARK   14  A    between atoms: C_35  and  C_38
REMARK                            x       y       z     vdW  Elec       q    Type
REMARK                         _______ _______ _______ _____ _____    ______ ____
ROOT
ATOM      1  C   UNL     1       1.091  -6.025   1.747  0.00  0.00    +0.098 C 
ATOM      2  C   UNL     1       0.430  -6.454   3.030  0.00  0.00    +0.008 A 
ATOM      3  C   UNL     1      -0.951  -6.436   3.124  0.00  0.00    +0.012 A 
ATOM      4  C   UNL     1      -1.574  -6.826   4.292  0.00  0.00    +0.047 A 
ATOM      5  C   UNL     1      -0.816  -7.239   5.379  0.00  0.00    +0.135 A 
ATOM      6  C   UNL     1       0.567  -7.259   5.288  0.00  0.00    +0.093 A 
ATOM      7  C   UNL     1       1.192  -6.866   4.112  0.00  0.00    +0.138 A 
ATOM      8  O   UNL     1       2.546  -6.891   4.040  0.00  0.00    -0.441 OA
ATOM      9  C   UNL     1       3.153  -6.897   2.841  0.00  0.00    +0.199 C 
ATOM     10  C   UNL     1       2.517  -6.498   1.718  0.00  0.00    +0.098 C 
ENDROOT
BRANCH   1  14
ATOM     11  C   UNL     1       1.007  -1.761   1.470  0.00  0.00    +0.121 A 
ATOM     12  C   UNL     1       0.382  -2.533   0.501  0.00  0.00    +0.046 A 
ATOM     13  C   UNL     1       0.411  -3.911   0.593  0.00  0.00    +0.008 A 
ATOM     14  C   UNL     1       1.062  -4.521   1.649  0.00  0.00    -0.034 A 
ATOM     15  C   UNL     1       1.685  -3.754   2.616  0.00  0.00    +0.008 A 
ATOM     16  C   UNL     1       1.664  -2.376   2.526  0.00  0.00    +0.046 A 
BRANCH  11  17
ATOM     17  O   UNL     1       0.980  -0.406   1.382  0.00  0.00    -0.492 OA
BRANCH  17  19
ATOM     18  C   UNL     1       0.363   1.685   0.338  0.00  0.00    +0.048 C 
ATOM     19  C   UNL     1       0.285   0.159   0.268  0.00  0.00    +0.225 C 
ENDBRANCH  17  19
ENDBRANCH  11  17
ENDBRANCH   1  14
BRANCH   9  20
ATOM     20  N   UNL     1       4.456  -7.319   2.757  0.00  0.00    -0.328 N 
ATOM     21  H   UNL     1       4.925  -7.608   3.555  0.00  0.00    +0.145 HD
ATOM     22  H   UNL     1       4.908  -7.330   1.899  0.00  0.00    +0.145 HD
ENDBRANCH   9  20
BRANCH  10  23
ATOM     23  C   UNL     1       3.221  -6.528   0.471  0.00  0.00    +0.101 C 
ATOM     24  N   UNL     1       3.779  -6.551  -0.518  0.00  0.00    -0.191 NA
ENDBRANCH  10  23
BRANCH   5  25
ATOM     25  O   UNL     1      -1.428  -7.623   6.529  0.00  0.00    -0.423 OA
BRANCH  25  26
ATOM     26  C   UNL     1      -2.129  -8.776   6.520  0.00  0.00    +0.337 C 
ATOM     27  O   UNL     1      -2.112  -9.489   5.535  0.00  0.00    -0.245 OA
BRANCH  26  28
ATOM     28  C   UNL     1      -2.908  -9.168   7.694  0.00  0.00    +0.092 C 
ATOM     29  C   UNL     1      -3.608 -10.321   7.684  0.00  0.00    +0.015 C 
BRANCH  29  30
ATOM     30  C   UNL     1      -4.392 -10.716   8.865  0.00  0.00    -0.025 A 
ATOM     31  C   UNL     1      -4.418  -9.895   9.998  0.00  0.00    +0.008 A 
ATOM     32  C   UNL     1      -5.155 -10.272  11.101  0.00  0.00    +0.005 A 
ATOM     33  C   UNL     1      -5.868 -11.458  11.089  0.00  0.00    -0.042 A 
ATOM     34  C   UNL     1      -5.847 -12.275   9.972  0.00  0.00    +0.005 A 
ATOM     35  C   UNL     1      -5.120 -11.910   8.859  0.00  0.00    +0.008 A 
BRANCH  33  36
ATOM     36  C   UNL     1      -6.670 -11.862  12.299  0.00  0.00    -0.013 C 
ATOM     37  C   UNL     1      -7.728 -10.795  12.589  0.00  0.00    +0.015 C 
ATOM     38  C   UNL     1      -7.358 -13.202  12.030  0.00  0.00    +0.015 C 
ATOM     39  C   UNL     1      -5.740 -11.999  13.506  0.00  0.00    +0.015 C 
ENDBRANCH  33  36
ENDBRANCH  29  30
ENDBRANCH  26  28
ENDBRANCH  25  26
ENDBRANCH   5  25
TORSDOF 10
