REMARK  Name = ZINC10108703
REMARK  12 active torsions:
REMARK  status: ('A' for Active; 'I' for Inactive)
REMARK    1  A    between atoms: C_1  and  C_2
REMARK    2  A    between atoms: C_2  and  C_3
REMARK    3  A    between atoms: C_9  and  C_10
REMARK    4  A    between atoms: C_9  and  N_72
REMARK    5  A    between atoms: C_10  and  C_11
REMARK    6  A    between atoms: C_11  and  N_12
REMARK    7  A    between atoms: C_21  and  C_32
REMARK    8  A    between atoms: N_22  and  C_23
REMARK    9  A    between atoms: C_28  and  O_29
REMARK   10  A    between atoms: O_29  and  C_30
REMARK   11  A    between atoms: C_30  and  C_31
REMARK   12  A    between atoms: N_33  and  C_36
REMARK                            x       y       z     vdW  Elec       q    Type
REMARK                         _______ _______ _______ _____ _____    ______ ____
ROOT
ATOM      1  N   UNL     1       1.875   3.851   0.006  0.00  0.00    -0.259 N 
ATOM      2  C   UNL     1       3.062   3.249  -0.212  0.00  0.00    +0.283 A 
ATOM      3  O   UNL     1       4.071   3.916  -0.364  0.00  0.00    -0.265 OA
ATOM      4  C   UNL     1       3.125   1.847  -0.261  0.00  0.00    +0.157 A 
ATOM      5  C   UNL     1       1.955   1.108  -0.084  0.00  0.00    +0.170 A 
ATOM      6  N   UNL     1       2.278  -0.179  -0.175  0.00  0.00    -0.193 NA
ATOM      7  C   UNL     1       3.579  -0.304  -0.398  0.00  0.00    +0.223 A 
ATOM      8  N   UNL     1       4.142   0.925  -0.459  0.00  0.00    -0.277 N 
ATOM      9  C   UNL     1       5.497   0.768  -0.691  0.00  0.00    +0.116 A 
ATOM     10  C   UNL     1       5.761  -0.533  -0.772  0.00  0.00    +0.041 A 
ATOM     11  N   UNL     1       4.577  -1.225  -0.591  0.00  0.00    -0.279 N 
ATOM     12  C   UNL     1       7.115  -1.147  -1.016  0.00  0.00    +0.065 C 
ATOM     13  N   UNL     1       0.764   1.785   0.130  0.00  0.00    -0.279 N 
ATOM     14  C   UNL     1       0.753   3.130   0.175  0.00  0.00    +0.333 A 
ATOM     15  O   UNL     1      -0.299   3.708   0.370  0.00  0.00    -0.246 OA
ATOM     16  C   UNL     1      -0.481   1.035   0.313  0.00  0.00    +0.155 C 
ENDROOT
BRANCH  11  17
ATOM     17  C   UNL     1       4.424  -2.619  -0.604  0.00  0.00    +0.091 A 
ATOM     18  C   UNL     1       4.149  -3.277  -1.794  0.00  0.00    +0.030 A 
ATOM     19  C   UNL     1       4.000  -4.651  -1.804  0.00  0.00    +0.002 A 
ATOM     20  C   UNL     1       4.124  -5.372  -0.631  0.00  0.00    +0.004 A 
ATOM     21  C   UNL     1       4.398  -4.723   0.558  0.00  0.00    +0.048 A 
ATOM     22  C   UNL     1       4.554  -3.346   0.577  0.00  0.00    +0.144 A 
BRANCH  22  23
ATOM     23  O   UNL     1       4.829  -2.707   1.744  0.00  0.00    -0.490 OA
BRANCH  23  24
ATOM     24  C   UNL     1       4.949  -3.517   2.915  0.00  0.00    +0.226 C 
ATOM     25  C   UNL     1       5.257  -2.628   4.122  0.00  0.00    +0.048 C 
ENDBRANCH  23  24
ENDBRANCH  22  23
ENDBRANCH  11  17
BRANCH   1  26
ATOM     26  C   UNL     1       1.807   5.313   0.059  0.00  0.00    +0.128 C 
BRANCH  26  27
ATOM     27  C   UNL     1       1.543   5.863  -1.345  0.00  0.00    +0.003 C 
BRANCH  27  28
ATOM     28  C   UNL     1       1.472   7.390  -1.289  0.00  0.00    -0.077 C 
BRANCH  28  34
ATOM     29  C   UNL     1       1.044   9.375  -2.607  0.00  0.00    -0.069 C 
ATOM     30  C   UNL     1       0.928   9.906  -4.038  0.00  0.00    -0.015 C 
ATOM     31  C   UNL     1      -0.268   9.243  -4.727  0.00  0.00    -0.003 C 
ATOM     32  C   UNL     1      -0.084   7.723  -4.702  0.00  0.00    -0.019 C 
ATOM     33  C   UNL     1       0.061   7.256  -3.252  0.00  0.00    -0.078 C 
ATOM     34  N   UNL     1       1.243   7.911  -2.653  0.00  0.00    +0.382 N 
ATOM     35  H   UNL     1       2.067   7.705  -3.231  0.00  0.00    -0.081 HD
BRANCH  29  37
ATOM     36  C   UNL     1       2.008  11.523  -1.771  0.00  0.00    +0.002 C 
ATOM     37  C   UNL     1       2.250  10.020  -1.921  0.00  0.00    -0.019 C 
ENDBRANCH  29  37
ENDBRANCH  28  34
ENDBRANCH  27  28
ENDBRANCH  26  27
ENDBRANCH   1  26
TORSDOF 8
