REMARK  Name = ZINC08839509
REMARK  6 active torsions:
REMARK  status: ('A' for Active; 'I' for Inactive)
REMARK    1  A    between atoms: C_4  and  C_7
REMARK    2  A    between atoms: C_7  and  C_8
REMARK    3  A    between atoms: C_7  and  N_14
REMARK    4  A    between atoms: N_17  and  C_18
REMARK    5  A    between atoms: C_18  and  C_19
REMARK    6  A    between atoms: N_22  and  C_26
REMARK                            x       y       z     vdW  Elec       q    Type
REMARK                         _______ _______ _______ _____ _____    ______ ____
ROOT
ATOM      1  N   UNL     1       1.362   1.593  -0.002  0.00  0.00    -0.289 N 
ATOM      2  C   UNL     1       2.331   0.926   0.654  0.00  0.00    +0.300 C 
ATOM      3  O   UNL     1       2.065  -0.097   1.255  0.00  0.00    -0.253 OA
ATOM      4  N   UNL     1       3.596   1.392   0.645  0.00  0.00    -0.296 N 
ATOM      5  H   UNL     1       1.574   2.409  -0.482  0.00  0.00    +0.151 HD
ATOM      6  H   UNL     1       3.808   2.208   0.165  0.00  0.00    +0.150 HD
ENDROOT
BRANCH   1   7
ATOM      7  C   UNL     1      -0.013   1.086   0.008  0.00  0.00    +0.135 C 
BRANCH   7  11
ATOM      8  C   UNL     1      -2.079   2.501  -3.453  0.00  0.00    +0.000 A 
ATOM      9  C   UNL     1      -2.273   1.205  -3.014  0.00  0.00    +0.000 A 
ATOM     10  C   UNL     1      -1.605   0.747  -1.893  0.00  0.00    +0.006 A 
ATOM     11  C   UNL     1      -0.742   1.585  -1.213  0.00  0.00    -0.023 A 
ATOM     12  C   UNL     1      -0.551   2.883  -1.649  0.00  0.00    +0.006 A 
ATOM     13  C   UNL     1      -1.217   3.340  -2.771  0.00  0.00    +0.000 A 
ENDBRANCH   7  11
BRANCH   7  14
ATOM     14  C   UNL     1      -0.718   1.572   1.248  0.00  0.00    -0.023 A 
ATOM     15  C   UNL     1      -0.511   2.861   1.700  0.00  0.00    +0.006 A 
ATOM     16  C   UNL     1      -1.161   3.309   2.835  0.00  0.00    +0.000 A 
ATOM     17  C   UNL     1      -2.012   2.463   3.523  0.00  0.00    +0.000 A 
ATOM     18  C   UNL     1      -2.215   1.172   3.073  0.00  0.00    +0.000 A 
ATOM     19  C   UNL     1      -1.568   0.726   1.936  0.00  0.00    +0.006 A 
ENDBRANCH   7  14
ENDBRANCH   1   7
BRANCH   4  20
ATOM     20  C   UNL     1       4.649   0.667   1.359  0.00  0.00    +0.152 C 
BRANCH  20  21
ATOM     21  C   UNL     1       5.980   1.403   1.189  0.00  0.00    +0.213 C 
ATOM     22  C   UNL     1       7.107   0.660   1.932  0.00  0.00    +0.163 C 
ATOM     23  N   UNL     1       8.050   0.297   0.863  0.00  0.00    -0.234 N 
ATOM     24  C   UNL     1       7.573   0.743  -0.307  0.00  0.00    +0.408 C 
ATOM     25  O   UNL     1       8.152   0.583  -1.363  0.00  0.00    -0.226 OA
ATOM     26  O   UNL     1       6.402   1.381  -0.205  0.00  0.00    -0.444 OA
BRANCH  23  27
ATOM     27  C   UNL     1       9.252  -0.401   1.040  0.00  0.00    +0.040 A 
ATOM     28  C   UNL     1       9.640  -0.806   2.310  0.00  0.00    +0.025 A 
ATOM     29  C   UNL     1      10.823  -1.498   2.481  0.00  0.00    +0.022 A 
ATOM     30  C   UNL     1      11.626  -1.779   1.389  0.00  0.00    +0.041 A 
ATOM     31  C   UNL     1      11.243  -1.372   0.123  0.00  0.00    +0.022 A 
ATOM     32  C   UNL     1      10.059  -0.684  -0.054  0.00  0.00    +0.025 A 
ATOM     33 CL   UNL     1      13.115  -2.644   1.608  0.00  0.00    -0.084 Cl
ENDBRANCH  23  27
ENDBRANCH  20  21
ENDBRANCH   4  20
TORSDOF 6
