REMARK  Name = ZINC44166912
REMARK  7 active torsions:
REMARK  status: ('A' for Active; 'I' for Inactive)
REMARK    1  A    between atoms: C_1  and  C_2
REMARK    2  A    between atoms: C_3  and  C_31
REMARK    3  A    between atoms: C_6  and  C_7
REMARK    4  A    between atoms: C_12  and  C_15
REMARK    5  A    between atoms: N_17  and  C_18
REMARK    6  A    between atoms: C_18  and  C_20
REMARK    7  A    between atoms: C_18  and  C_21
REMARK                            x       y       z     vdW  Elec       q    Type
REMARK                         _______ _______ _______ _____ _____    ______ ____
ROOT
ATOM      1  C   UNL     1       0.298  -0.441   2.516  0.00  0.00    +0.010 C 
ATOM      2  C   UNL     1      -1.018  -0.643   3.276  0.00  0.00    +0.061 C 
ATOM      3  S   UNL     1      -0.792  -0.044   4.979  0.00  0.00    -0.163 S 
ATOM      4  C   UNL     1       0.750  -0.866   5.489  0.00  0.00    +0.062 C 
ATOM      5  C   UNL     1       1.802  -0.631   4.398  0.00  0.00    +0.027 C 
ATOM      6  N   UNL     1       1.357  -1.237   3.141  0.00  0.00    +0.394 N 
ATOM      7  H   UNL     1       1.009  -2.165   3.325  0.00  0.00    -0.084 HD
ATOM      8  H   UNL     1       2.142  -1.298   2.509  0.00  0.00    -0.084 HD
ENDROOT
BRANCH   1  14
ATOM      9  C   UNL     1       0.007   1.444   0.056  0.00  0.00    +0.049 C 
ATOM     10  C   UNL     1      -0.003  -0.063   0.022  0.00  0.00    +0.018 A 
ATOM     11  C   UNL     1      -0.139  -0.868  -1.134  0.00  0.00    +0.116 A 
ATOM     12  N   UNL     1      -0.100  -2.123  -0.756  0.00  0.00    -0.078 NA
ATOM     13  O   UNL     1       0.062  -2.146   0.651  0.00  0.00    -0.360 OA
ATOM     14  C   UNL     1       0.123  -0.878   1.085  0.00  0.00    +0.128 A 
BRANCH  11  15
ATOM     15  C   UNL     1      -0.299  -0.379  -2.526  0.00  0.00    +0.004 A 
ATOM     16  C   UNL     1       0.454   0.703  -2.978  0.00  0.00    +0.010 A 
ATOM     17  C   UNL     1       0.302   1.154  -4.274  0.00  0.00    +0.001 A 
ATOM     18  C   UNL     1      -0.596   0.533  -5.123  0.00  0.00    +0.000 A 
ATOM     19  C   UNL     1      -1.346  -0.541  -4.680  0.00  0.00    +0.001 A 
ATOM     20  C   UNL     1      -1.197  -1.004  -3.388  0.00  0.00    +0.010 A 
ENDBRANCH  11  15
ENDBRANCH   1  14
BRANCH   5  21
ATOM     21  C   UNL     1       3.107  -1.257   4.819  0.00  0.00    +0.200 C 
ATOM     22  O   UNL     1       3.611  -2.125   4.138  0.00  0.00    -0.278 OA
ATOM     23  N   UNL     1       3.715  -0.851   5.952  0.00  0.00    -0.310 N 
ATOM     24  H   UNL     1       3.312  -0.157   6.496  0.00  0.00    +0.149 HD
BRANCH  23  25
ATOM     25  C   UNL     1       4.984  -1.459   6.361  0.00  0.00    +0.101 C 
ATOM     26  C   UNL     1       6.145  -0.681   5.739  0.00  0.00    +0.033 C 
BRANCH  25  27
ATOM     27  C   UNL     1       5.099  -1.418   7.863  0.00  0.00    -0.020 A 
ATOM     28  C   UNL     1       4.459  -0.448   8.572  0.00  0.00    +0.006 A 
ATOM     29  C   UNL     1       4.554  -0.394   9.961  0.00  0.00    +0.001 A 
ATOM     30  C   UNL     1       5.290  -1.309  10.649  0.00  0.00    +0.008 A 
ATOM     31  C   UNL     1       5.964  -2.325   9.952  0.00  0.00    -0.018 A 
ATOM     32  C   UNL     1       5.862  -2.384   8.539  0.00  0.00    -0.013 A 
ATOM     33  C   UNL     1       6.532  -3.404   7.842  0.00  0.00    +0.009 A 
ATOM     34  C   UNL     1       7.263  -4.323   8.531  0.00  0.00    +0.001 A 
ATOM     35  C   UNL     1       7.357  -4.269   9.920  0.00  0.00    +0.001 A 
ATOM     36  C   UNL     1       6.734  -3.288  10.628  0.00  0.00    +0.008 A 
ENDBRANCH  25  27
ENDBRANCH  23  25
ENDBRANCH   5  21
TORSDOF 5
