REMARK  Name = ZINC08762099
REMARK  11 active torsions:
REMARK  status: ('A' for Active; 'I' for Inactive)
REMARK    1  A    between atoms: C_1  and  C_2
REMARK    2  A    between atoms: C_2  and  C_38
REMARK    3  A    between atoms: C_7  and  C_37
REMARK    4  A    between atoms: C_10  and  C_18
REMARK    5  A    between atoms: C_13  and  O_15
REMARK    6  A    between atoms: O_15  and  C_16
REMARK    7  A    between atoms: C_16  and  O_17
REMARK    8  A    between atoms: C_23  and  C_36
REMARK    9  A    between atoms: C_26  and  C_35
REMARK   10  A    between atoms: C_29  and  C_32
REMARK   11  A    between atoms: C_29  and  C_33
REMARK                            x       y       z     vdW  Elec       q    Type
REMARK                         _______ _______ _______ _____ _____    ______ ____
ROOT
ATOM      1  C   UNL     1       2.995   3.763   4.607  0.00  0.00    +0.014 C 
ATOM      2  C   UNL     1       2.614   4.032   3.128  0.00  0.00    -0.005 C 
ATOM      3  C   UNL     1       1.398   3.192   2.803  0.00  0.00    +0.004 C 
ATOM      4  C   UNL     1       1.702   1.698   2.754  0.00  0.00    +0.005 C 
ATOM      5  C   UNL     1       0.384   0.905   2.752  0.00  0.00    +0.008 C 
ATOM      6  C   UNL     1      -0.467   1.267   1.532  0.00  0.00    -0.012 C 
ATOM      7  C   UNL     1      -0.658   2.781   1.489  0.00  0.00    +0.073 C 
ATOM      8  C   UNL     1       0.630   3.602   1.557  0.00  0.00    -0.018 C 
ATOM      9  C   UNL     1       0.288   5.099   1.643  0.00  0.00    +0.010 C 
ATOM     10  C   UNL     1       1.583   5.904   1.754  0.00  0.00    +0.033 C 
ATOM     11  C   UNL     1       2.333   5.530   3.025  0.00  0.00    +0.127 C 
ATOM     12  C   UNL     1       1.449   3.442   0.276  0.00  0.00    +0.012 C 
ATOM     13  C   UNL     1      -1.516   3.155   2.684  0.00  0.00    +0.160 C 
ATOM     14  O   UNL     1      -1.198   4.009   3.482  0.00  0.00    -0.292 OA
ATOM     15  C   UNL     1      -2.716   2.447   2.884  0.00  0.00    +0.051 C 
ATOM     16  C   UNL     1      -2.896   1.264   2.297  0.00  0.00    -0.034 C 
ATOM     17  C   UNL     1      -1.804   0.543   1.539  0.00  0.00    -0.001 C 
ATOM     18  C   UNL     1      -2.358   0.186   0.166  0.00  0.00    +0.013 C 
ATOM     19  C   UNL     1      -3.628  -0.665   0.274  0.00  0.00    +0.012 C 
ATOM     20  C   UNL     1      -4.720  -0.017   1.113  0.00  0.00    -0.007 C 
ATOM     21  C   UNL     1      -4.166   0.527   2.394  0.00  0.00    -0.041 C 
ATOM     22  C   UNL     1      -4.745   0.371   3.574  0.00  0.00    -0.005 C 
ATOM     23  C   UNL     1      -6.034  -0.371   3.776  0.00  0.00    +0.088 C 
ATOM     24  C   UNL     1      -6.789  -0.502   2.455  0.00  0.00    +0.023 C 
ATOM     25  C   UNL     1      -5.859  -0.997   1.353  0.00  0.00    +0.012 C 
ATOM     26  C   UNL     1      -5.742  -1.761   4.348  0.00  0.00    +0.027 C 
ATOM     27  C   UNL     1      -5.291   1.158   0.308  0.00  0.00    +0.016 C 
ATOM     28  C   UNL     1      -1.603  -0.787   2.273  0.00  0.00    +0.017 C 
ATOM     29  C   UNL     1       0.283   0.757   0.294  0.00  0.00    +0.013 C 
ATOM     30  C   UNL     1       3.834   3.668   2.283  0.00  0.00    +0.014 C 
ENDROOT
BRANCH  23  31
ATOM     31  C   UNL     1      -6.891   0.390   4.761  0.00  0.00    +0.365 C 
ATOM     32  O   UNL     1      -7.987   0.781   4.433  0.00  0.00    -0.245 OA
ATOM     33  O   UNL     1      -6.436   0.631   6.000  0.00  0.00    -0.245 OA
ENDBRANCH  23  31
BRANCH  11  34
ATOM     34  O   UNL     1       3.580   6.239   3.063  0.00  0.00    -0.351 OA
BRANCH  34  35
ATOM     35  C   UNL     1       3.505   7.511   3.709  0.00  0.00    +0.319 C 
BRANCH  35  36
ATOM     36  O   UNL     1       3.426   7.323   5.124  0.00  0.00    -0.370 OA
ATOM     37  H   UNL     1       3.373   8.146   5.628  0.00  0.00    +0.212 HD
ENDBRANCH  35  36
ENDBRANCH  34  35
ENDBRANCH  11  34
TORSDOF 4
