REMARK  Name = ZINC45716841
REMARK  10 active torsions:
REMARK  status: ('A' for Active; 'I' for Inactive)
REMARK    1  A    between atoms: C_1  and  C_2
REMARK    2  A    between atoms: C_4  and  C_32
REMARK    3  A    between atoms: C_8  and  N_31
REMARK    4  A    between atoms: C_9  and  C_11
REMARK    5  A    between atoms: C_11  and  O_13
REMARK    6  A    between atoms: O_13  and  C_14
REMARK    7  A    between atoms: C_14  and  C_16
REMARK    8  A    between atoms: C_14  and  C_17
REMARK    9  A    between atoms: C_20  and  C_22
REMARK   10  A    between atoms: C_25  and  N_28
REMARK                            x       y       z     vdW  Elec       q    Type
REMARK                         _______ _______ _______ _____ _____    ______ ____
ROOT
ATOM      1  C   UNL     1       1.979  -0.745   4.319  0.00  0.00    +0.348 C 
ATOM      2  O   UNL     1       2.116   0.412   4.672  0.00  0.00    -0.244 OA
ENDROOT
BRANCH   1  11
ATOM      3  C   UNL     1      -1.696   1.372   0.766  0.00  0.00    +0.044 C 
ATOM      4  C   UNL     1      -1.521  -0.123   0.688  0.00  0.00    -0.037 A 
ATOM      5  C   UNL     1      -2.240  -0.864  -0.221  0.00  0.00    +0.025 A 
ATOM      6  C   UNL     1      -2.078  -2.239  -0.290  0.00  0.00    +0.014 A 
ATOM      7  N   UNL     1      -1.231  -2.853   0.513  0.00  0.00    -0.353 N 
ATOM      8  C   UNL     1      -0.520  -2.189   1.399  0.00  0.00    +0.088 A 
ATOM      9  C   UNL     1      -0.609  -0.786   1.546  0.00  0.00    +0.030 A 
ATOM     10  C   UNL     1       0.254  -0.216   2.569  0.00  0.00    +0.055 A 
ATOM     11  C   UNL     1       1.067  -1.067   3.287  0.00  0.00    +0.119 A 
ATOM     12  S   UNL     1       0.683  -2.671   2.612  0.00  0.00    -0.062 S 
ATOM     13  C   UNL     1      -2.873  -3.037  -1.291  0.00  0.00    +0.063 C 
ATOM     14  H   UNL     1      -1.131  -3.816   0.450  0.00  0.00    +0.166 HD
BRANCH  10  15
ATOM     15  N   UNL     1       0.258   1.149   2.816  0.00  0.00    -0.356 N 
ATOM     16  H   UNL     1       0.106   1.774   2.090  0.00  0.00    +0.142 HD
ATOM     17  H   UNL     1       0.414   1.479   3.715  0.00  0.00    +0.142 HD
ENDBRANCH  10  15
ENDBRANCH   1  11
BRANCH   1  18
ATOM     18  O   UNL     1       2.697  -1.721   4.914  0.00  0.00    -0.448 OA
BRANCH  18  19
ATOM     19  C   UNL     1       3.599  -1.324   5.949  0.00  0.00    +0.261 C 
ATOM     20  C   UNL     1       2.875  -1.357   7.296  0.00  0.00    +0.062 C 
BRANCH  19  21
ATOM     21  C   UNL     1       4.770  -2.272   5.985  0.00  0.00    +0.258 A 
ATOM     22  N   UNL     1       4.710  -3.573   5.916  0.00  0.00    -0.108 NA
ATOM     23  N   UNL     1       5.899  -4.061   5.976  0.00  0.00    -0.107 NA
ATOM     24  C   UNL     1       6.765  -3.081   6.085  0.00  0.00    +0.249 A 
ATOM     25  O   UNL     1       6.066  -1.929   6.088  0.00  0.00    -0.416 OA
BRANCH  24  26
ATOM     26  C   UNL     1       8.234  -3.216   6.183  0.00  0.00    +0.039 A 
ATOM     27  C   UNL     1       9.036  -2.080   6.302  0.00  0.00    +0.015 A 
ATOM     28  C   UNL     1      10.406  -2.212   6.392  0.00  0.00    +0.033 A 
ATOM     29  C   UNL     1      10.986  -3.468   6.364  0.00  0.00    +0.126 A 
ATOM     30  C   UNL     1      10.197  -4.598   6.246  0.00  0.00    +0.033 A 
ATOM     31  C   UNL     1       8.825  -4.480   6.161  0.00  0.00    +0.015 A 
BRANCH  29  32
ATOM     32  N   UNL     1      12.457  -3.602   6.461  0.00  0.00    +0.056 N 
ATOM     33  O   UNL     1      13.149  -2.616   6.564  0.00  0.00    -0.126 OA
ATOM     34  O   UNL     1      12.966  -4.699   6.436  0.00  0.00    -0.126 OA
ENDBRANCH  29  32
ENDBRANCH  24  26
ENDBRANCH  19  21
ENDBRANCH  18  19
ENDBRANCH   1  18
TORSDOF 7
