REMARK  Name = ZINC21055282
REMARK  10 active torsions:
REMARK  status: ('A' for Active; 'I' for Inactive)
REMARK    1  A    between atoms: C_1  and  O_2
REMARK    2  A    between atoms: O_2  and  C_3
REMARK    3  A    between atoms: C_3  and  C_4
REMARK    4  A    between atoms: C_4  and  N_5
REMARK    5  A    between atoms: N_5  and  C_6
REMARK    6  A    between atoms: C_7  and  N_22
REMARK    7  A    between atoms: N_8  and  C_15
REMARK    8  A    between atoms: C_15  and  C_16
REMARK    9  A    between atoms: C_23  and  C_25
REMARK   10  A    between atoms: C_25  and  C_26
REMARK                            x       y       z     vdW  Elec       q    Type
REMARK                         _______ _______ _______ _____ _____    ______ ____
ROOT
ATOM      1  N   UNL     1       4.130   2.970   2.345  0.00  0.00    -0.262 N 
ATOM      2  C   UNL     1       3.736   2.662   3.598  0.00  0.00    +0.224 C 
ATOM      3  O   UNL     1       2.611   2.253   3.796  0.00  0.00    -0.275 OA
ENDROOT
BRANCH   1   4
ATOM      4  C   UNL     1       3.205   2.915   1.280  0.00  0.00    +0.140 A 
ATOM      5  C   UNL     1       3.347   1.980   0.275  0.00  0.00    +0.128 A 
ATOM      6  N   UNL     1       2.432   1.955  -0.752  0.00  0.00    -0.276 N 
ATOM      7  C   UNL     1       1.406   2.824  -0.771  0.00  0.00    +0.331 A 
ATOM      8  O   UNL     1       0.605   2.783  -1.685  0.00  0.00    -0.246 OA
ATOM      9  N   UNL     1       1.249   3.739   0.203  0.00  0.00    -0.273 N 
ATOM     10  H   UNL     1       0.402   4.440   0.168  0.00  0.00    +0.173 HD
ATOM     11  C   UNL     1       2.120   3.809   1.229  0.00  0.00    +0.277 A 
ATOM     12  O   UNL     1       1.968   4.643   2.106  0.00  0.00    -0.266 OA
BRANCH   5  13
ATOM     13  N   UNL     1       4.392   1.088   0.298  0.00  0.00    -0.343 N 
ATOM     14  H   UNL     1       4.499   0.345  -0.507  0.00  0.00    +0.144 HD
ATOM     15  H   UNL     1       5.122   1.117   1.120  0.00  0.00    +0.144 HD
ENDBRANCH   5  13
BRANCH   6  16
ATOM     16  C   UNL     1       2.574   0.972  -1.829  0.00  0.00    +0.163 C 
BRANCH  16  17
ATOM     17  C   UNL     1       3.415   1.555  -2.934  0.00  0.00    -0.028 A 
ATOM     18  C   UNL     1       2.814   2.249  -3.968  0.00  0.00    +0.005 A 
ATOM     19  C   UNL     1       3.586   2.788  -4.980  0.00  0.00    +0.000 A 
ATOM     20  C   UNL     1       4.959   2.624  -4.963  0.00  0.00    +0.000 A 
ATOM     21  C   UNL     1       5.559   1.926  -3.933  0.00  0.00    +0.000 A 
ATOM     22  C   UNL     1       4.788   1.391  -2.918  0.00  0.00    +0.005 A 
ENDBRANCH  16  17
ENDBRANCH   6  16
ENDBRANCH   1   4
BRANCH   1  23
ATOM     23  C   UNL     1       5.518   3.362   2.089  0.00  0.00    +0.142 C 
BRANCH  23  24
ATOM     24  C   UNL     1       5.624   4.888   2.079  0.00  0.00    +0.178 C 
BRANCH  24  26
ATOM     25  C   UNL     1       5.391   6.819   3.480  0.00  0.00    +0.194 C 
ATOM     26  O   UNL     1       5.321   5.396   3.380  0.00  0.00    -0.381 OA
ENDBRANCH  24  26
ENDBRANCH  23  24
ENDBRANCH   1  23
BRANCH   2  27
ATOM     27  C   UNL     1       4.693   2.825   4.750  0.00  0.00    +0.135 C 
BRANCH  27  28
ATOM     28  C   UNL     1       4.011   2.415   6.031  0.00  0.00    +0.007 A 
ATOM     29  C   UNL     1       3.389   3.221   6.907  0.00  0.00    +0.200 A 
ATOM     30  O   UNL     1       2.900   2.496   7.927  0.00  0.00    -0.463 OA
ATOM     31  C   UNL     1       3.187   1.188   7.769  0.00  0.00    +0.136 A 
ATOM     32  C   UNL     1       3.899   1.062   6.572  0.00  0.00    +0.031 A 
ATOM     33  C   UNL     1       4.345  -0.256   6.141  0.00  0.00    -0.007 A 
ATOM     34  C   UNL     1       5.061  -0.444   4.954  0.00  0.00    +0.009 A 
ATOM     35  C   UNL     1       5.456  -1.698   4.594  0.00  0.00    +0.001 A 
ATOM     36  C   UNL     1       5.157  -2.798   5.393  0.00  0.00    +0.001 A 
ATOM     37  C   UNL     1       4.463  -2.651   6.555  0.00  0.00    +0.008 A 
ATOM     38  C   UNL     1       4.040  -1.374   6.956  0.00  0.00    -0.017 A 
ATOM     39  C   UNL     1       3.319  -1.184   8.151  0.00  0.00    +0.012 A 
ATOM     40  C   UNL     1       2.912   0.050   8.537  0.00  0.00    +0.047 A 
ENDBRANCH  27  28
ENDBRANCH   2  27
TORSDOF 9
