REMARK  Name = ZINC23157127
REMARK  4 active torsions:
REMARK  status: ('A' for Active; 'I' for Inactive)
REMARK    1  A    between atoms: C_4  and  S_7
REMARK    2  A    between atoms: S_7  and  N_10
REMARK    3  A    between atoms: C_15  and  C_28
REMARK    4  A    between atoms: C_17  and  C_21
REMARK                            x       y       z     vdW  Elec       q    Type
REMARK                         _______ _______ _______ _____ _____    ______ ____
ROOT
ATOM      1  N   UNL     1       4.378  -1.079   1.536  0.00  0.00    -0.186 N 
ATOM      2  C   UNL     1       3.622  -1.884   2.340  0.00  0.00    +0.220 C 
ATOM      3  N   UNL     1       2.528  -2.519   1.974  0.00  0.00    -0.181 NA
ATOM      4  C   UNL     1       2.029  -3.224   3.006  0.00  0.00    +0.239 C 
ATOM      5  N   UNL     1       0.971  -3.998   3.110  0.00  0.00    -0.213 NA
ATOM      6  C   UNL     1       0.604  -4.646   4.242  0.00  0.00    +0.073 C 
ATOM      7  C   UNL     1       1.313  -4.547   5.382  0.00  0.00    +0.030 C 
ATOM      8  C   UNL     1       2.555  -3.674   5.360  0.00  0.00    +0.153 C 
ATOM      9  N   UNL     1       2.864  -3.017   4.086  0.00  0.00    -0.207 N 
ATOM     10  N   UNL     1       3.884  -2.164   3.654  0.00  0.00    -0.231 N 
ATOM     11  H   UNL     1       5.174  -0.651   1.888  0.00  0.00    +0.177 HD
ATOM     12  H   UNL     1       4.629  -1.835   4.181  0.00  0.00    +0.173 HD
ENDROOT
BRANCH   8  13
ATOM     13  C   UNL     1       2.393  -2.603   6.408  0.00  0.00    -0.003 A 
ATOM     14  C   UNL     1       1.892  -1.363   6.057  0.00  0.00    +0.007 A 
ATOM     15  C   UNL     1       1.744  -0.381   7.018  0.00  0.00    +0.000 A 
ATOM     16  C   UNL     1       2.097  -0.637   8.330  0.00  0.00    +0.001 A 
ATOM     17  C   UNL     1       2.598  -1.877   8.682  0.00  0.00    +0.020 A 
ATOM     18  C   UNL     1       2.741  -2.862   7.721  0.00  0.00    +0.046 A 
ATOM     19 CL   UNL     1       3.364  -4.421   8.163  0.00  0.00    -0.083 Cl
ENDBRANCH   8  13
BRANCH   6  20
ATOM     20  C   UNL     1      -0.616  -5.491   4.225  0.00  0.00    +0.000 A 
ATOM     21  C   UNL     1      -1.017  -6.163   5.378  0.00  0.00    +0.011 A 
ATOM     22  C   UNL     1      -2.152  -6.947   5.357  0.00  0.00    +0.020 A 
ATOM     23  C   UNL     1      -2.892  -7.067   4.193  0.00  0.00    +0.041 A 
ATOM     24  C   UNL     1      -2.497  -6.401   3.045  0.00  0.00    +0.020 A 
ATOM     25  C   UNL     1      -1.367  -5.610   3.058  0.00  0.00    +0.011 A 
ATOM     26 CL   UNL     1      -4.319  -8.055   4.173  0.00  0.00    -0.084 Cl
ENDBRANCH   6  20
BRANCH   1  27
ATOM     27  S   UNL     1       3.934  -0.832  -0.041  0.00  0.00    +0.074 S 
ATOM     28  O   UNL     1       3.674  -2.114  -0.595  0.00  0.00    -0.150 OA
ATOM     29  O   UNL     1       4.890   0.060  -0.597  0.00  0.00    -0.150 OA
BRANCH  27  33
ATOM     30  C   UNL     1      -0.017   1.378   0.010  0.00  0.00    +0.000 A 
ATOM     31  C   UNL     1       1.171   2.086   0.002  0.00  0.00    +0.002 A 
ATOM     32  C   UNL     1       2.377   1.411  -0.013  0.00  0.00    +0.029 A 
ATOM     33  C   UNL     1       2.396   0.029  -0.020  0.00  0.00    +0.109 A 
ATOM     34  C   UNL     1       1.208  -0.679  -0.012  0.00  0.00    +0.029 A 
ATOM     35  C   UNL     1       0.002  -0.004   0.002  0.00  0.00    +0.002 A 
ENDBRANCH  27  33
ENDBRANCH   1  27
TORSDOF 4
