REMARK  Name = ZINC43597921
REMARK  4 active torsions:
REMARK  status: ('A' for Active; 'I' for Inactive)
REMARK    1  A    between atoms: C_3  and  S_9
REMARK    2  A    between atoms: C_6  and  N_7
REMARK    3  A    between atoms: S_9  and  C_10
REMARK    4  A    between atoms: C_16  and  N_18
REMARK                            x       y       z     vdW  Elec       q    Type
REMARK                         _______ _______ _______ _____ _____    ______ ____
ROOT
ATOM      1  S   UNL     1       3.895   2.317  -0.023  0.00  0.00    -0.051 S 
ENDROOT
BRANCH   1   2
ATOM      2  C   UNL     1       3.387   3.998  -0.159  0.00  0.00    +0.176 A 
ATOM      3  N   UNL     1       4.331   4.971  -0.303  0.00  0.00    -0.302 N 
ATOM      4  H   UNL     1       5.271   4.733  -0.330  0.00  0.00    +0.171 HD
ATOM      5  C   UNL     1       3.960   6.264  -0.410  0.00  0.00    +0.254 A 
ATOM      6  O   UNL     1       4.799   7.141  -0.540  0.00  0.00    -0.268 OA
ATOM      7  C   UNL     1       2.599   6.582  -0.368  0.00  0.00    +0.113 A 
ATOM      8  C   UNL     1       1.678   5.554  -0.219  0.00  0.00    +0.124 A 
ATOM      9  N   UNL     1       2.103   4.290  -0.124  0.00  0.00    -0.208 NA
BRANCH   8  10
ATOM     10  N   UNL     1       0.327   5.836  -0.174  0.00  0.00    -0.343 N 
ATOM     11  H   UNL     1       0.021   6.754  -0.247  0.00  0.00    +0.144 HD
ATOM     12  H   UNL     1      -0.315   5.117  -0.070  0.00  0.00    +0.144 HD
ENDBRANCH   8  10
ENDBRANCH   1   2
BRANCH   1  15
ATOM     13  C   UNL     1       0.621   0.027  -0.482  0.00  0.00    +0.024 A 
ATOM     14  C   UNL     1       1.795   0.712  -0.726  0.00  0.00    +0.018 A 
ATOM     15  C   UNL     1       2.397   1.443   0.289  0.00  0.00    +0.030 A 
ATOM     16  C   UNL     1       1.817   1.486   1.552  0.00  0.00    +0.033 A 
ATOM     17  C   UNL     1       0.643   0.801   1.796  0.00  0.00    +0.039 A 
ATOM     18  C   UNL     1       0.042   0.070   0.780  0.00  0.00    +0.026 A 
ATOM     19 BR   UNL     1       2.637   2.481   2.935  0.00  0.00    -0.049 Br
BRANCH  18  20
ATOM     20  N   UNL     1      -1.147  -0.625   1.027  0.00  0.00    -0.358 N 
ATOM     21  H   UNL     1      -1.568  -1.135   0.318  0.00  0.00    +0.142 HD
ATOM     22  H   UNL     1      -1.552  -0.595   1.908  0.00  0.00    +0.142 HD
ENDBRANCH  18  20
ENDBRANCH   1  15
TORSDOF 4
