REMARK  Name = ZINC01815796
REMARK  6 active torsions:
REMARK  status: ('A' for Active; 'I' for Inactive)
REMARK    1  A    between atoms: C_9  and  C_12
REMARK    2  A    between atoms: N_14  and  C_15
REMARK    3  A    between atoms: C_15  and  C_16
REMARK    4  A    between atoms: N_18  and  N_19
REMARK    5  A    between atoms: C_20  and  C_21
REMARK    6  A    between atoms: C_25  and  O_27
REMARK                            x       y       z     vdW  Elec       q    Type
REMARK                         _______ _______ _______ _____ _____    ______ ____
ROOT
ATOM      1  C   UNL     1       6.411  -4.550  -0.035  0.00  0.00    +0.202 C 
ENDROOT
BRANCH   1   4
ATOM      2  C   UNL     1       4.898  -2.639  -0.050  0.00  0.00    +0.258 C 
ATOM      3  O   UNL     1       5.739  -2.006   0.552  0.00  0.00    -0.272 OA
ATOM      4  N   UNL     1       5.136  -3.921  -0.391  0.00  0.00    -0.304 N 
ATOM      5  H   UNL     1       4.464  -4.428  -0.873  0.00  0.00    +0.149 HD
BRANCH   2  14
ATOM      6  C   UNL     1      -0.017   1.378   0.010  0.00  0.00    +0.004 A 
ATOM      7  C   UNL     1       1.170   2.088   0.002  0.00  0.00    +0.004 A 
ATOM      8  C   UNL     1       2.378   1.418  -0.012  0.00  0.00    +0.049 A 
ATOM      9  C   UNL     1       2.404   0.031  -0.019  0.00  0.00    +0.163 A 
ATOM     10  C   UNL     1       1.212  -0.683  -0.014  0.00  0.00    +0.162 A 
ATOM     11  C   UNL     1       0.002  -0.004   0.002  0.00  0.00    +0.049 A 
ATOM     12  O   UNL     1       1.214  -2.043  -0.029  0.00  0.00    -0.484 OA
ATOM     13  C   UNL     1       2.441  -2.689   0.331  0.00  0.00    +0.283 C 
ATOM     14  C   UNL     1       3.587  -1.993  -0.416  0.00  0.00    +0.296 C 
ATOM     15  O   UNL     1       3.602  -0.615  -0.029  0.00  0.00    -0.473 OA
ENDBRANCH   2  14
ENDBRANCH   1   4
BRANCH   1  16
ATOM     16  C   UNL     1       6.424  -5.974  -0.528  0.00  0.00    +0.249 C 
ATOM     17  O   UNL     1       5.463  -6.420  -1.119  0.00  0.00    -0.272 OA
ATOM     18  N   UNL     1       7.503  -6.751  -0.313  0.00  0.00    -0.206 N 
ATOM     19  H   UNL     1       8.272  -6.394   0.159  0.00  0.00    +0.177 HD
BRANCH  18  20
ATOM     20  N   UNL     1       7.516  -8.075  -0.771  0.00  0.00    -0.188 NA
ATOM     21  C   UNL     1       8.555  -8.824  -0.564  0.00  0.00    +0.138 C 
BRANCH  21  22
ATOM     22  C   UNL     1       8.568 -10.218  -1.046  0.00  0.00    -0.002 A 
ATOM     23  C   UNL     1       7.465 -10.733  -1.732  0.00  0.00    +0.010 A 
ATOM     24  C   UNL     1       7.481 -12.037  -2.181  0.00  0.00    +0.004 A 
ATOM     25  C   UNL     1       8.586 -12.837  -1.956  0.00  0.00    +0.045 A 
ATOM     26  C   UNL     1       9.686 -12.335  -1.275  0.00  0.00    +0.117 A 
ATOM     27  C   UNL     1       9.684 -11.025  -0.824  0.00  0.00    +0.054 A 
BRANCH  26  28
ATOM     28  O   UNL     1      10.769 -13.127  -1.056  0.00  0.00    -0.507 OA
ATOM     29  H   UNL     1      11.433 -13.088  -1.758  0.00  0.00    +0.292 HD
ENDBRANCH  26  28
ENDBRANCH  21  22
ENDBRANCH  18  20
ENDBRANCH   1  16
TORSDOF 6
