REMARK  Name = ZINC09994117
REMARK  17 active torsions:
REMARK  status: ('A' for Active; 'I' for Inactive)
REMARK    1  A    between atoms: C_1  and  C_2
REMARK    2  A    between atoms: C_2  and  O_3
REMARK    3  A    between atoms: O_3  and  C_4
REMARK    4  A    between atoms: C_7  and  C_11
REMARK    5  A    between atoms: C_8  and  C_10
REMARK    6  A    between atoms: C_11  and  C_13
REMARK    7  A    between atoms: C_14  and  O_34
REMARK    8  A    between atoms: N_17  and  C_29
REMARK    9  A    between atoms: C_18  and  C_20
REMARK   10  A    between atoms: C_23  and  N_26
REMARK   11  A    between atoms: N_26  and  C_27
REMARK   12  A    between atoms: N_26  and  C_28
REMARK   13  A    between atoms: C_29  and  C_30
REMARK   14  A    between atoms: C_30  and  C_31
REMARK   15  A    between atoms: C_31  and  N_69
REMARK   16  A    between atoms: C_32  and  N_69
REMARK   17  A    between atoms: C_33  and  N_69
REMARK                            x       y       z     vdW  Elec       q    Type
REMARK                         _______ _______ _______ _____ _____    ______ ____
ROOT
ATOM      1  C   UNL     1      -1.589   2.829   3.012  0.00  0.00    +0.071 C 
ATOM      2  C   UNL     1      -2.233   1.655   2.814  0.00  0.00    +0.188 C 
ATOM      3  C   UNL     1      -1.671   0.988   1.621  0.00  0.00    +0.282 C 
ATOM      4  O   UNL     1      -2.038  -0.085   1.183  0.00  0.00    -0.267 OA
ATOM      5  N   UNL     1      -0.692   1.743   1.091  0.00  0.00    -0.284 N 
ATOM      6  C   UNL     1      -0.556   2.950   1.916  0.00  0.00    +0.144 C 
ENDROOT
BRANCH   6   7
ATOM      7  C   UNL     1       0.827   3.018   2.510  0.00  0.00    -0.022 A 
ATOM      8  C   UNL     1       1.364   1.909   3.137  0.00  0.00    +0.007 A 
ATOM      9  C   UNL     1       2.634   1.967   3.677  0.00  0.00    +0.023 A 
ATOM     10  C   UNL     1       3.367   3.144   3.600  0.00  0.00    +0.029 A 
ATOM     11  C   UNL     1       2.822   4.258   2.974  0.00  0.00    +0.023 A 
ATOM     12  C   UNL     1       1.554   4.192   2.431  0.00  0.00    +0.007 A 
BRANCH  10  13
ATOM     13  N   UNL     1       4.650   3.207   4.149  0.00  0.00    -0.336 N 
ATOM     14  C   UNL     1       5.422   4.450   4.067  0.00  0.00    +0.129 C 
ATOM     15  C   UNL     1       5.223   2.032   4.809  0.00  0.00    +0.129 C 
ENDBRANCH  10  13
ENDBRANCH   6   7
BRANCH   1  16
ATOM     16  C   UNL     1      -1.842   3.794   4.086  0.00  0.00    +0.195 C 
ATOM     17  O   UNL     1      -2.741   3.597   4.882  0.00  0.00    -0.287 OA
BRANCH  16  21
ATOM     18  C   UNL     1       0.563   7.279   4.417  0.00  0.00    +0.121 A 
ATOM     19  C   UNL     1       0.759   6.215   5.292  0.00  0.00    +0.046 A 
ATOM     20  C   UNL     1      -0.019   5.084   5.188  0.00  0.00    +0.015 A 
ATOM     21  C   UNL     1      -1.006   5.005   4.201  0.00  0.00    +0.025 A 
ATOM     22  C   UNL     1      -1.196   6.075   3.320  0.00  0.00    -0.036 A 
ATOM     23  C   UNL     1      -0.418   7.204   3.434  0.00  0.00    +0.049 A 
ATOM     24  C   UNL     1      -2.255   5.993   2.251  0.00  0.00    +0.044 C 
BRANCH  18  25
ATOM     25  O   UNL     1       1.332   8.392   4.522  0.00  0.00    -0.492 OA
BRANCH  25  27
ATOM     26  C   UNL     1       3.083   9.728   5.517  0.00  0.00    +0.048 C 
ATOM     27  C   UNL     1       2.321   8.402   5.554  0.00  0.00    +0.225 C 
ENDBRANCH  25  27
ENDBRANCH  18  25
ENDBRANCH  16  21
ENDBRANCH   1  16
BRANCH   2  28
ATOM     28  O   UNL     1      -3.233   1.169   3.586  0.00  0.00    -0.502 OA
ATOM     29  H   UNL     1      -3.534   0.286   3.224  0.00  0.00    +0.292 HD
ENDBRANCH   2  28
BRANCH   5  30
ATOM     30  C   UNL     1       0.102   1.417  -0.097  0.00  0.00    +0.107 C 
BRANCH  30  31
ATOM     31  C   UNL     1      -0.590   1.975  -1.342  0.00  0.00    +0.000 C 
BRANCH  31  32
ATOM     32  C   UNL     1       0.239   1.635  -2.582  0.00  0.00    -0.078 C 
BRANCH  32  35
ATOM     33  C   UNL     1       0.449   2.073  -4.954  0.00  0.00    -0.097 C 
ATOM     34  C   UNL     1      -1.706   1.491  -4.016  0.00  0.00    -0.097 C 
ATOM     35  N   UNL     1      -0.431   2.198  -3.773  0.00  0.00    +0.376 N 
ATOM     36  H   UNL     1      -0.627   3.192  -3.606  0.00  0.00    -0.083 HD
ENDBRANCH  32  35
ENDBRANCH  31  32
ENDBRANCH  30  31
ENDBRANCH   5  30
TORSDOF 11
