REMARK  Name = ZINC12441207
REMARK  7 active torsions:
REMARK  status: ('A' for Active; 'I' for Inactive)
REMARK    1  A    between atoms: C_1  and  C_2
REMARK    2  A    between atoms: C_5  and  C_8
REMARK    3  A    between atoms: C_8  and  N_61
REMARK    4  A    between atoms: C_14  and  C_16
REMARK    5  A    between atoms: C_16  and  C_17
REMARK    6  A    between atoms: N_22  and  C_25
REMARK    7  A    between atoms: C_30  and  O_31
REMARK                            x       y       z     vdW  Elec       q    Type
REMARK                         _______ _______ _______ _____ _____    ______ ____
ROOT
ATOM      1  C   UNL     1       0.580   1.229 -10.592  0.00  0.00    -0.058 C 
ATOM      2  C   UNL     1       1.223   2.616 -10.638  0.00  0.00    +0.085 C 
ATOM      3  N   UNL     1       2.354   2.674  -9.716  0.00  0.00    -0.318 N 
ATOM      4  C   UNL     1       2.527   1.797  -8.722  0.00  0.00    +0.200 C 
ATOM      5  O   UNL     1       3.478   1.936  -7.982  0.00  0.00    -0.278 OA
ATOM      6  C   UNL     1       1.592   0.645  -8.482  0.00  0.00    +0.028 C 
ATOM      7  H   UNL     1       3.009   3.381  -9.829  0.00  0.00    +0.149 HD
ATOM      8  N   UNL     1       0.316   0.894  -9.178  0.00  0.00    +0.391 N 
ATOM      9  H   UNL     1      -0.162   1.685  -8.730  0.00  0.00    -0.080 HD
ENDROOT
BRANCH   8  10
ATOM     10  C   UNL     1      -0.550  -0.304  -9.093  0.00  0.00    -0.042 C 
BRANCH  10  15
ATOM     11  C   UNL     1      -5.328   0.589 -12.219  0.00  0.00    +0.044 C 
ATOM     12  C   UNL     1      -4.082   0.355 -11.403  0.00  0.00    -0.050 A 
ATOM     13  C   UNL     1      -2.973  -0.227 -11.988  0.00  0.00    +0.003 A 
ATOM     14  C   UNL     1      -1.830  -0.440 -11.240  0.00  0.00    +0.002 A 
ATOM     15  C   UNL     1      -1.796  -0.071  -9.908  0.00  0.00    -0.064 A 
ATOM     16  C   UNL     1      -2.908   0.506  -9.322  0.00  0.00    +0.002 A 
ATOM     17  C   UNL     1      -4.049   0.723 -10.071  0.00  0.00    +0.003 A 
ENDBRANCH  10  15
ENDBRANCH   8  10
BRANCH   6  18
ATOM     18  C   UNL     1       1.323   0.512  -6.982  0.00  0.00    +0.090 C 
BRANCH  18  19
ATOM     19  C   UNL     1       0.697   1.783  -6.470  0.00  0.00    +0.215 C 
ATOM     20  O   UNL     1       0.395   2.666  -7.245  0.00  0.00    -0.276 OA
ATOM     21  N   UNL     1       0.472   1.940  -5.150  0.00  0.00    -0.299 N 
ATOM     22  C   UNL     1      -0.138   3.172  -4.629  0.00  0.00    +0.126 C 
ATOM     23  C   UNL     1       0.738   3.705  -3.490  0.00  0.00    +0.124 C 
ATOM     24  N   UNL     1       0.941   2.643  -2.495  0.00  0.00    -0.324 N 
ATOM     25  C   UNL     1       1.669   1.505  -3.071  0.00  0.00    +0.124 C 
ATOM     26  C   UNL     1       0.831   0.882  -4.193  0.00  0.00    +0.126 C 
BRANCH  24  27
ATOM     27  C   UNL     1       1.597   3.137  -1.361  0.00  0.00    +0.072 A 
ATOM     28  C   UNL     1       2.860   3.699  -1.479  0.00  0.00    +0.027 A 
ATOM     29  C   UNL     1       3.507   4.185  -0.358  0.00  0.00    +0.002 A 
ATOM     30  C   UNL     1       2.897   4.114   0.881  0.00  0.00    +0.004 A 
ATOM     31  C   UNL     1       1.636   3.560   1.005  0.00  0.00    +0.047 A 
ATOM     32  C   UNL     1       0.984   3.066  -0.112  0.00  0.00    +0.138 A 
BRANCH  32  33
ATOM     33  O   UNL     1      -0.254   2.516   0.009  0.00  0.00    -0.505 OA
ATOM     34  H   UNL     1      -0.247   1.564   0.177  0.00  0.00    +0.292 HD
ENDBRANCH  32  33
ENDBRANCH  24  27
ENDBRANCH  18  19
ENDBRANCH   6  18
TORSDOF 6
