REMARK  Name = ZINC45385550
REMARK  7 active torsions:
REMARK  status: ('A' for Active; 'I' for Inactive)
REMARK    1  A    between atoms: C_7  and  C_11
REMARK    2  A    between atoms: C_11  and  C_12
REMARK    3  A    between atoms: C_12  and  N_13
REMARK    4  A    between atoms: N_16  and  N_17
REMARK    5  A    between atoms: N_17  and  C_18
REMARK    6  A    between atoms: C_18  and  N_20
REMARK    7  A    between atoms: N_20  and  C_21
REMARK                            x       y       z     vdW  Elec       q    Type
REMARK                         _______ _______ _______ _____ _____    ______ ____
ROOT
ATOM      1  N   UNL     1       2.510  -2.889   5.045  0.00  0.00    -0.298 N 
ATOM      2  C   UNL     1       2.566  -2.559   6.351  0.00  0.00    +0.316 C 
ATOM      3  O   UNL     1       2.879  -1.431   6.679  0.00  0.00    -0.251 OA
ATOM      4  N   UNL     1       2.275  -3.478   7.292  0.00  0.00    -0.219 N 
ATOM      5  H   UNL     1       2.261  -3.789   4.783  0.00  0.00    +0.150 HD
ATOM      6  H   UNL     1       2.314  -3.241   8.231  0.00  0.00    +0.174 HD
ENDROOT
BRANCH   4   7
ATOM      7  N   UNL     1       1.914  -4.778   6.913  0.00  0.00    -0.245 N 
ATOM      8  H   UNL     1       1.874  -5.016   5.973  0.00  0.00    +0.172 HD
BRANCH   7   9
ATOM      9  C   UNL     1       1.622  -5.698   7.854  0.00  0.00    +0.147 C 
ATOM     10  S   UNL     1       1.182  -7.286   7.391  0.00  0.00    -0.017 S 
BRANCH   9  11
ATOM     11  N   UNL     1       1.678  -5.367   9.159  0.00  0.00    -0.323 N 
ATOM     12  H   UNL     1       1.927  -4.468   9.422  0.00  0.00    +0.148 HD
BRANCH  11  13
ATOM     13  C   UNL     1       1.361  -6.367  10.182  0.00  0.00    +0.072 C 
ATOM     14  C   UNL     1      -0.155  -6.367  10.470  0.00  0.00    +0.022 C 
ATOM     15  C   UNL     1      -0.251  -6.614  11.996  0.00  0.00    +0.002 C 
ATOM     16  C   UNL     1       0.945  -5.801  12.551  0.00  0.00    +0.002 C 
ATOM     17  C   UNL     1       2.060  -6.008  11.505  0.00  0.00    +0.022 C 
ENDBRANCH  11  13
ENDBRANCH   9  11
ENDBRANCH   7   9
ENDBRANCH   4   7
BRANCH   1  18
ATOM     18  C   UNL     1       2.827  -1.889   4.022  0.00  0.00    +0.113 C 
BRANCH  18  19
ATOM     19  C   UNL     1       2.689  -2.518   2.635  0.00  0.00    +0.095 C 
BRANCH  19  26
ATOM     20  C   UNL     1      -0.019   1.524   0.010  0.00  0.00    +0.002 C 
ATOM     21  C   UNL     1       1.403   2.078  -0.000  0.00  0.00    +0.008 C 
ATOM     22  C   UNL     1       2.311   1.146  -0.809  0.00  0.00    +0.076 C 
ATOM     23  C   UNL     1       2.864   0.083   0.104  0.00  0.00    +0.133 A 
ATOM     24  N   UNL     1       4.102  -0.311   0.193  0.00  0.00    -0.134 NA
ATOM     25  N   UNL     1       4.193  -1.250   1.070  0.00  0.00    -0.134 NA
ATOM     26  C   UNL     1       3.015  -1.490   1.582  0.00  0.00    +0.135 A 
ATOM     27  N   UNL     1       2.144  -0.643   0.991  0.00  0.00    -0.315 N 
ATOM     28  C   UNL     1       0.711  -0.518   1.258  0.00  0.00    +0.125 C 
ATOM     29  C   UNL     1       0.002  -0.004   0.002  0.00  0.00    +0.022 C 
ENDBRANCH  19  26
ENDBRANCH  18  19
ENDBRANCH   1  18
TORSDOF 7
