REMARK  Name = ZINC64538913
REMARK  10 active torsions:
REMARK  status: ('A' for Active; 'I' for Inactive)
REMARK    1  A    between atoms: C_1  and  C_2
REMARK    2  A    between atoms: C_8  and  C_11
REMARK    3  A    between atoms: C_11  and  C_12
REMARK    4  A    between atoms: C_12  and  N_13
REMARK    5  A    between atoms: C_14  and  C_16
REMARK    6  A    between atoms: C_16  and  C_17
REMARK    7  A    between atoms: C_17  and  C_18
REMARK    8  A    between atoms: C_18  and  C_19
REMARK    9  A    between atoms: C_23  and  C_26
REMARK   10  A    between atoms: N_28  and  C_29
REMARK                            x       y       z     vdW  Elec       q    Type
REMARK                         _______ _______ _______ _____ _____    ______ ____
ROOT
ATOM      1  C   UNL     1      -2.540  -2.351   7.780  0.00  0.00    +0.096 C 
ENDROOT
BRANCH   1   3
ATOM      2  N   UNL     1      -1.382  -2.608   5.610  0.00  0.00    -0.315 N 
ATOM      3  C   UNL     1      -2.542  -2.604   6.295  0.00  0.00    +0.213 C 
ATOM      4  O   UNL     1      -3.589  -2.805   5.716  0.00  0.00    -0.276 OA
ATOM      5  H   UNL     1      -0.545  -2.448   6.073  0.00  0.00    +0.149 HD
BRANCH   2   6
ATOM      6  C   UNL     1      -1.384  -2.855   4.166  0.00  0.00    +0.108 C 
BRANCH   6   7
ATOM      7  C   UNL     1       0.051  -2.805   3.637  0.00  0.00    +0.052 C 
BRANCH   7  15
ATOM      8  C   UNL     1       0.004   1.516   0.029  0.00  0.00    +0.044 C 
ATOM      9  C   UNL     1       0.016   0.009   0.013  0.00  0.00    -0.050 A 
ATOM     10  C   UNL     1       0.016  -0.661  -1.218  0.00  0.00    +0.005 A 
ATOM     11  C   UNL     1       0.027  -2.007  -1.317  0.00  0.00    +0.026 A 
ATOM     12  C   UNL     1       0.038  -2.813  -0.145  0.00  0.00    +0.043 A 
ATOM     13  N   UNL     1       0.048  -4.114   0.020  0.00  0.00    -0.380 N 
ATOM     14  C   UNL     1       0.056  -4.403   1.458  0.00  0.00    +0.144 C 
ATOM     15  C   UNL     1       0.048  -3.059   2.152  0.00  0.00    -0.040 C 
ATOM     16  C   UNL     1       0.037  -2.130   1.169  0.00  0.00    -0.001 A 
ATOM     17  C   UNL     1       0.031  -0.662   1.187  0.00  0.00    +0.013 A 
ATOM     18  H   UNL     1       0.050  -4.774  -0.690  0.00  0.00    +0.160 HD
ENDBRANCH   7  15
ENDBRANCH   6   7
ENDBRANCH   2   6
ENDBRANCH   1   3
BRANCH   1  19
ATOM     19  C   UNL     1      -3.975  -2.401   8.309  0.00  0.00    +0.012 C 
BRANCH  19  20
ATOM     20  C   UNL     1      -3.972  -2.143   9.817  0.00  0.00    +0.040 C 
BRANCH  20  21
ATOM     21  C   UNL     1      -5.407  -2.193  10.345  0.00  0.00    +0.187 C 
ATOM     22  N   UNL     1      -5.468  -1.819  11.777  0.00  0.00    -0.177 NA
ATOM     23  N   UNL     1      -6.277  -1.003  12.172  0.00  0.00    -0.167 NA
ATOM     24  C   UNL     1      -7.224  -0.361  11.231  0.00  0.00    +0.272 C 
ATOM     25  S   UNL     1      -6.437  -0.837   9.625  0.00  0.00    -0.095 S 
BRANCH  24  26
ATOM     26  C   UNL     1      -8.607  -0.946  11.359  0.00  0.00    +0.254 C 
ATOM     27  O   UNL     1      -9.048  -1.657  10.480  0.00  0.00    -0.272 OA
ATOM     28  N   UNL     1      -9.353  -0.679  12.449  0.00  0.00    -0.283 N 
ATOM     29  H   UNL     1      -8.976  -0.167  13.181  0.00  0.00    +0.155 HD
BRANCH  28  30
ATOM     30  C   UNL     1     -10.671  -1.142  12.524  0.00  0.00    +0.036 A 
ATOM     31  C   UNL     1     -11.644  -0.372  13.150  0.00  0.00    +0.023 A 
ATOM     32  C   UNL     1     -12.945  -0.830  13.223  0.00  0.00    +0.005 A 
ATOM     33  C   UNL     1     -13.281  -2.054  12.675  0.00  0.00    +0.038 A 
ATOM     34  C   UNL     1     -12.315  -2.824  12.050  0.00  0.00    +0.125 A 
ATOM     35  C   UNL     1     -11.011  -2.368  11.969  0.00  0.00    +0.061 A 
ATOM     36  F   UNL     1     -12.646  -4.020  11.515  0.00  0.00    -0.205 F 
ENDBRANCH  28  30
ENDBRANCH  24  26
ENDBRANCH  20  21
ENDBRANCH  19  20
ENDBRANCH   1  19
TORSDOF 9
