REMARK  Name = ZINC23361714
REMARK  10 active torsions:
REMARK  status: ('A' for Active; 'I' for Inactive)
REMARK    1  A    between atoms: C_1  and  C_2
REMARK    2  A    between atoms: C_9  and  C_21
REMARK    3  A    between atoms: C_10  and  O_12
REMARK    4  A    between atoms: O_12  and  C_13
REMARK    5  A    between atoms: C_13  and  C_14
REMARK    6  A    between atoms: C_21  and  N_22
REMARK    7  A    between atoms: N_22  and  C_23
REMARK    8  A    between atoms: C_23  and  C_24
REMARK    9  A    between atoms: C_24  and  C_26
REMARK   10  A    between atoms: C_24  and  N_32
REMARK                            x       y       z     vdW  Elec       q    Type
REMARK                         _______ _______ _______ _____ _____    ______ ____
ROOT
ATOM      1  C   UNL     1       1.794   0.903  -1.419  0.00  0.00    +0.044 C 
ATOM      2  C   UNL     1       1.799  -0.596  -1.268  0.00  0.00    -0.050 A 
ATOM      3  C   UNL     1       2.159  -1.395  -2.351  0.00  0.00    +0.005 A 
ATOM      4  C   UNL     1       2.173  -2.752  -2.248  0.00  0.00    +0.029 A 
ATOM      5  C   UNL     1       1.820  -3.363  -1.032  0.00  0.00    +0.075 A 
ATOM      6  C   UNL     1       1.455  -2.549   0.067  0.00  0.00    +0.001 A 
ATOM      7  C   UNL     1       1.456  -1.152  -0.073  0.00  0.00    +0.013 A 
ATOM      8  C   UNL     1       1.101  -3.161   1.286  0.00  0.00    +0.017 A 
ATOM      9  C   UNL     1       1.126  -4.523   1.355  0.00  0.00    -0.002 A 
ATOM     10  C   UNL     1       1.496  -5.272   0.232  0.00  0.00    +0.217 A 
ATOM     11  N   UNL     1       1.827  -4.694  -0.903  0.00  0.00    -0.213 NA
ENDROOT
BRANCH  10  12
ATOM     12  O   UNL     1       1.516  -6.625   0.317  0.00  0.00    -0.471 OA
BRANCH  12  13
ATOM     13  C   UNL     1       1.901  -7.342  -0.858  0.00  0.00    +0.266 C 
BRANCH  13  14
ATOM     14  C   UNL     1       1.865  -8.822  -0.576  0.00  0.00    -0.008 A 
ATOM     15  C   UNL     1       2.991  -9.461  -0.091  0.00  0.00    +0.007 A 
ATOM     16  C   UNL     1       2.959 -10.819   0.168  0.00  0.00    +0.003 A 
ATOM     17  C   UNL     1       1.801 -11.539  -0.059  0.00  0.00    +0.038 A 
ATOM     18  C   UNL     1       0.673 -10.901  -0.546  0.00  0.00    +0.124 A 
ATOM     19  C   UNL     1       0.705  -9.539  -0.799  0.00  0.00    +0.045 A 
ATOM     20  F   UNL     1      -0.458 -11.604  -0.769  0.00  0.00    -0.205 F 
ENDBRANCH  13  14
ENDBRANCH  12  13
ENDBRANCH  10  12
BRANCH   9  21
ATOM     21  C   UNL     1       0.756  -5.220   2.639  0.00  0.00    -0.041 C 
BRANCH  21  22
ATOM     22  N   UNL     1       1.978  -5.615   3.351  0.00  0.00    +0.383 N 
ATOM     23  H   UNL     1       2.518  -6.241   2.772  0.00  0.00    -0.085 HD
ATOM     24  H   UNL     1       2.526  -4.795   3.561  0.00  0.00    -0.085 HD
BRANCH  22  25
ATOM     25  C   UNL     1       1.618  -6.295   4.603  0.00  0.00    -0.057 C 
BRANCH  25  26
ATOM     26  C   UNL     1       2.881  -6.844   5.268  0.00  0.00    +0.089 C 
BRANCH  26  27
ATOM     27  C   UNL     1       2.506  -7.583   6.526  0.00  0.00    +0.057 A 
ATOM     28  C   UNL     1       2.135  -8.913   6.453  0.00  0.00    +0.025 A 
ATOM     29  C   UNL     1       1.792  -9.584   7.617  0.00  0.00    +0.003 A 
ATOM     30  C   UNL     1       1.835  -8.889   8.816  0.00  0.00    +0.020 A 
ATOM     31  C   UNL     1       2.216  -7.561   8.811  0.00  0.00    +0.111 A 
ATOM     32  N   UNL     1       2.541  -6.956   7.685  0.00  0.00    -0.258 NA
ENDBRANCH  26  27
BRANCH  26  33
ATOM     33  N   UNL     1       3.781  -5.732   5.603  0.00  0.00    -0.291 NA
ATOM     34  C   UNL     1       4.620  -5.368   4.451  0.00  0.00    +0.113 C 
ATOM     35  C   UNL     1       5.581  -4.249   4.861  0.00  0.00    +0.175 C 
ATOM     36  O   UNL     1       4.828  -3.138   5.355  0.00  0.00    -0.377 OA
ATOM     37  C   UNL     1       4.000  -3.457   6.477  0.00  0.00    +0.175 C 
ATOM     38  C   UNL     1       3.023  -4.568   6.084  0.00  0.00    +0.113 C 
ENDBRANCH  26  33
ENDBRANCH  25  26
ENDBRANCH  22  25
ENDBRANCH  21  22
ENDBRANCH   9  21
TORSDOF 9
