REMARK  Name = ZINC18193748
REMARK  7 active torsions:
REMARK  status: ('A' for Active; 'I' for Inactive)
REMARK    1  A    between atoms: C_1  and  C_2
REMARK    2  A    between atoms: C_2  and  O_3
REMARK    3  A    between atoms: O_3  and  C_4
REMARK    4  A    between atoms: C_7  and  N_10
REMARK    5  A    between atoms: N_10  and  C_11
REMARK    6  A    between atoms: C_16  and  C_17
REMARK    7  A    between atoms: C_22  and  O_23
REMARK                            x       y       z     vdW  Elec       q    Type
REMARK                         _______ _______ _______ _____ _____    ______ ____
ROOT
ATOM      1  C   UNL     1       2.680  -6.627  -2.592  0.00  0.00    +0.175 C 
ATOM      2  N   UNL     1       3.177  -5.967  -3.626  0.00  0.00    -0.152 NA
ATOM      3  C   UNL     1       3.342  -6.525  -4.805  0.00  0.00    +0.276 C 
ATOM      4  O   UNL     1       3.801  -5.906  -5.752  0.00  0.00    -0.267 OA
ATOM      5  C   UNL     1       2.940  -7.946  -4.922  0.00  0.00    +0.080 C 
ATOM      6  C   UNL     1       2.990  -8.779  -5.992  0.00  0.00    +0.032 C 
ATOM      7  S   UNL     1       2.377  -8.258  -3.253  0.00  0.00    -0.050 S 
ENDROOT
BRANCH   6   8
ATOM      8  C   UNL     1       2.680 -10.204  -5.829  0.00  0.00    +0.020 A 
ATOM      9  C   UNL     1       2.662 -10.779  -4.552  0.00  0.00    +0.031 A 
ATOM     10  C   UNL     1       2.369 -12.118  -4.406  0.00  0.00    +0.043 A 
ATOM     11  C   UNL     1       2.092 -12.899  -5.519  0.00  0.00    +0.039 A 
ATOM     12  C   UNL     1       2.106 -12.344  -6.784  0.00  0.00    +0.061 A 
ATOM     13  C   UNL     1       2.393 -10.998  -6.951  0.00  0.00    +0.138 A 
ATOM     14 BR   UNL     1       1.725 -13.422  -8.291  0.00  0.00    -0.046 Br
ATOM     15 CL   UNL     1       2.348 -12.831  -2.824  0.00  0.00    -0.083 Cl
BRANCH  13  16
ATOM     16  O   UNL     1       2.402 -10.451  -8.193  0.00  0.00    -0.505 OA
ATOM     17  H   UNL     1       3.262 -10.489  -8.634  0.00  0.00    +0.292 HD
ENDBRANCH  13  16
ENDBRANCH   6   8
BRANCH   1  18
ATOM     18  N   UNL     1       2.458  -6.170  -1.319  0.00  0.00    -0.192 NA
BRANCH  18  22
ATOM     19  C   UNL     1       2.297  -2.072  -0.572  0.00  0.00    +0.121 A 
ATOM     20  C   UNL     1       2.092  -2.551  -1.858  0.00  0.00    +0.047 A 
ATOM     21  C   UNL     1       2.146  -3.909  -2.106  0.00  0.00    +0.029 A 
ATOM     22  C   UNL     1       2.405  -4.794  -1.068  0.00  0.00    +0.056 A 
ATOM     23  C   UNL     1       2.609  -4.314   0.219  0.00  0.00    +0.029 A 
ATOM     24  C   UNL     1       2.561  -2.956   0.464  0.00  0.00    +0.047 A 
BRANCH  19  25
ATOM     25  O   UNL     1       2.245  -0.735  -0.329  0.00  0.00    -0.492 OA
BRANCH  25  27
ATOM     26  C   UNL     1       1.950   1.574  -0.977  0.00  0.00    +0.048 C 
ATOM     27  C   UNL     1       1.969   0.117  -1.442  0.00  0.00    +0.225 C 
ENDBRANCH  25  27
ENDBRANCH  19  25
ENDBRANCH  18  22
ENDBRANCH   1  18
TORSDOF 6
