REMARK  Name = ZINC14744559
REMARK  5 active torsions:
REMARK  status: ('A' for Active; 'I' for Inactive)
REMARK    1  A    between atoms: C_4  and  C_7
REMARK    2  A    between atoms: C_7  and  N_8
REMARK    3  A    between atoms: C_11  and  C_13
REMARK    4  A    between atoms: C_25  and  C_26
REMARK    5  A    between atoms: C_25  and  N_63
REMARK                            x       y       z     vdW  Elec       q    Type
REMARK                         _______ _______ _______ _____ _____    ______ ____
ROOT
ATOM      1  N   UNL     1      -0.002  -0.001   0.085  0.00  0.00    -0.263 N 
ATOM      2  C   UNL     1       1.262  -0.445   0.035  0.00  0.00    +0.040 A 
ATOM      3  C   UNL     1       2.071   0.646  -0.000  0.00  0.00    -0.011 A 
ATOM      4  C   UNL     1       1.218   1.759   0.027  0.00  0.00    +0.149 A 
ATOM      5  N   UNL     1      -0.017   1.288   0.079  0.00  0.00    -0.166 NA
ATOM      6  C   UNL     1       3.572   0.575  -0.056  0.00  0.00    -0.038 C 
ATOM      7  C   UNL     1       3.253  -1.805  -0.448  0.00  0.00    -0.072 C 
ATOM      8  C   UNL     1       1.789  -1.857   0.014  0.00  0.00    +0.037 C 
ATOM      9  N   UNL     1       3.977  -0.794   0.355  0.00  0.00    +0.386 N 
ATOM     10  H   UNL     1       3.743  -0.926   1.346  0.00  0.00    -0.081 HD
ENDROOT
BRANCH   4  11
ATOM     11  C   UNL     1       1.621   3.180   0.003  0.00  0.00    +0.267 C 
ATOM     12  O   UNL     1       2.797   3.479   0.062  0.00  0.00    -0.268 OA
ATOM     13  N   UNL     1       0.683   4.144  -0.085  0.00  0.00    -0.286 N 
ATOM     14  C   UNL     1       1.054   5.566  -0.188  0.00  0.00    +0.127 C 
ATOM     15  C   UNL     1       0.517   6.098  -1.524  0.00  0.00    +0.123 C 
ATOM     16  N   UNL     1      -0.867   5.692  -1.723  0.00  0.00    -0.313 N 
ATOM     17  C   UNL     1      -1.445   4.653  -1.120  0.00  0.00    +0.230 C 
ATOM     18  O   UNL     1      -2.583   4.365  -1.427  0.00  0.00    -0.274 OA
ATOM     19  C   UNL     1      -0.751   3.820  -0.076  0.00  0.00    +0.203 C 
ATOM     20  H   UNL     1      -1.406   6.214  -2.337  0.00  0.00    +0.149 HD
ENDBRANCH   4  11
BRANCH   1  21
ATOM     21  C   UNL     1      -1.190  -0.856   0.139  0.00  0.00    +0.179 C 
BRANCH  21  25
ATOM     22  C   UNL     1      -2.512  -1.706  -3.833  0.00  0.00    +0.000 A 
ATOM     23  C   UNL     1      -1.600  -2.541  -3.215  0.00  0.00    +0.000 A 
ATOM     24  C   UNL     1      -1.173  -2.266  -1.929  0.00  0.00    +0.005 A 
ATOM     25  C   UNL     1      -1.657  -1.156  -1.263  0.00  0.00    -0.026 A 
ATOM     26  C   UNL     1      -2.572  -0.324  -1.879  0.00  0.00    +0.005 A 
ATOM     27  C   UNL     1      -2.996  -0.596  -3.167  0.00  0.00    +0.000 A 
ENDBRANCH  21  25
ENDBRANCH   1  21
BRANCH   9  28
ATOM     28  C   UNL     1       5.434  -0.961   0.180  0.00  0.00    -0.024 C 
BRANCH  28  29
ATOM     29  C   UNL     1       5.785  -2.418   0.336  0.00  0.00    +0.000 A 
ATOM     30  C   UNL     1       5.933  -3.288  -0.675  0.00  0.00    +0.029 A 
ATOM     31  C   UNL     1       6.271  -4.584  -0.080  0.00  0.00    -0.000 A 
ATOM     32  C   UNL     1       6.539  -5.851  -0.602  0.00  0.00    +0.010 A 
ATOM     33  C   UNL     1       6.828  -6.885   0.243  0.00  0.00    +0.001 A 
ATOM     34  C   UNL     1       6.858  -6.686   1.617  0.00  0.00    +0.002 A 
ATOM     35  C   UNL     1       6.596  -5.444   2.152  0.00  0.00    +0.026 A 
ATOM     36  C   UNL     1       6.299  -4.377   1.311  0.00  0.00    +0.047 A 
ATOM     37  N   UNL     1       6.006  -3.050   1.530  0.00  0.00    -0.360 N 
ATOM     38  H   UNL     1       5.960  -2.626   2.401  0.00  0.00    +0.166 HD
ENDBRANCH  28  29
ENDBRANCH   9  28
TORSDOF 5
