REMARK  Name = ZINC63882970
REMARK  4 active torsions:
REMARK  status: ('A' for Active; 'I' for Inactive)
REMARK    1  A    between atoms: C_1  and  C_2
REMARK    2  A    between atoms: C_5  and  C_8
REMARK    3  A    between atoms: N_10  and  C_13
REMARK    4  A    between atoms: C_13  and  C_14
REMARK                            x       y       z     vdW  Elec       q    Type
REMARK                         _______ _______ _______ _____ _____    ______ ____
ROOT
ATOM      1  C   UNL     1      -0.963  -8.629   0.978  0.00  0.00    +0.013 C 
ATOM      2  C   UNL     1      -2.180  -7.873   1.517  0.00  0.00    +0.024 C 
ATOM      3  C   UNL     1      -3.460  -8.576   1.054  0.00  0.00    +0.107 C 
ATOM      4  N   UNL     1      -3.397  -9.987   1.460  0.00  0.00    -0.315 N 
ATOM      5  C   UNL     1      -2.224 -10.783   1.072  0.00  0.00    +0.107 C 
ATOM      6  C   UNL     1      -0.959 -10.054   1.534  0.00  0.00    +0.024 C 
ATOM      7  C   UNL     1      -4.423 -10.556   2.196  0.00  0.00    +0.126 A 
ATOM      8  C   UNL     1      -5.627  -9.871   2.381  0.00  0.00    +0.063 A 
ATOM      9  C   UNL     1      -6.622 -10.477   3.121  0.00  0.00    +0.118 A 
ATOM     10  N   UNL     1      -6.410 -11.682   3.631  0.00  0.00    -0.223 NA
ATOM     11  C   UNL     1      -5.258 -12.309   3.440  0.00  0.00    +0.214 A 
ATOM     12  N   UNL     1      -4.280 -11.764   2.732  0.00  0.00    -0.200 NA
ATOM     13  N   UNL     1      -5.075 -13.566   3.989  0.00  0.00    -0.327 N 
ATOM     14  H   UNL     1      -5.785 -13.977   4.506  0.00  0.00    +0.145 HD
ATOM     15  H   UNL     1      -4.237 -14.035   3.856  0.00  0.00    +0.145 HD
ENDROOT
BRANCH   1  16
ATOM     16  C   UNL     1       0.316  -7.909   1.410  0.00  0.00    +0.148 C 
BRANCH  16  19
ATOM     17  C   UNL     1       0.511  -4.445   0.462  0.00  0.00    +0.113 A 
ATOM     18  C   UNL     1       0.512  -5.409   1.428  0.00  0.00    +0.138 A 
ATOM     19  N   UNL     1       0.369  -6.587   0.781  0.00  0.00    -0.251 N 
ATOM     20  N   UNL     1       0.287  -6.352  -0.481  0.00  0.00    -0.065 NA
ATOM     21  N   UNL     1       0.362  -5.088  -0.709  0.00  0.00    -0.130 NA
BRANCH  17  26
ATOM     22  C   UNL     1       1.015   1.239   1.248  0.00  0.00    +0.044 C 
ATOM     23  C   UNL     1       0.883  -0.248   1.042  0.00  0.00    -0.050 A 
ATOM     24  C   UNL     1       0.737  -0.757  -0.235  0.00  0.00    +0.004 A 
ATOM     25  C   UNL     1       0.616  -2.118  -0.429  0.00  0.00    +0.010 A 
ATOM     26  C   UNL     1       0.641  -2.980   0.665  0.00  0.00    +0.004 A 
ATOM     27  C   UNL     1       0.789  -2.462   1.950  0.00  0.00    +0.010 A 
ATOM     28  C   UNL     1       0.914  -1.100   2.132  0.00  0.00    +0.004 A 
ENDBRANCH  17  26
ENDBRANCH  16  19
ENDBRANCH   1  16
TORSDOF 3
