REMARK  Name = ZINC02747352
REMARK  6 active torsions:
REMARK  status: ('A' for Active; 'I' for Inactive)
REMARK    1  A    between atoms: C_1  and  C_2
REMARK    2  A    between atoms: C_2  and  O_3
REMARK    3  A    between atoms: O_3  and  C_4
REMARK    4  A    between atoms: C_8  and  N_10
REMARK    5  A    between atoms: C_11  and  C_23
REMARK    6  A    between atoms: C_25  and  N_30
REMARK                            x       y       z     vdW  Elec       q    Type
REMARK                         _______ _______ _______ _____ _____    ______ ____
ROOT
ATOM      1  N   UNL     1      -0.716   1.565   5.917  0.00  0.00    -0.244 N 
ATOM      2  C   UNL     1      -0.279   1.143   7.248  0.00  0.00    +0.199 C 
ATOM      3  N   UNL     1      -0.536   2.205   8.228  0.00  0.00    -0.321 N 
ATOM      4  C   UNL     1      -1.751   2.880   8.181  0.00  0.00    +0.041 A 
ATOM      5  C   UNL     1      -2.323   3.430   9.316  0.00  0.00    +0.025 A 
ATOM      6  C   UNL     1      -3.527   4.101   9.219  0.00  0.00    +0.017 A 
ATOM      7  C   UNL     1      -4.165   4.229   7.995  0.00  0.00    +0.019 A 
ATOM      8  C   UNL     1      -3.610   3.684   6.855  0.00  0.00    +0.030 A 
ATOM      9  C   UNL     1      -2.399   3.000   6.940  0.00  0.00    +0.059 A 
ATOM     10  C   UNL     1      -1.774   2.384   5.757  0.00  0.00    +0.254 C 
ATOM     11  O   UNL     1      -2.213   2.610   4.645  0.00  0.00    -0.270 OA
ATOM     12 BR   UNL     1      -5.809   5.158   7.886  0.00  0.00    -0.050 Br
ATOM     13  H   UNL     1       0.130   2.432   8.896  0.00  0.00    +0.148 HD
ENDROOT
BRANCH   2  14
ATOM     14  C   UNL     1      -1.032  -0.099   7.650  0.00  0.00    +0.011 A 
ATOM     15  C   UNL     1      -2.272  -0.364   7.101  0.00  0.00    +0.041 A 
ATOM     16  C   UNL     1      -2.962  -1.503   7.468  0.00  0.00    +0.127 A 
ATOM     17  C   UNL     1      -2.412  -2.379   8.386  0.00  0.00    +0.034 A 
ATOM     18  C   UNL     1      -1.173  -2.115   8.937  0.00  0.00    +0.022 A 
ATOM     19  C   UNL     1      -0.479  -0.977   8.564  0.00  0.00    +0.048 A 
ATOM     20 CL   UNL     1       1.082  -0.649   9.250  0.00  0.00    -0.083 Cl
BRANCH  16  21
ATOM     21  N   UNL     1      -4.290  -1.786   6.880  0.00  0.00    +0.056 N 
ATOM     22  O   UNL     1      -4.775  -1.015   6.072  0.00  0.00    -0.126 OA
ATOM     23  O   UNL     1      -4.899  -2.790   7.204  0.00  0.00    -0.126 OA
ENDBRANCH  16  21
ENDBRANCH   2  14
BRANCH   1  28
ATOM     24  C   UNL     1       1.968   1.093   3.444  0.00  0.00    +0.122 A 
ATOM     25  C   UNL     1       1.354   0.218   2.558  0.00  0.00    +0.046 A 
ATOM     26  C   UNL     1       0.060  -0.206   2.789  0.00  0.00    +0.005 A 
ATOM     27  C   UNL     1      -0.628   0.239   3.901  0.00  0.00    +0.024 A 
ATOM     28  C   UNL     1      -0.020   1.115   4.791  0.00  0.00    +0.042 A 
ATOM     29  C   UNL     1       1.283   1.537   4.564  0.00  0.00    +0.069 A 
BRANCH  24  30
ATOM     30  O   UNL     1       3.241   1.510   3.216  0.00  0.00    -0.492 OA
BRANCH  30  32
ATOM     31  C   UNL     1       5.304   1.582   1.959  0.00  0.00    +0.048 C 
ATOM     32  C   UNL     1       3.889   1.007   2.046  0.00  0.00    +0.225 C 
ENDBRANCH  30  32
ENDBRANCH  24  30
ENDBRANCH   1  28
TORSDOF 5
