REMARK  Name = ZINC27978490
REMARK  6 active torsions:
REMARK  status: ('A' for Active; 'I' for Inactive)
REMARK    1  A    between atoms: C_1  and  C_2
REMARK    2  A    between atoms: C_2  and  C_3
REMARK    3  A    between atoms: C_3  and  C_5
REMARK    4  A    between atoms: C_3  and  O_16
REMARK    5  A    between atoms: N_7  and  C_8
REMARK    6  A    between atoms: O_16  and  C_17
REMARK                            x       y       z     vdW  Elec       q    Type
REMARK                         _______ _______ _______ _____ _____    ______ ____
ROOT
ATOM      1  C   UNL     1      -0.124   4.093  -0.122  0.00  0.00    +0.259 C 
ENDROOT
BRANCH   1   2
ATOM      2  C   UNL     1      -0.054   5.461   0.507  0.00  0.00    +0.258 C 
ATOM      3  O   UNL     1       1.010   5.899   0.889  0.00  0.00    -0.271 OA
ATOM      4  N   UNL     1      -1.175   6.196   0.646  0.00  0.00    -0.282 N 
ATOM      5  H   UNL     1      -2.152   5.763   0.386  0.00  0.00    +0.155 HD
BRANCH   4   6
ATOM      6  C   UNL     1      -1.095   7.510   1.122  0.00  0.00    +0.048 A 
ATOM      7  C   UNL     1       0.086   8.228   0.990  0.00  0.00    +0.025 A 
ATOM      8  C   UNL     1       0.162   9.524   1.460  0.00  0.00    +0.017 A 
ATOM      9  C   UNL     1      -0.938  10.108   2.063  0.00  0.00    +0.019 A 
ATOM     10  C   UNL     1      -2.117   9.397   2.196  0.00  0.00    +0.032 A 
ATOM     11  C   UNL     1      -2.200   8.101   1.723  0.00  0.00    +0.040 A 
ATOM     12 BR   UNL     1      -3.814   7.131   1.899  0.00  0.00    -0.048 Br
ATOM     13 BR   UNL     1      -0.830  11.884   2.705  0.00  0.00    -0.050 Br
ENDBRANCH   4   6
ENDBRANCH   1   2
BRANCH   1  15
ATOM     14  C   UNL     1      -0.738   2.834  -2.191  0.00  0.00    +0.008 C 
ATOM     15  C   UNL     1      -0.546   4.227  -1.587  0.00  0.00    +0.051 C 
ENDBRANCH   1  15
BRANCH   1  16
ATOM     16  O   UNL     1       1.161   3.471  -0.052  0.00  0.00    -0.479 OA
BRANCH  16  17
ATOM     17  C   UNL     1       1.185   2.117   0.073  0.00  0.00    +0.125 A 
ATOM     18  C   UNL     1       2.395   1.440   0.054  0.00  0.00    +0.049 A 
ATOM     19  C   UNL     1       2.422   0.064   0.181  0.00  0.00    +0.053 A 
ATOM     20  C   UNL     1       1.240  -0.643   0.327  0.00  0.00    +0.166 A 
ATOM     21  C   UNL     1       0.023   0.034   0.346  0.00  0.00    +0.170 A 
ATOM     22  C   UNL     1      -0.001   1.413   0.219  0.00  0.00    +0.095 A 
ATOM     23  O   UNL     1      -0.981  -0.877   0.499  0.00  0.00    -0.452 OA
ATOM     24  C   UNL     1      -0.344  -2.074   0.984  0.00  0.00    +0.466 C 
ATOM     25  O   UNL     1       0.997  -1.980   0.469  0.00  0.00    -0.453 OA
ENDBRANCH  16  17
ENDBRANCH   1  16
TORSDOF 5
