REMARK  Name = ZINC17532574
REMARK  9 active torsions:
REMARK  status: ('A' for Active; 'I' for Inactive)
REMARK    1  A    between atoms: C_1  and  C_2
REMARK    2  A    between atoms: C_2  and  N_3
REMARK    3  A    between atoms: C_4  and  C_6
REMARK    4  A    between atoms: C_6  and  C_8
REMARK    5  A    between atoms: C_6  and  S_9
REMARK    6  A    between atoms: S_9  and  C_10
REMARK    7  A    between atoms: N_23  and  C_24
REMARK    8  A    between atoms: C_27  and  C_31
REMARK    9  A    between atoms: C_29  and  C_30
REMARK                            x       y       z     vdW  Elec       q    Type
REMARK                         _______ _______ _______ _____ _____    ______ ____
ROOT
ATOM      1  C   UNL     1       0.019  -4.839  -0.011  0.00  0.00    +0.178 A 
ATOM      2  N   UNL     1      -0.886  -3.902   0.238  0.00  0.00    -0.215 NA
ATOM      3  C   UNL     1      -0.497  -2.637   0.134  0.00  0.00    +0.117 A 
ATOM      4  C   UNL     1       0.812  -2.240  -0.224  0.00  0.00    +0.076 A 
ATOM      5  C   UNL     1       1.051  -0.807  -0.287  0.00  0.00    -0.023 A 
ATOM      6  C   UNL     1       0.002  -0.004   0.002  0.00  0.00    -0.004 A 
ATOM      7  S   UNL     1      -1.341  -1.105   0.368  0.00  0.00    -0.073 S 
ATOM      8  C   UNL     1      -0.018   1.493   0.010  0.00  0.00    +0.043 C 
ATOM      9  C   UNL     1       1.431   2.000  -0.001  0.00  0.00    +0.005 C 
ATOM     10  C   UNL     1       2.206   1.244  -1.083  0.00  0.00    +0.005 C 
ATOM     11  C   UNL     1       2.406  -0.211  -0.659  0.00  0.00    +0.037 C 
ATOM     12  C   UNL     1       1.764  -3.279  -0.486  0.00  0.00    +0.268 A 
ATOM     13  O   UNL     1       2.916  -3.036  -0.801  0.00  0.00    -0.267 OA
ATOM     14  N   UNL     1       1.304  -4.546  -0.363  0.00  0.00    -0.255 N 
ENDROOT
BRANCH  14  15
ATOM     15  C   UNL     1       2.189  -5.605  -0.607  0.00  0.00    +0.055 A 
ATOM     16  C   UNL     1       2.945  -6.133   0.432  0.00  0.00    +0.027 A 
ATOM     17  C   UNL     1       3.817  -7.176   0.188  0.00  0.00    +0.005 A 
ATOM     18  C   UNL     1       3.936  -7.696  -1.088  0.00  0.00    -0.050 A 
ATOM     19  C   UNL     1       3.184  -7.173  -2.123  0.00  0.00    +0.008 A 
ATOM     20  C   UNL     1       2.307  -6.133  -1.885  0.00  0.00    -0.026 A 
ATOM     21  C   UNL     1       1.483  -5.567  -3.013  0.00  0.00    +0.046 C 
ATOM     22  C   UNL     1       4.886  -8.836  -1.350  0.00  0.00    +0.044 C 
ENDBRANCH  14  15
BRANCH   1  23
ATOM     23  S   UNL     1      -0.458  -6.530   0.116  0.00  0.00    -0.075 S 
BRANCH  23  24
ATOM     24  C   UNL     1      -2.193  -6.332   0.592  0.00  0.00    +0.137 C 
ATOM     25  C   UNL     1      -2.271  -5.673   1.970  0.00  0.00    +0.029 C 
BRANCH  24  27
ATOM     26  N   UNL     1      -4.190  -7.787   0.472  0.00  0.00    -0.315 N 
ATOM     27  C   UNL     1      -2.857  -7.684   0.642  0.00  0.00    +0.226 C 
ATOM     28  O   UNL     1      -2.192  -8.680   0.836  0.00  0.00    -0.275 OA
ATOM     29  H   UNL     1      -4.722  -6.990   0.318  0.00  0.00    +0.149 HD
BRANCH  26  31
ATOM     30  C   UNL     1      -6.341  -8.938   0.301  0.00  0.00    +0.024 C 
ATOM     31  C   UNL     1      -4.836  -9.101   0.522  0.00  0.00    +0.101 C 
ENDBRANCH  26  31
ENDBRANCH  24  27
ENDBRANCH  23  24
ENDBRANCH   1  23
TORSDOF 5
