REMARK  Name = ZINC13080825
REMARK  6 active torsions:
REMARK  status: ('A' for Active; 'I' for Inactive)
REMARK    1  A    between atoms: C_1  and  C_2
REMARK    2  A    between atoms: C_9  and  C_17
REMARK    3  A    between atoms: C_9  and  C_18
REMARK    4  A    between atoms: N_12  and  N_13
REMARK    5  A    between atoms: N_13  and  C_14
REMARK    6  A    between atoms: C_14  and  N_16
REMARK                            x       y       z     vdW  Elec       q    Type
REMARK                         _______ _______ _______ _____ _____    ______ ____
ROOT
ATOM      1  C   UNL     1       0.342   1.855  -0.190  0.00  0.00    +0.065 C 
ATOM      2  C   UNL     1       0.515   0.364  -0.061  0.00  0.00    +0.042 A 
ATOM      3  C   UNL     1       0.344  -0.559  -1.048  0.00  0.00    +0.041 A 
ATOM      4  C   UNL     1       0.605  -1.843  -0.496  0.00  0.00    +0.072 A 
ATOM      5  N   UNL     1       0.918  -1.680   0.751  0.00  0.00    -0.178 NA
ATOM      6  N   UNL     1       0.876  -0.311   1.054  0.00  0.00    -0.281 N 
ATOM      7  H   UNL     1       1.071   0.085   1.918  0.00  0.00    +0.189 HD
ATOM      8  C   UNL     1       0.502  -3.111  -1.304  0.00  0.00    +0.064 C 
ATOM      9  C   UNL     1      -0.372  -2.855  -2.535  0.00  0.00    -0.024 C 
ATOM     10  C   UNL     1       0.138  -1.646  -3.325  0.00  0.00    +0.064 C 
ATOM     11  C   UNL     1      -0.038  -0.400  -2.471  0.00  0.00    +0.070 C 
ATOM     12  N   UNL     1      -0.488   0.718  -2.951  0.00  0.00    -0.185 NA
ATOM     13  C   UNL     1      -1.810  -2.590  -2.085  0.00  0.00    +0.011 C 
ATOM     14  C   UNL     1      -0.348  -4.091  -3.436  0.00  0.00    +0.011 C 
ENDROOT
BRANCH  12  15
ATOM     15  N   UNL     1      -1.164   1.618  -2.117  0.00  0.00    -0.218 N 
ATOM     16  H   UNL     1      -1.366   1.371  -1.201  0.00  0.00    +0.176 HD
BRANCH  15  17
ATOM     17  C   UNL     1      -1.532   2.826  -2.587  0.00  0.00    +0.147 C 
ATOM     18  S   UNL     1      -2.357   3.926  -1.567  0.00  0.00    -0.017 S 
BRANCH  17  19
ATOM     19  N   UNL     1      -1.251   3.169  -3.859  0.00  0.00    -0.339 N 
ATOM     20  H   UNL     1      -0.783   2.546  -4.437  0.00  0.00    +0.144 HD
ATOM     21  H   UNL     1      -1.516   4.038  -4.198  0.00  0.00    +0.144 HD
ENDBRANCH  17  19
ENDBRANCH  15  17
ENDBRANCH  12  15
TORSDOF 3
