REMARK  Name = ZINC45702104
REMARK  8 active torsions:
REMARK  status: ('A' for Active; 'I' for Inactive)
REMARK    1  A    between atoms: C_1  and  C_2
REMARK    2  A    between atoms: C_3  and  C_33
REMARK    3  A    between atoms: C_11  and  C_13
REMARK    4  A    between atoms: C_13  and  S_14
REMARK    5  A    between atoms: S_14  and  C_15
REMARK    6  A    between atoms: C_15  and  C_17
REMARK    7  A    between atoms: C_15  and  C_18
REMARK    8  A    between atoms: N_26  and  C_27
REMARK                            x       y       z     vdW  Elec       q    Type
REMARK                         _______ _______ _______ _____ _____    ______ ____
ROOT
ATOM      1  C   UNL     1       0.102  -6.152   5.455  0.00  0.00    +0.133 C 
ATOM      2  C   UNL     1      -1.208  -5.966   6.223  0.00  0.00    +0.029 C 
ENDROOT
BRANCH   1   3
ATOM      3  C   UNL     1       0.263  -7.602   5.078  0.00  0.00    +0.246 C 
ATOM      4  O   UNL     1      -0.011  -7.971   3.957  0.00  0.00    -0.271 OA
ATOM      5  N   UNL     1       0.710  -8.489   5.989  0.00  0.00    -0.273 N 
ATOM      6  C   UNL     1       1.123  -8.055   7.222  0.00  0.00    +0.096 A 
ATOM      7  C   UNL     1       1.573  -8.928   8.143  0.00  0.00    +0.018 A 
ATOM      8  C   UNL     1       1.628 -10.305   7.856  0.00  0.00    +0.005 A 
ATOM      9  C   UNL     1       1.224 -10.758   6.642  0.00  0.00    +0.044 A 
ATOM     10  C   UNL     1       0.747  -9.835   5.680  0.00  0.00    +0.114 A 
ATOM     11  N   UNL     1       0.347 -10.255   4.501  0.00  0.00    -0.368 N 
ATOM     12  H   UNL     1       0.097  -9.614   3.817  0.00  0.00    +0.161 HD
BRANCH  11  13
ATOM     13  C   UNL     1       0.277 -11.691   4.220  0.00  0.00    +0.081 C 
ATOM     14  C   UNL     1      -1.064 -12.242   4.708  0.00  0.00    +0.024 C 
ATOM     15  C   UNL     1      -1.136 -13.742   4.415  0.00  0.00    +0.002 C 
ATOM     16  C   UNL     1      -1.008 -13.973   2.908  0.00  0.00    +0.000 C 
ATOM     17  C   UNL     1       0.333 -13.422   2.419  0.00  0.00    +0.002 C 
ATOM     18  C   UNL     1       0.405 -11.922   2.713  0.00  0.00    +0.024 C 
ENDBRANCH  11  13
ENDBRANCH   1   3
BRANCH   1  19
ATOM     19  S   UNL     1       0.071  -5.137   3.951  0.00  0.00    -0.140 S 
BRANCH  19  20
ATOM     20  C   UNL     1       0.029  -3.433   4.573  0.00  0.00    +0.144 C 
BRANCH  20  31
ATOM     21  C   UNL     1      -0.117   1.524   0.062  0.00  0.00    +0.045 C 
ATOM     22  C   UNL     1      -0.078   0.018   0.045  0.00  0.00    -0.026 A 
ATOM     23  C   UNL     1      -0.059  -0.649  -1.120  0.00  0.00    -0.008 A 
ATOM     24  S   UNL     1      -0.015  -2.359  -0.617  0.00  0.00    -0.073 S 
ATOM     25  C   UNL     1      -0.022  -2.128   1.143  0.00  0.00    +0.116 A 
ATOM     26  C   UNL     1      -0.053  -0.730   1.289  0.00  0.00    +0.075 A 
ATOM     27  C   UNL     1      -0.061  -0.248   2.639  0.00  0.00    +0.260 A 
ATOM     28  O   UNL     1      -0.092   0.948   2.870  0.00  0.00    -0.267 OA
ATOM     29  N   UNL     1      -0.034  -1.139   3.648  0.00  0.00    -0.310 N 
ATOM     30  H   UNL     1      -0.040  -0.819   4.564  0.00  0.00    +0.170 HD
ATOM     31  C   UNL     1      -0.000  -2.475   3.410  0.00  0.00    +0.121 A 
ATOM     32  N   UNL     1      -0.001  -2.945   2.192  0.00  0.00    -0.226 NA
ATOM     33  C   UNL     1      -0.074  -0.087  -2.518  0.00  0.00    +0.052 C 
ENDBRANCH  20  31
ENDBRANCH  19  20
ENDBRANCH   1  19
TORSDOF 5
