REMARK  Name = ZINC38898297
REMARK  5 active torsions:
REMARK  status: ('A' for Active; 'I' for Inactive)
REMARK    1  A    between atoms: C_10  and  C_11
REMARK    2  A    between atoms: C_14  and  C_16
REMARK    3  A    between atoms: N_18  and  N_19
REMARK    4  A    between atoms: C_20  and  C_21
REMARK    5  A    between atoms: C_25  and  O_27
REMARK                            x       y       z     vdW  Elec       q    Type
REMARK                         _______ _______ _______ _____ _____    ______ ____
ROOT
ATOM      1  C   UNL     1       4.978   0.084  -0.046  0.00  0.00    +0.077 C 
ATOM      2  N   UNL     1       5.151   1.387  -0.035  0.00  0.00    -0.153 NA
ATOM      3  N   UNL     1       6.373   1.753  -0.047  0.00  0.00    -0.148 NA
ATOM      4  C   UNL     1       7.232   0.766  -0.067  0.00  0.00    +0.132 C 
ATOM      5  C   UNL     1       6.384  -0.495  -0.063  0.00  0.00    +0.120 C 
ENDROOT
BRANCH   1  15
ATOM      6  C   UNL     1      -0.016   1.358   0.009  0.00  0.00    +0.001 A 
ATOM      7  C   UNL     1       1.167   2.091   0.002  0.00  0.00    +0.001 A 
ATOM      8  C   UNL     1       2.379   1.464  -0.013  0.00  0.00    +0.009 A 
ATOM      9  C   UNL     1       2.435   0.067  -0.021  0.00  0.00    -0.009 A 
ATOM     10  C   UNL     1       1.233  -0.682  -0.013  0.00  0.00    -0.017 A 
ATOM     11  C   UNL     1       0.002  -0.004   0.002  0.00  0.00    +0.008 A 
ATOM     12  C   UNL     1       1.294  -2.086  -0.021  0.00  0.00    +0.008 A 
ATOM     13  C   UNL     1       2.493  -2.732  -0.035  0.00  0.00    +0.001 A 
ATOM     14  C   UNL     1       3.696  -2.043  -0.043  0.00  0.00    +0.010 A 
ATOM     15  C   UNL     1       3.713  -0.648  -0.037  0.00  0.00    +0.006 A 
ENDBRANCH   1  15
BRANCH   4  16
ATOM     16  C   UNL     1       8.694   0.857  -0.085  0.00  0.00    +0.280 C 
ATOM     17  O   UNL     1       9.367  -0.157  -0.104  0.00  0.00    -0.267 OA
ATOM     18  N   UNL     1       9.294   2.064  -0.080  0.00  0.00    -0.202 N 
ATOM     19  H   UNL     1       8.758   2.872  -0.065  0.00  0.00    +0.178 HD
BRANCH  18  20
ATOM     20  N   UNL     1      10.692   2.151  -0.096  0.00  0.00    -0.187 NA
ATOM     21  C   UNL     1      11.270   3.313  -0.091  0.00  0.00    +0.138 C 
BRANCH  21  22
ATOM     22  C   UNL     1      12.742   3.405  -0.109  0.00  0.00    -0.002 A 
ATOM     23  C   UNL     1      13.517   2.242  -0.137  0.00  0.00    +0.010 A 
ATOM     24  C   UNL     1      14.893   2.332  -0.153  0.00  0.00    +0.004 A 
ATOM     25  C   UNL     1      15.510   3.570  -0.143  0.00  0.00    +0.045 A 
ATOM     26  C   UNL     1      14.749   4.731  -0.116  0.00  0.00    +0.117 A 
ATOM     27  C   UNL     1      13.367   4.653  -0.104  0.00  0.00    +0.054 A 
BRANCH  26  28
ATOM     28  O   UNL     1      15.361   5.944  -0.105  0.00  0.00    -0.507 OA
ATOM     29  H   UNL     1      15.527   6.308  -0.986  0.00  0.00    +0.292 HD
ENDBRANCH  26  28
ENDBRANCH  21  22
ENDBRANCH  18  20
ENDBRANCH   4  16
TORSDOF 5
