REMARK  Name = ZINC09136758
REMARK  9 active torsions:
REMARK  status: ('A' for Active; 'I' for Inactive)
REMARK    1  A    between atoms: C_1  and  C_2
REMARK    2  A    between atoms: C_2  and  C_3
REMARK    3  A    between atoms: C_2  and  C_4
REMARK    4  A    between atoms: C_2  and  C_5
REMARK    5  A    between atoms: N_9  and  N_10
REMARK    6  A    between atoms: C_11  and  C_13
REMARK    7  A    between atoms: C_16  and  N_19
REMARK    8  A    between atoms: N_19  and  S_20
REMARK    9  A    between atoms: S_20  and  C_23
REMARK                            x       y       z     vdW  Elec       q    Type
REMARK                         _______ _______ _______ _____ _____    ______ ____
ROOT
ATOM      1  C   UNL     1      -0.028   6.965  -4.939  0.00  0.00    +0.038 A 
ATOM      2  C   UNL     1      -1.329   6.459  -5.021  0.00  0.00    +0.015 A 
ATOM      3  C   UNL     1      -2.141   6.821  -6.071  0.00  0.00    +0.025 A 
ATOM      4  C   UNL     1      -1.665   7.681  -7.057  0.00  0.00    +0.048 A 
ATOM      5  C   UNL     1      -0.369   8.182  -6.981  0.00  0.00    +0.025 A 
ATOM      6  C   UNL     1       0.447   7.829  -5.930  0.00  0.00    +0.015 A 
ENDROOT
BRANCH   1   8
ATOM      7  N   UNL     1       0.384   5.751  -2.857  0.00  0.00    -0.203 N 
ATOM      8  C   UNL     1       0.843   6.584  -3.812  0.00  0.00    +0.263 C 
ATOM      9  O   UNL     1       1.976   7.021  -3.744  0.00  0.00    -0.268 OA
ATOM     10  H   UNL     1      -0.519   5.402  -2.910  0.00  0.00    +0.178 HD
BRANCH   7  15
ATOM     11  C   UNL     1       0.302   1.989   0.261  0.00  0.00    -0.005 C 
ATOM     12  C   UNL     1      -0.495   2.425  -0.970  0.00  0.00    +0.010 C 
ATOM     13  C   UNL     1      -0.587   3.954  -1.001  0.00  0.00    +0.053 C 
ATOM     14  C   UNL     1       0.813   4.522  -0.933  0.00  0.00    +0.037 C 
ATOM     15  N   UNL     1       1.212   5.389  -1.786  0.00  0.00    -0.189 NA
ATOM     16  C   UNL     1       1.730   4.038   0.168  0.00  0.00    +0.053 C 
ATOM     17  C   UNL     1       1.738   2.506   0.158  0.00  0.00    +0.010 C 
BRANCH  11  19
ATOM     18  C   UNL     1       1.106   0.024   1.578  0.00  0.00    +0.011 C 
ATOM     19  C   UNL     1       0.316   0.461   0.343  0.00  0.00    -0.035 C 
ATOM     20  C   UNL     1      -1.120  -0.057   0.446  0.00  0.00    +0.011 C 
ATOM     21  C   UNL     1       0.976  -0.111  -0.913  0.00  0.00    +0.011 C 
ENDBRANCH  11  19
ENDBRANCH   7  15
ENDBRANCH   1   8
BRANCH   4  22
ATOM     22  N   UNL     1      -2.487   8.040  -8.120  0.00  0.00    -0.216 N 
ATOM     23  H   UNL     1      -3.205   8.678  -7.984  0.00  0.00    +0.174 HD
BRANCH  22  24
ATOM     24  S   UNL     1      -2.240   7.379  -9.617  0.00  0.00    +0.079 S 
ATOM     25  O   UNL     1      -3.263   7.891 -10.461  0.00  0.00    -0.149 OA
ATOM     26  O   UNL     1      -0.859   7.540  -9.910  0.00  0.00    -0.149 OA
BRANCH  24  27
ATOM     27  C   UNL     1      -2.525   5.646  -9.475  0.00  0.00    +0.146 A 
ATOM     28  C   UNL     1      -3.658   4.944  -9.724  0.00  0.00    +0.036 A 
ATOM     29  C   UNL     1      -3.650   3.574  -9.542  0.00  0.00    +0.010 A 
ATOM     30  C   UNL     1      -2.511   2.972  -9.120  0.00  0.00    +0.047 A 
ATOM     31  S   UNL     1      -1.395   4.358  -8.973  0.00  0.00    -0.077 S 
ENDBRANCH  24  27
ENDBRANCH  22  24
ENDBRANCH   4  22
TORSDOF 6
