REMARK  Name = ZINC35938600
REMARK  6 active torsions:
REMARK  status: ('A' for Active; 'I' for Inactive)
REMARK    1  A    between atoms: C_1  and  C_2
REMARK    2  A    between atoms: C_9  and  C_11
REMARK    3  A    between atoms: C_21  and  C_23
REMARK    4  A    between atoms: C_23  and  C_24
REMARK    5  A    between atoms: C_24  and  N_25
REMARK    6  A    between atoms: C_33  and  C_35
REMARK                            x       y       z     vdW  Elec       q    Type
REMARK                         _______ _______ _______ _____ _____    ______ ____
ROOT
ATOM      1  C   UNL     1       0.018   1.552   0.014  0.00  0.00    +0.029 C 
ATOM      2  C   UNL     1       0.020   0.022   0.001  0.00  0.00    +0.091 C 
ATOM      3  C   UNL     1      -1.425  -0.494   0.016  0.00  0.00    +0.130 C 
ATOM      4  N   UNL     1      -2.007  -0.221   1.337  0.00  0.00    -0.298 N 
ATOM      5  C   UNL     1      -1.317  -0.724   2.533  0.00  0.00    +0.127 C 
ATOM      6  C   UNL     1       0.127  -0.208   2.518  0.00  0.00    +0.127 C 
ATOM      7  N   UNL     1       0.714  -0.480   1.195  0.00  0.00    -0.292 N 
ATOM      8  C   UNL     1       1.860  -1.179   1.079  0.00  0.00    +0.248 C 
ATOM      9  O   UNL     1       2.275  -1.488  -0.022  0.00  0.00    -0.270 OA
ATOM     10  C   UNL     1      -3.154   0.477   1.450  0.00  0.00    +0.214 C 
ATOM     11  O   UNL     1      -3.715   0.888   0.456  0.00  0.00    -0.276 OA
ENDROOT
BRANCH   8  12
ATOM     12  C   UNL     1       2.612  -1.569   2.286  0.00  0.00    +0.045 A 
ATOM     13  C   UNL     1       2.989  -0.613   3.217  0.00  0.00    +0.014 A 
ATOM     14  C   UNL     1       3.696  -0.974   4.357  0.00  0.00    +0.001 A 
ATOM     15  C   UNL     1       4.040  -2.272   4.592  0.00  0.00    +0.008 A 
ATOM     16  C   UNL     1       3.679  -3.274   3.675  0.00  0.00    -0.017 A 
ATOM     17  C   UNL     1       2.952  -2.926   2.511  0.00  0.00    -0.006 A 
ATOM     18  C   UNL     1       2.588  -3.928   1.601  0.00  0.00    +0.009 A 
ATOM     19  C   UNL     1       2.933  -5.223   1.848  0.00  0.00    +0.001 A 
ATOM     20  C   UNL     1       3.642  -5.568   2.996  0.00  0.00    +0.001 A 
ATOM     21  C   UNL     1       4.023  -4.619   3.896  0.00  0.00    +0.008 A 
ENDBRANCH   8  12
BRANCH  10  22
ATOM     22  C   UNL     1      -3.740   0.749   2.811  0.00  0.00    +0.077 C 
BRANCH  22  23
ATOM     23  C   UNL     1      -5.032   1.554   2.659  0.00  0.00    -0.068 C 
BRANCH  23  24
ATOM     24  N   UNL     1      -5.603   1.819   3.986  0.00  0.00    +0.388 N 
ATOM     25  C   UNL     1      -4.674   2.659   4.754  0.00  0.00    -0.072 C 
ATOM     26  C   UNL     1      -5.106   2.659   6.230  0.00  0.00    +0.024 C 
ATOM     27  C   UNL     1      -6.579   2.909   6.268  0.00  0.00    -0.010 A 
ATOM     28  C   UNL     1      -7.437   2.848   5.211  0.00  0.00    -0.047 A 
ATOM     29  C   UNL     1      -8.775   3.126   5.480  0.00  0.00    +0.010 A 
ATOM     30  C   UNL     1      -9.162   3.432   6.740  0.00  0.00    +0.045 A 
ATOM     31  S   UNL     1      -7.617   3.342   7.634  0.00  0.00    -0.101 S 
ATOM     32  C   UNL     1      -6.901   2.486   3.829  0.00  0.00    -0.006 C 
ATOM     33  H   UNL     1      -5.737   0.944   4.471  0.00  0.00    -0.080 HD
BRANCH  32  34
ATOM     34  C   UNL     1      -7.867   1.557   3.140  0.00  0.00    -0.057 A 
ATOM     35  C   UNL     1      -7.886   0.214   3.466  0.00  0.00    +0.002 A 
ATOM     36  C   UNL     1      -8.772  -0.638   2.834  0.00  0.00    +0.000 A 
ATOM     37  C   UNL     1      -9.639  -0.147   1.876  0.00  0.00    +0.000 A 
ATOM     38  C   UNL     1      -9.621   1.196   1.550  0.00  0.00    +0.000 A 
ATOM     39  C   UNL     1      -8.738   2.049   2.186  0.00  0.00    +0.002 A 
ENDBRANCH  32  34
ENDBRANCH  23  24
ENDBRANCH  22  23
ENDBRANCH  10  22
TORSDOF 5
