REMARK  Name = ZINC35665067
REMARK  5 active torsions:
REMARK  status: ('A' for Active; 'I' for Inactive)
REMARK    1  A    between atoms: C_4  and  C_7
REMARK    2  A    between atoms: C_7  and  C_8
REMARK    3  A    between atoms: N_12  and  C_28
REMARK    4  A    between atoms: C_20  and  C_22
REMARK    5  A    between atoms: C_28  and  C_29
REMARK                            x       y       z     vdW  Elec       q    Type
REMARK                         _______ _______ _______ _____ _____    ______ ____
ROOT
ATOM      1  C   UNL     1       6.772   0.325   2.438  0.00  0.00    +0.023 C 
ATOM      2  C   UNL     1       6.741  -1.180   2.592  0.00  0.00    +0.201 C 
ATOM      3  O   UNL     1       7.677  -1.878   2.921  0.00  0.00    -0.277 OA
ATOM      4  N   UNL     1       5.497  -1.614   2.303  0.00  0.00    -0.309 N 
ATOM      5  C   UNL     1       4.648  -0.471   1.957  0.00  0.00    +0.006 C 
ATOM      6  N   UNL     1       5.560   0.652   1.647  0.00  0.00    +0.401 N 
ATOM      7  C   UNL     1       3.795  -0.797   0.732  0.00  0.00    +0.025 C 
ATOM      8  C   UNL     1       2.880  -1.984   1.051  0.00  0.00    +0.108 C 
ATOM      9  N   UNL     1       2.114  -1.677   2.266  0.00  0.00    -0.298 N 
ATOM     10  C   UNL     1       2.841  -1.279   3.479  0.00  0.00    +0.108 C 
ATOM     11  C   UNL     1       3.756  -0.098   3.140  0.00  0.00    +0.025 C 
ATOM     12  C   UNL     1       0.769  -1.758   2.268  0.00  0.00    +0.247 C 
ATOM     13  O   UNL     1       0.182  -2.152   1.279  0.00  0.00    -0.270 OA
ATOM     14  H   UNL     1       5.163   1.529   1.949  0.00  0.00    -0.082 HD
ATOM     15  H   UNL     1       5.774   0.676   0.661  0.00  0.00    -0.082 HD
ENDROOT
BRANCH  12  16
ATOM     16  C   UNL     1       0.006  -1.369   3.474  0.00  0.00    +0.037 A 
ATOM     17  C   UNL     1      -1.059  -0.474   3.371  0.00  0.00    +0.013 A 
ATOM     18  C   UNL     1      -1.767  -0.115   4.500  0.00  0.00    +0.001 A 
ATOM     19  C   UNL     1      -1.422  -0.641   5.732  0.00  0.00    +0.000 A 
ATOM     20  C   UNL     1      -0.366  -1.529   5.841  0.00  0.00    +0.001 A 
ATOM     21  C   UNL     1       0.345  -1.901   4.720  0.00  0.00    +0.013 A 
ENDBRANCH  12  16
BRANCH   1  22
ATOM     22  C   UNL     1       8.032   0.758   1.685  0.00  0.00    +0.028 C 
BRANCH  22  26
ATOM     23  C   UNL     1       8.133   5.019   1.405  0.00  0.00    +0.000 A 
ATOM     24  C   UNL     1       8.715   4.384   2.485  0.00  0.00    +0.000 A 
ATOM     25  C   UNL     1       8.682   3.005   2.576  0.00  0.00    +0.003 A 
ATOM     26  C   UNL     1       8.066   2.261   1.587  0.00  0.00    -0.048 A 
ATOM     27  C   UNL     1       7.483   2.897   0.507  0.00  0.00    +0.003 A 
ATOM     28  C   UNL     1       7.517   4.276   0.415  0.00  0.00    +0.000 A 
ENDBRANCH  22  26
ENDBRANCH   1  22
BRANCH   4  29
ATOM     29  C   UNL     1       5.062  -3.013   2.330  0.00  0.00    +0.141 C 
BRANCH  29  30
ATOM     30  C   UNL     1       5.509  -3.703   1.067  0.00  0.00    -0.026 A 
ATOM     31  C   UNL     1       5.545  -5.084   1.011  0.00  0.00    +0.009 A 
ATOM     32  C   UNL     1       5.953  -5.721  -0.145  0.00  0.00    +0.050 A 
ATOM     33  C   UNL     1       6.329  -4.977  -1.252  0.00  0.00    +0.166 A 
ATOM     34  C   UNL     1       6.292  -3.586  -1.196  0.00  0.00    +0.167 A 
ATOM     35  C   UNL     1       5.876  -2.954  -0.035  0.00  0.00    +0.054 A 
ATOM     36  O   UNL     1       6.704  -3.089  -2.399  0.00  0.00    -0.453 OA
ATOM     37  C   UNL     1       7.381  -4.179  -3.053  0.00  0.00    +0.466 C 
ATOM     38  O   UNL     1       6.763  -5.352  -2.490  0.00  0.00    -0.453 OA
ENDBRANCH  29  30
ENDBRANCH   4  29
TORSDOF 5
