REMARK  Name = ZINC39684594
REMARK  10 active torsions:
REMARK  status: ('A' for Active; 'I' for Inactive)
REMARK    1  A    between atoms: C_1  and  C_2
REMARK    2  A    between atoms: C_2  and  C_4
REMARK    3  A    between atoms: C_2  and  N_8
REMARK    4  A    between atoms: C_4  and  C_5
REMARK    5  A    between atoms: C_4  and  C_6
REMARK    6  A    between atoms: C_4  and  C_7
REMARK    7  A    between atoms: C_9  and  C_11
REMARK    8  A    between atoms: C_22  and  C_24
REMARK    9  A    between atoms: C_29  and  S_30
REMARK   10  A    between atoms: S_30  and  C_31
REMARK                            x       y       z     vdW  Elec       q    Type
REMARK                         _______ _______ _______ _____ _____    ______ ____
ROOT
ATOM      1  C   UNL     1       0.715  -1.094  -3.594  0.00  0.00    +0.100 C 
ATOM      2  C   UNL     1       1.345  -2.485  -3.353  0.00  0.00    +0.121 C 
ATOM      3  N   UNL     1       0.331  -3.446  -3.847  0.00  0.00    -0.296 N 
ATOM      4  C   UNL     1      -0.211  -2.812  -5.073  0.00  0.00    +0.115 C 
ATOM      5  C   UNL     1      -0.302  -1.313  -4.726  0.00  0.00    -0.004 C 
ATOM      6  C   UNL     1       0.068  -0.466  -5.940  0.00  0.00    -0.010 C 
ATOM      7  C   UNL     1      -0.990  -0.656  -7.031  0.00  0.00    -0.082 C 
ATOM      8  N   UNL     1      -2.305  -0.257  -6.514  0.00  0.00    +0.379 N 
ATOM      9  C   UNL     1      -2.695  -1.137  -5.406  0.00  0.00    -0.082 C 
ATOM     10  C   UNL     1      -1.709  -0.968  -4.246  0.00  0.00    -0.010 C 
ATOM     11  C   UNL     1      -0.020  -4.629  -3.304  0.00  0.00    +0.249 C 
ATOM     12  O   UNL     1       0.450  -4.971  -2.236  0.00  0.00    -0.270 OA
ATOM     13  H   UNL     1      -2.261   0.696  -6.186  0.00  0.00    -0.086 HD
ATOM     14  H   UNL     1      -2.990  -0.325  -7.252  0.00  0.00    -0.086 HD
ENDROOT
BRANCH  11  15
ATOM     15  C   UNL     1      -0.972  -5.508  -4.006  0.00  0.00    +0.069 A 
ATOM     16  C   UNL     1      -0.978  -5.580  -5.404  0.00  0.00    +0.017 A 
ATOM     17  C   UNL     1      -1.891  -6.421  -6.015  0.00  0.00    +0.020 A 
ATOM     18  C   UNL     1      -2.765  -7.160  -5.236  0.00  0.00    +0.112 A 
ATOM     19  N   UNL     1      -2.744  -7.079  -3.920  0.00  0.00    -0.248 NA
ATOM     20  C   UNL     1      -1.887  -6.294  -3.284  0.00  0.00    +0.114 A 
BRANCH  20  21
ATOM     21  S   UNL     1      -1.899  -6.229  -1.523  0.00  0.00    -0.069 S 
BRANCH  21  22
ATOM     22  C   UNL     1      -3.272  -7.235  -1.069  0.00  0.00    +0.014 A 
ATOM     23  C   UNL     1      -3.078  -8.572  -0.743  0.00  0.00    +0.015 A 
ATOM     24  C   UNL     1      -4.157  -9.357  -0.387  0.00  0.00    +0.001 A 
ATOM     25  C   UNL     1      -5.429  -8.815  -0.355  0.00  0.00    +0.000 A 
ATOM     26  C   UNL     1      -5.625  -7.485  -0.679  0.00  0.00    +0.001 A 
ATOM     27  C   UNL     1      -4.551  -6.692  -1.030  0.00  0.00    +0.015 A 
ENDBRANCH  21  22
ENDBRANCH  20  21
ENDBRANCH  11  15
BRANCH   1  29
ATOM     28  N   UNL     1      -0.057   0.710  -2.089  0.00  0.00    -0.312 N 
ATOM     29  C   UNL     1       0.018  -0.611  -2.349  0.00  0.00    +0.218 C 
ATOM     30  O   UNL     1      -0.474  -1.409  -1.580  0.00  0.00    -0.275 OA
ATOM     31  H   UNL     1       0.337   1.349  -2.703  0.00  0.00    +0.149 HD
BRANCH  28  33
ATOM     32  C   UNL     1      -2.236   1.296  -1.146  0.00  0.00    +0.028 C 
ATOM     33  C   UNL     1      -0.735   1.180  -0.878  0.00  0.00    +0.075 C 
BRANCH  33  34
ATOM     34  C   UNL     1      -0.180   2.550  -0.483  0.00  0.00    -0.020 C 
ATOM     35  C   UNL     1      -0.887   3.042   0.782  0.00  0.00    +0.012 C 
ATOM     36  C   UNL     1       1.322   2.435  -0.215  0.00  0.00    +0.012 C 
ATOM     37  C   UNL     1      -0.420   3.545  -1.621  0.00  0.00    +0.012 C 
ENDBRANCH  33  34
ENDBRANCH  28  33
ENDBRANCH   1  29
TORSDOF 6
