REMARK  Name = ZINC59339624
REMARK  7 active torsions:
REMARK  status: ('A' for Active; 'I' for Inactive)
REMARK    1  A    between atoms: C_1  and  C_2
REMARK    2  A    between atoms: C_2  and  C_3
REMARK    3  A    between atoms: C_2  and  N_4
REMARK    4  A    between atoms: N_4  and  C_5
REMARK    5  A    between atoms: C_11  and  C_13
REMARK    6  A    between atoms: N_18  and  C_20
REMARK    7  A    between atoms: C_24  and  N_26
REMARK                            x       y       z     vdW  Elec       q    Type
REMARK                         _______ _______ _______ _____ _____    ______ ____
ROOT
ATOM      1  C   UNL     1      -2.093   0.094   2.123  0.00  0.00    +0.102 C 
ATOM      2  C   UNL     1      -2.126   1.634   1.993  0.00  0.00    +0.110 C 
ATOM      3  C   UNL     1      -3.593   1.985   2.110  0.00  0.00    +0.221 C 
ATOM      4  O   UNL     1      -4.081   3.047   1.786  0.00  0.00    -0.275 OA
ATOM      5  N   UNL     1      -4.277   0.948   2.625  0.00  0.00    -0.271 N 
ATOM      6  C   UNL     1      -3.388  -0.184   2.918  0.00  0.00    +0.127 C 
ENDROOT
BRANCH   5   7
ATOM      7  C   UNL     1      -5.658   0.948   2.853  0.00  0.00    +0.039 A 
ATOM      8  C   UNL     1      -6.434   2.017   2.423  0.00  0.00    +0.026 A 
ATOM      9  C   UNL     1      -7.796   2.014   2.648  0.00  0.00    +0.042 A 
ATOM     10  C   UNL     1      -8.389   0.948   3.304  0.00  0.00    +0.154 A 
ATOM     11  C   UNL     1      -7.617  -0.118   3.733  0.00  0.00    +0.163 A 
ATOM     12  C   UNL     1      -6.255  -0.123   3.504  0.00  0.00    +0.059 A 
ATOM     13  F   UNL     1      -9.722   0.948   3.525  0.00  0.00    -0.203 F 
BRANCH  11  14
ATOM     14  N   UNL     1      -8.253  -1.257   4.434  0.00  0.00    +0.059 N 
ATOM     15  O   UNL     1      -7.580  -2.188   4.809  0.00  0.00    -0.126 OA
ATOM     16  O   UNL     1      -9.446  -1.255   4.631  0.00  0.00    -0.126 OA
ENDBRANCH  11  14
ENDBRANCH   5   7
BRANCH   1  18
ATOM     17  N   UNL     1      -1.071  -0.499  -0.050  0.00  0.00    -0.269 N 
ATOM     18  C   UNL     1      -2.140  -0.563   0.768  0.00  0.00    +0.225 C 
ATOM     19  O   UNL     1      -3.141  -1.149   0.412  0.00  0.00    -0.275 OA
BRANCH  17  20
ATOM     20  C   UNL     1      -1.151  -1.012  -1.349  0.00  0.00    +0.037 A 
ATOM     21  C   UNL     1      -0.106  -0.815  -2.241  0.00  0.00    +0.023 A 
ATOM     22  C   UNL     1      -0.189  -1.323  -3.523  0.00  0.00    +0.002 A 
ATOM     23  C   UNL     1      -1.311  -2.027  -3.918  0.00  0.00    +0.000 A 
ATOM     24  C   UNL     1      -2.354  -2.226  -3.032  0.00  0.00    +0.002 A 
ATOM     25  C   UNL     1      -2.275  -1.725  -1.747  0.00  0.00    +0.023 A 
ENDBRANCH  17  20
BRANCH  17  27
ATOM     26  C   UNL     1       1.328  -0.883   0.235  0.00  0.00    +0.028 C 
ATOM     27  C   UNL     1       0.177   0.107   0.422  0.00  0.00    +0.075 C 
ATOM     28  C   UNL     1       0.462   1.378  -0.381  0.00  0.00    +0.028 C 
ENDBRANCH  17  27
ENDBRANCH   1  18
TORSDOF 5
