REMARK  Name = ZINC38728600
REMARK  13 active torsions:
REMARK  status: ('A' for Active; 'I' for Inactive)
REMARK    1  A    between atoms: C_1  and  C_2
REMARK    2  A    between atoms: C_2  and  C_3
REMARK    3  A    between atoms: N_16  and  C_33
REMARK    4  A    between atoms: C_17  and  C_19
REMARK    5  A    between atoms: C_22  and  O_25
REMARK    6  A    between atoms: O_25  and  C_26
REMARK    7  A    between atoms: C_26  and  C_27
REMARK    8  A    between atoms: C_33  and  C_34
REMARK    9  A    between atoms: C_34  and  N_35
REMARK   10  A    between atoms: N_35  and  C_36
REMARK   11  A    between atoms: N_35  and  C_38
REMARK   12  A    between atoms: C_36  and  C_37
REMARK   13  A    between atoms: C_38  and  C_39
REMARK                            x       y       z     vdW  Elec       q    Type
REMARK                         _______ _______ _______ _____ _____    ______ ____
ROOT
ATOM      1  C   UNL     1       0.279  -0.965  -1.828  0.00  0.00    -0.047 A 
ATOM      2  C   UNL     1      -0.324  -1.154  -3.063  0.00  0.00    +0.007 A 
ATOM      3  C   UNL     1       0.417  -1.534  -4.160  0.00  0.00    +0.047 A 
ATOM      4  C   UNL     1       1.793  -1.730  -4.038  0.00  0.00    +0.139 A 
ATOM      5  C   UNL     1       2.393  -1.529  -2.785  0.00  0.00    +0.065 A 
ATOM      6  C   UNL     1       1.627  -1.144  -1.685  0.00  0.00    +0.019 A 
ATOM      7  C   UNL     1       3.860  -1.721  -2.650  0.00  0.00    +0.199 A 
ATOM      8  O   UNL     1       4.435  -1.734  -1.576  0.00  0.00    -0.287 OA
ATOM      9  C   UNL     1       4.549  -1.895  -3.932  0.00  0.00    +0.072 A 
ATOM     10  C   UNL     1       3.848  -2.074  -5.091  0.00  0.00    +0.199 A 
ATOM     11  O   UNL     1       2.501  -2.110  -5.127  0.00  0.00    -0.450 OA
ATOM     12  C   UNL     1       4.810  -2.209  -6.198  0.00  0.00    +0.283 C 
ATOM     13  O   UNL     1       4.511  -2.377  -7.364  0.00  0.00    -0.267 OA
ATOM     14  N   UNL     1       6.072  -2.120  -5.729  0.00  0.00    -0.285 N 
ATOM     15  C   UNL     1       6.003  -1.919  -4.272  0.00  0.00    +0.144 C 
ENDROOT
BRANCH  15  16
ATOM     16  C   UNL     1       6.646  -0.608  -3.898  0.00  0.00    -0.022 A 
ATOM     17  C   UNL     1       6.483   0.498  -4.713  0.00  0.00    +0.009 A 
ATOM     18  C   UNL     1       7.071   1.700  -4.372  0.00  0.00    +0.046 A 
ATOM     19  C   UNL     1       7.826   1.798  -3.212  0.00  0.00    +0.121 A 
ATOM     20  C   UNL     1       7.987   0.687  -2.397  0.00  0.00    +0.046 A 
ATOM     21  C   UNL     1       7.393  -0.512  -2.739  0.00  0.00    +0.009 A 
BRANCH  19  22
ATOM     22  O   UNL     1       8.406   2.980  -2.875  0.00  0.00    -0.487 OA
BRANCH  22  23
ATOM     23  C   UNL     1       9.168   3.007  -1.667  0.00  0.00    +0.264 C 
BRANCH  23  24
ATOM     24  C   UNL     1       9.731   4.390  -1.459  0.00  0.00    -0.010 A 
ATOM     25  C   UNL     1      10.968   4.718  -1.981  0.00  0.00    +0.007 A 
ATOM     26  C   UNL     1      11.484   5.986  -1.790  0.00  0.00    +0.000 A 
ATOM     27  C   UNL     1      10.763   6.926  -1.078  0.00  0.00    +0.000 A 
ATOM     28  C   UNL     1       9.525   6.598  -0.557  0.00  0.00    +0.000 A 
ATOM     29  C   UNL     1       9.007   5.331  -0.751  0.00  0.00    +0.007 A 
ENDBRANCH  23  24
ENDBRANCH  22  23
ENDBRANCH  19  22
ENDBRANCH  15  16
BRANCH   1  31
ATOM     30  C   UNL     1      -0.615   0.974  -0.567  0.00  0.00    +0.009 C 
ATOM     31  C   UNL     1      -0.553  -0.553  -0.641  0.00  0.00    +0.032 C 
ENDBRANCH   1  31
BRANCH  14  32
ATOM     32  C   UNL     1       7.296  -2.209  -6.529  0.00  0.00    +0.090 C 
BRANCH  32  33
ATOM     33  C   UNL     1       7.696  -0.812  -7.007  0.00  0.00    -0.060 C 
BRANCH  33  34
ATOM     34  N   UNL     1       8.841  -0.916  -7.921  0.00  0.00    +0.380 N 
ATOM     35  H   UNL     1       9.586  -1.426  -7.470  0.00  0.00    -0.082 HD
BRANCH  34  36
ATOM     36  C   UNL     1       8.431  -1.624  -9.141  0.00  0.00    -0.082 C 
ATOM     37  C   UNL     1       9.651  -1.842 -10.038  0.00  0.00    -0.017 C 
ENDBRANCH  34  36
BRANCH  34  38
ATOM     38  C   UNL     1       9.312   0.431  -8.271  0.00  0.00    -0.082 C 
ATOM     39  C   UNL     1       9.870   1.116  -7.022  0.00  0.00    -0.017 C 
ENDBRANCH  34  38
ENDBRANCH  33  34
ENDBRANCH  32  33
ENDBRANCH  14  32
TORSDOF 10
