REMARK  Name = ZINC43093592
REMARK  10 active torsions:
REMARK  status: ('A' for Active; 'I' for Inactive)
REMARK    1  A    between atoms: C_1  and  C_2
REMARK    2  A    between atoms: C_2  and  C_4
REMARK    3  A    between atoms: C_2  and  N_22
REMARK    4  A    between atoms: C_4  and  C_6
REMARK    5  A    between atoms: C_4  and  N_13
REMARK    6  A    between atoms: N_13  and  C_14
REMARK    7  A    between atoms: N_13  and  C_19
REMARK    8  A    between atoms: C_14  and  C_15
REMARK    9  A    between atoms: C_19  and  C_20
REMARK   10  A    between atoms: C_19  and  C_21
REMARK                            x       y       z     vdW  Elec       q    Type
REMARK                         _______ _______ _______ _____ _____    ______ ____
ROOT
ATOM      1  C   UNL     1       0.838   0.080   1.390  0.00  0.00    +0.074 C 
ENDROOT
BRANCH   1   2
ATOM      2  C   UNL     1       1.338  -1.319   1.141  0.00  0.00    -0.018 A 
ATOM      3  C   UNL     1       0.692  -2.397   1.716  0.00  0.00    +0.006 A 
ATOM      4  C   UNL     1       1.150  -3.681   1.486  0.00  0.00    +0.000 A 
ATOM      5  C   UNL     1       2.256  -3.887   0.682  0.00  0.00    +0.001 A 
ATOM      6  C   UNL     1       2.903  -2.810   0.107  0.00  0.00    +0.015 A 
ATOM      7  C   UNL     1       2.441  -1.526   0.332  0.00  0.00    +0.022 A 
ATOM      8 BR   UNL     1       3.322  -0.052  -0.461  0.00  0.00    -0.050 Br
ENDBRANCH   1   2
BRANCH   1  10
ATOM      9  C   UNL     1      -0.484   1.973   0.435  0.00  0.00    -0.012 C 
ATOM     10  C   UNL     1      -0.018   0.534   0.206  0.00  0.00    -0.056 C 
BRANCH  10  11
ATOM     11  N   UNL     1       0.778   0.468  -1.027  0.00  0.00    +0.381 N 
ATOM     12  H   UNL     1       1.582   1.072  -0.942  0.00  0.00    -0.090 HD
ATOM     13  H   UNL     1       1.085  -0.481  -1.179  0.00  0.00    -0.090 HD
ATOM     14  H   UNL     1       0.214   0.768  -1.808  0.00  0.00    -0.090 HD
ENDBRANCH  10  11
ENDBRANCH   1  10
BRANCH   1  15
ATOM     15  N   UNL     1       0.028   0.099   2.615  0.00  0.00    -0.287 NA
BRANCH  15  16
ATOM     16  C   UNL     1       0.683  -0.656   3.692  0.00  0.00    +0.051 C 
ATOM     17  C   UNL     1       2.197  -0.652   3.469  0.00  0.00    +0.024 C 
ATOM     18  C   UNL     1       0.365  -0.004   5.039  0.00  0.00    +0.024 C 
ENDBRANCH  15  16
BRANCH  15  19
ATOM     19  C   UNL     1      -1.325  -0.414   2.360  0.00  0.00    +0.199 C 
BRANCH  19  20
ATOM     20  C   UNL     1      -2.131  -0.395   3.660  0.00  0.00    +0.402 C 
ATOM     21  F   UNL     1      -1.997   0.855   4.274  0.00  0.00    -0.169 F 
ATOM     22  F   UNL     1      -3.480  -0.632   3.376  0.00  0.00    -0.169 F 
ATOM     23  F   UNL     1      -1.653  -1.390   4.520  0.00  0.00    -0.169 F 
ENDBRANCH  19  20
ENDBRANCH  15  19
ENDBRANCH   1  15
TORSDOF 7
