REMARK  Name = ZINC20522749
REMARK  5 active torsions:
REMARK  status: ('A' for Active; 'I' for Inactive)
REMARK    1  A    between atoms: C_4  and  C_7
REMARK    2  A    between atoms: C_7  and  N_8
REMARK    3  A    between atoms: C_17  and  O_18
REMARK    4  A    between atoms: C_19  and  N_20
REMARK    5  A    between atoms: C_21  and  C_23
REMARK                            x       y       z     vdW  Elec       q    Type
REMARK                         _______ _______ _______ _____ _____    ______ ____
ROOT
ATOM      1  N   UNL     1       4.557  -1.822   0.314  0.00  0.00    -0.378 N 
ATOM      2  C   UNL     1       5.548  -2.049  -0.622  0.00  0.00    +0.075 A 
ATOM      3  C   UNL     1       5.644  -3.335  -1.330  0.00  0.00    +0.042 A 
ATOM      4  C   UNL     1       4.736  -4.365  -1.076  0.00  0.00    +0.013 A 
ATOM      5  C   UNL     1       4.852  -5.558  -1.755  0.00  0.00    +0.001 A 
ATOM      6  C   UNL     1       5.864  -5.737  -2.686  0.00  0.00    +0.004 A 
ATOM      7  C   UNL     1       6.767  -4.728  -2.946  0.00  0.00    +0.047 A 
ATOM      8  C   UNL     1       6.668  -3.517  -2.273  0.00  0.00    +0.141 A 
ATOM      9  O   UNL     1       7.546  -2.521  -2.518  0.00  0.00    -0.424 OA
ATOM     10  C   UNL     1       7.476  -1.340  -1.883  0.00  0.00    +0.309 A 
ATOM     11  C   UNL     1       6.478  -1.071  -0.928  0.00  0.00    +0.139 A 
ATOM     12  H   UNL     1       3.498  -1.881   0.020  0.00  0.00    +0.160 HD
ENDROOT
BRANCH  11  13
ATOM     13  N   UNL     1       6.431   0.178  -0.286  0.00  0.00    -0.272 N 
ATOM     14  C   UNL     1       7.396   0.524   0.589  0.00  0.00    +0.284 C 
ATOM     15  O   UNL     1       8.353  -0.209   0.760  0.00  0.00    -0.266 OA
ATOM     16  H   UNL     1       5.606   0.875  -0.498  0.00  0.00    +0.155 HD
BRANCH  14  17
ATOM     17  C   UNL     1       7.292   1.781   1.335  0.00  0.00    +0.191 A 
ATOM     18  C   UNL     1       8.195   2.249   2.248  0.00  0.00    +0.056 A 
ATOM     19  C   UNL     1       7.700   3.478   2.711  0.00  0.00    +0.058 A 
ATOM     20  C   UNL     1       6.531   3.704   2.068  0.00  0.00    +0.171 A 
ATOM     21  O   UNL     1       6.293   2.682   1.236  0.00  0.00    -0.444 OA
ATOM     22 BR   UNL     1       5.422   5.218   2.301  0.00  0.00    -0.008 Br
ENDBRANCH  14  17
ENDBRANCH  11  13
BRANCH  10  23
ATOM     23  O   UNL     1       8.296  -0.476  -2.144  0.00  0.00    -0.479 OA
ATOM     24  H   UNL     1       8.252   0.496  -1.632  0.00  0.00    +0.295 HD
ENDBRANCH  10  23
BRANCH   1  25
ATOM     25  C   UNL     1       5.135  -1.521   1.631  0.00  0.00    +0.148 C 
BRANCH  25  29
ATOM     26  C   UNL     1       1.993  -0.839   4.443  0.00  0.00    +0.000 A 
ATOM     27  C   UNL     1       2.512   0.216   3.717  0.00  0.00    +0.000 A 
ATOM     28  C   UNL     1       3.529  -0.004   2.807  0.00  0.00    +0.005 A 
ATOM     29  C   UNL     1       4.027  -1.280   2.623  0.00  0.00    -0.028 A 
ATOM     30  C   UNL     1       3.508  -2.336   3.349  0.00  0.00    +0.005 A 
ATOM     31  C   UNL     1       2.491  -2.116   4.260  0.00  0.00    +0.000 A 
ENDBRANCH  25  29
ENDBRANCH   1  25
TORSDOF 5
