REMARK  Name = ZINC63830750
REMARK  6 active torsions:
REMARK  status: ('A' for Active; 'I' for Inactive)
REMARK    1  A    between atoms: C_4  and  C_7
REMARK    2  A    between atoms: C_7  and  C_9
REMARK    3  A    between atoms: C_7  and  C_25
REMARK    4  A    between atoms: C_9  and  N_10
REMARK    5  A    between atoms: N_10  and  S_11
REMARK    6  A    between atoms: S_11  and  C_14
REMARK                            x       y       z     vdW  Elec       q    Type
REMARK                         _______ _______ _______ _____ _____    ______ ____
ROOT
ATOM      1  C   UNL     1       3.711  -0.707  -0.038  0.00  0.00    +0.063 C 
ENDROOT
BRANCH   1   2
ATOM      2  C   UNL     1       3.790  -1.566  -1.273  0.00  0.00    -0.033 C 
ATOM      3  C   UNL     1       4.716  -1.494  -2.256  0.00  0.00    -0.000 A 
ATOM      4  C   UNL     1       5.883  -0.628  -2.461  0.00  0.00    +0.010 A 
ATOM      5  C   UNL     1       6.640  -0.798  -3.569  0.00  0.00    +0.001 A 
ATOM      6  C   UNL     1       6.338  -1.778  -4.524  0.00  0.00    +0.002 A 
ATOM      7  C   UNL     1       5.284  -2.612  -4.405  0.00  0.00    +0.026 A 
ATOM      8  C   UNL     1       4.420  -2.522  -3.279  0.00  0.00    +0.043 A 
ATOM      9  N   UNL     1       3.352  -3.203  -2.942  0.00  0.00    -0.380 N 
ATOM     10  C   UNL     1       2.853  -2.687  -1.662  0.00  0.00    +0.145 C 
ATOM     11  H   UNL     1       2.959  -3.929  -3.451  0.00  0.00    +0.160 HD
ENDBRANCH   1   2
BRANCH   1  15
ATOM     12  C   UNL     1      -0.017   1.378   0.010  0.00  0.00    +0.000 A 
ATOM     13  C   UNL     1       1.171   2.086   0.002  0.00  0.00    +0.000 A 
ATOM     14  C   UNL     1       2.377   1.411  -0.013  0.00  0.00    +0.004 A 
ATOM     15  C   UNL     1       2.396   0.029  -0.020  0.00  0.00    -0.039 A 
ATOM     16  C   UNL     1       1.208  -0.679  -0.012  0.00  0.00    +0.004 A 
ATOM     17  C   UNL     1       0.002  -0.004   0.002  0.00  0.00    +0.000 A 
ENDBRANCH   1  15
BRANCH   1  18
ATOM     18  C   UNL     1       3.817  -1.592   1.206  0.00  0.00    +0.118 C 
BRANCH  18  19
ATOM     19  N   UNL     1       3.861  -0.748   2.403  0.00  0.00    -0.189 NA
ATOM     20  H   UNL     1       4.041   0.201   2.321  0.00  0.00    +0.148 HD
BRANCH  19  21
ATOM     21  S   UNL     1       3.603  -1.416   3.897  0.00  0.00    +0.059 S 
ATOM     22  O   UNL     1       3.735  -0.362   4.841  0.00  0.00    -0.153 OA
ATOM     23  O   UNL     1       2.423  -2.201   3.792  0.00  0.00    -0.153 OA
BRANCH  21  24
ATOM     24  C   UNL     1       4.928  -2.536   4.203  0.00  0.00    +0.109 A 
ATOM     25  C   UNL     1       4.816  -3.858   3.812  0.00  0.00    +0.032 A 
ATOM     26  C   UNL     1       5.853  -4.743   4.049  0.00  0.00    +0.051 A 
ATOM     27  C   UNL     1       7.004  -4.300   4.678  0.00  0.00    +0.162 A 
ATOM     28  C   UNL     1       7.115  -2.974   5.070  0.00  0.00    +0.164 A 
ATOM     29  C   UNL     1       6.078  -2.089   4.827  0.00  0.00    +0.078 A 
ATOM     30  O   UNL     1       8.254  -2.547   5.689  0.00  0.00    -0.488 OA
ATOM     31  C   UNL     1       8.483  -3.063   7.002  0.00  0.00    +0.232 C 
ATOM     32  C   UNL     1       9.161  -4.423   6.936  0.00  0.00    +0.082 C 
ATOM     33  C   UNL     1       8.280  -5.479   6.289  0.00  0.00    +0.232 C 
ATOM     34  O   UNL     1       8.034  -5.163   4.917  0.00  0.00    -0.488 OA
ENDBRANCH  21  24
ENDBRANCH  19  21
ENDBRANCH  18  19
ENDBRANCH   1  18
TORSDOF 6
