REMARK  Name = ZINC43978914
REMARK  8 active torsions:
REMARK  status: ('A' for Active; 'I' for Inactive)
REMARK    1  A    between atoms: C_1  and  C_2
REMARK    2  A    between atoms: C_2  and  C_3
REMARK    3  A    between atoms: C_2  and  C_4
REMARK    4  A    between atoms: C_2  and  N_5
REMARK    5  A    between atoms: C_11  and  C_14
REMARK    6  A    between atoms: C_14  and  N_15
REMARK    7  A    between atoms: C_16  and  C_18
REMARK    8  A    between atoms: C_18  and  C_23
REMARK                            x       y       z     vdW  Elec       q    Type
REMARK                         _______ _______ _______ _____ _____    ______ ____
ROOT
ATOM      1  N   UNL     1       6.238  -3.559  -4.820  0.00  0.00    -0.314 N 
ATOM      2  C   UNL     1       7.142  -4.558  -4.813  0.00  0.00    +0.224 C 
ATOM      3  O   UNL     1       6.798  -5.685  -4.526  0.00  0.00    -0.275 OA
ATOM      4  H   UNL     1       6.498  -2.672  -5.116  0.00  0.00    +0.149 HD
ENDROOT
BRANCH   2   5
ATOM      5  C   UNL     1       8.581  -4.276  -5.162  0.00  0.00    +0.072 C 
ATOM      6  C   UNL     1       8.668  -3.630  -6.556  0.00  0.00    +0.021 C 
ATOM      7  C   UNL     1       9.513  -4.580  -7.430  0.00  0.00    +0.001 C 
ATOM      8  C   UNL     1       9.364  -5.961  -6.743  0.00  0.00    +0.001 C 
ATOM      9  C   UNL     1       9.376  -5.596  -5.237  0.00  0.00    +0.021 C 
BRANCH   5  10
ATOM     10  C   UNL     1       9.192  -3.363  -4.130  0.00  0.00    -0.032 A 
ATOM     11  C   UNL     1       8.472  -3.014  -3.003  0.00  0.00    +0.006 A 
ATOM     12  C   UNL     1       9.033  -2.178  -2.056  0.00  0.00    +0.020 A 
ATOM     13  C   UNL     1      10.314  -1.689  -2.237  0.00  0.00    +0.041 A 
ATOM     14  C   UNL     1      11.034  -2.038  -3.366  0.00  0.00    +0.020 A 
ATOM     15  C   UNL     1      10.475  -2.880  -4.309  0.00  0.00    +0.006 A 
ATOM     16 CL   UNL     1      11.018  -0.637  -1.049  0.00  0.00    -0.084 Cl
ENDBRANCH   5  10
ENDBRANCH   2   5
BRANCH   1  17
ATOM     17  C   UNL     1       4.863  -3.812  -4.383  0.00  0.00    +0.107 C 
BRANCH  17  24
ATOM     18  N   UNL     1       0.368  -0.159  -2.322  0.00  0.00    -0.294 N 
ATOM     19  C   UNL     1       1.649   0.192  -2.549  0.00  0.00    +0.303 C 
ATOM     20  O   UNL     1       2.145   1.115  -1.933  0.00  0.00    -0.253 OA
ATOM     21  N   UNL     1       2.381  -0.481  -3.460  0.00  0.00    -0.286 N 
ATOM     22  C   UNL     1       1.767  -1.525  -4.291  0.00  0.00    +0.109 C 
ATOM     23  C   UNL     1       2.585  -2.812  -4.150  0.00  0.00    +0.024 C 
ATOM     24  C   UNL     1       4.049  -2.521  -4.488  0.00  0.00    +0.009 C 
ATOM     25  C   UNL     1       4.604  -1.486  -3.507  0.00  0.00    +0.024 C 
ATOM     26  C   UNL     1       3.807  -0.179  -3.644  0.00  0.00    +0.109 C 
ATOM     27  H   UNL     1      -0.050  -0.847  -2.864  0.00  0.00    +0.151 HD
BRANCH  18  29
ATOM     28  C   UNL     1      -0.466   2.002  -1.537  0.00  0.00    +0.031 C 
ATOM     29  C   UNL     1      -0.394   0.499  -1.258  0.00  0.00    +0.028 C 
ATOM     30  C   UNL     1       0.297   0.262   0.086  0.00  0.00    +0.031 C 
ATOM     31  C   UNL     1      -1.810  -0.080  -1.212  0.00  0.00    +0.031 C 
ENDBRANCH  18  29
ENDBRANCH  17  24
ENDBRANCH   1  17
TORSDOF 5
