REMARK  Name = ZINC35780881
REMARK  12 active torsions:
REMARK  status: ('A' for Active; 'I' for Inactive)
REMARK    1  A    between atoms: C_1  and  C_2
REMARK    2  A    between atoms: N_8  and  C_9
REMARK    3  A    between atoms: C_10  and  C_20
REMARK    4  A    between atoms: C_11  and  C_14
REMARK    5  A    between atoms: C_20  and  N_21
REMARK    6  A    between atoms: N_21  and  C_22
REMARK    7  A    between atoms: N_21  and  C_29
REMARK    8  A    between atoms: C_22  and  C_23
REMARK    9  A    between atoms: C_29  and  C_30
REMARK   10  A    between atoms: C_30  and  C_32
REMARK   11  A    between atoms: C_30  and  O_39
REMARK   12  A    between atoms: C_32  and  C_33
REMARK                            x       y       z     vdW  Elec       q    Type
REMARK                         _______ _______ _______ _____ _____    ______ ____
ROOT
ATOM      1  C   UNL     1       2.288  -0.995   3.435  0.00  0.00    -0.035 C 
ENDROOT
BRANCH   1   3
ATOM      2  C   UNL     1       1.358   0.784   1.857  0.00  0.00    +0.222 A 
ATOM      3  C   UNL     1       1.748   0.369   3.089  0.00  0.00    +0.025 A 
ATOM      4  C   UNL     1       1.560   1.439   3.988  0.00  0.00    +0.117 A 
ATOM      5  N   UNL     1       1.074   2.455   3.312  0.00  0.00    -0.076 NA
ATOM      6  O   UNL     1       0.945   2.058   1.959  0.00  0.00    -0.339 OA
BRANCH   2  13
ATOM      7  C   UNL     1      -0.747  -0.872   1.498  0.00  0.00    +0.028 C 
ATOM      8  C   UNL     1       0.260  -0.846   0.347  0.00  0.00    +0.073 C 
ATOM      9  C   UNL     1       0.790  -2.261   0.096  0.00  0.00    +0.022 C 
ATOM     10  C   UNL     1       1.897  -2.207  -0.960  0.00  0.00    +0.003 C 
ATOM     11  C   UNL     1       3.051  -1.342  -0.448  0.00  0.00    +0.019 C 
ATOM     12  C   UNL     1       2.547   0.083  -0.202  0.00  0.00    +0.108 C 
ATOM     13  N   UNL     1       1.387   0.029   0.699  0.00  0.00    -0.296 N 
ENDBRANCH   2  13
BRANCH   4  14
ATOM     14  C   UNL     1       1.857   1.421   5.443  0.00  0.00    +0.004 A 
ATOM     15  C   UNL     1       2.513   2.497   6.036  0.00  0.00    +0.010 A 
ATOM     16  C   UNL     1       2.787   2.474   7.388  0.00  0.00    +0.001 A 
ATOM     17  C   UNL     1       2.411   1.386   8.155  0.00  0.00    +0.000 A 
ATOM     18  C   UNL     1       1.759   0.315   7.571  0.00  0.00    +0.001 A 
ATOM     19  C   UNL     1       1.476   0.329   6.220  0.00  0.00    +0.010 A 
ENDBRANCH   4  14
ENDBRANCH   1   3
BRANCH   1  20
ATOM     20  N   UNL     1       3.678  -1.103   2.975  0.00  0.00    +0.386 N 
ATOM     21  H   UNL     1       3.728  -0.863   1.996  0.00  0.00    -0.081 HD
BRANCH  20  22
ATOM     22  C   UNL     1       4.523  -0.182   3.748  0.00  0.00    -0.046 C 
BRANCH  22  23
ATOM     23  C   UNL     1       4.515  -0.598   5.220  0.00  0.00    +0.102 C 
ATOM     24  C   UNL     1       5.253   0.461   6.067  0.00  0.00    +0.032 C 
ATOM     25  C   UNL     1       6.025  -0.416   7.091  0.00  0.00    +0.030 C 
ATOM     26  C   UNL     1       6.356  -1.657   6.225  0.00  0.00    +0.160 C 
ATOM     27  O   UNL     1       5.208  -1.841   5.378  0.00  0.00    -0.378 OA
ENDBRANCH  22  23
ENDBRANCH  20  22
BRANCH  20  28
ATOM     28  C   UNL     1       4.152  -2.480   3.166  0.00  0.00    -0.046 C 
BRANCH  28  29
ATOM     29  C   UNL     1       5.594  -2.598   2.667  0.00  0.00    +0.102 C 
BRANCH  29  30
ATOM     30  O   UNL     1       5.646  -2.264   1.278  0.00  0.00    -0.393 OA
ATOM     31  H   UNL     1       5.102  -2.833   0.717  0.00  0.00    +0.210 HD
ENDBRANCH  29  30
BRANCH  29  32
ATOM     32  C   UNL     1       6.087  -4.032   2.866  0.00  0.00    +0.064 C 
BRANCH  32  33
ATOM     33  C   UNL     1       7.543  -4.119   2.490  0.00  0.00    -0.045 A 
ATOM     34  C   UNL     1       7.904  -4.416   1.188  0.00  0.00    +0.004 A 
ATOM     35  C   UNL     1       9.241  -4.496   0.843  0.00  0.00    +0.000 A 
ATOM     36  C   UNL     1      10.216  -4.279   1.798  0.00  0.00    +0.000 A 
ATOM     37  C   UNL     1       9.855  -3.981   3.099  0.00  0.00    +0.000 A 
ATOM     38  C   UNL     1       8.519  -3.897   3.444  0.00  0.00    +0.004 A 
ENDBRANCH  32  33
ENDBRANCH  29  32
ENDBRANCH  28  29
ENDBRANCH  20  28
ENDBRANCH   1  20
TORSDOF 11
