REMARK  Name = ZINC52899607
REMARK  3 active torsions:
REMARK  status: ('A' for Active; 'I' for Inactive)
REMARK    1  A    between atoms: C_3  and  C_6
REMARK    2  A    between atoms: C_6  and  C_7
REMARK    3  A    between atoms: C_9  and  C_12
REMARK                            x       y       z     vdW  Elec       q    Type
REMARK                         _______ _______ _______ _____ _____    ______ ____
ROOT
ATOM      1  C   UNL     1       4.229   2.001   1.400  0.00  0.00    +0.177 A 
ATOM      2  N   UNL     1       4.097   3.103   2.142  0.00  0.00    -0.191 NA
ATOM      3  C   UNL     1       4.654   2.921   3.319  0.00  0.00    +0.261 A 
ATOM      4  O   UNL     1       5.162   1.676   3.350  0.00  0.00    -0.333 OA
ATOM      5  N   UNL     1       4.866   1.096   2.088  0.00  0.00    -0.061 NA
ENDROOT
BRANCH   3   6
ATOM      6  C   UNL     1       4.712   3.910   4.414  0.00  0.00    +0.071 C 
ATOM      7  C   UNL     1       5.189   3.558   5.593  0.00  0.00    -0.041 C 
ATOM      8  C   UNL     1       5.273   4.672   6.638  0.00  0.00    +0.079 C 
ATOM      9  S   UNL     1       4.470   6.072   5.776  0.00  0.00    -0.098 S 
ATOM     10  C   UNL     1       4.241   5.294   4.184  0.00  0.00    +0.101 C 
ATOM     11  N   UNL     1       3.771   5.818   3.086  0.00  0.00    -0.292 NA
ATOM     12  C   UNL     1       4.430   4.212   7.829  0.00  0.00    +0.019 C 
ATOM     13  C   UNL     1       4.981   2.866   8.313  0.00  0.00    +0.002 C 
ATOM     14  C   UNL     1       4.823   1.787   7.246  0.00  0.00    +0.004 C 
ATOM     15  C   UNL     1       5.625   2.149   5.988  0.00  0.00    +0.033 C 
ATOM     16  H   UNL     1       3.697   5.278   2.284  0.00  0.00    +0.187 HD
ENDBRANCH   3   6
BRANCH   1  17
ATOM     17  C   UNL     1       3.718   1.829  -0.007  0.00  0.00    +0.122 C 
BRANCH  17  20
ATOM     18  C   UNL     1      -0.046   1.251   0.101  0.00  0.00    +0.008 A 
ATOM     19  C   UNL     1       1.138   1.964   0.070  0.00  0.00    +0.011 A 
ATOM     20  C   UNL     1       2.312   1.288   0.032  0.00  0.00    -0.003 A 
ATOM     21  S   UNL     1       1.760  -0.410   0.037  0.00  0.00    -0.101 S 
ATOM     22  C   UNL     1       0.003  -0.103   0.091  0.00  0.00    +0.045 A 
ENDBRANCH  17  20
ENDBRANCH   1  17
TORSDOF 3
