REMARK  Name = ZINC02087089
REMARK  8 active torsions:
REMARK  status: ('A' for Active; 'I' for Inactive)
REMARK    1  A    between atoms: C_1  and  C_2
REMARK    2  A    between atoms: C_2  and  O_3
REMARK    3  A    between atoms: O_3  and  C_4
REMARK    4  A    between atoms: C_6  and  C_12
REMARK    5  A    between atoms: C_9  and  O_10
REMARK    6  A    between atoms: C_24  and  S_27
REMARK    7  A    between atoms: S_27  and  C_28
REMARK    8  A    between atoms: C_28  and  C_29
REMARK                            x       y       z     vdW  Elec       q    Type
REMARK                         _______ _______ _______ _____ _____    ______ ____
ROOT
ATOM      1  C   UNL     1       0.385  -0.647  -1.208  0.00  0.00    +0.294 C 
ATOM      2  N   UNL     1       1.563  -0.037  -1.817  0.00  0.00    -0.305 N 
ATOM      3  C   UNL     1       2.651   0.290  -1.000  0.00  0.00    +0.040 A 
ATOM      4  C   UNL     1       3.851  -0.391  -1.091  0.00  0.00    +0.025 A 
ATOM      5  C   UNL     1       4.900  -0.051  -0.257  0.00  0.00    +0.017 A 
ATOM      6  C   UNL     1       4.757   0.967   0.671  0.00  0.00    +0.019 A 
ATOM      7  C   UNL     1       3.565   1.660   0.770  0.00  0.00    +0.027 A 
ATOM      8  C   UNL     1       2.505   1.334  -0.067  0.00  0.00    +0.029 A 
ATOM      9  C   UNL     1       1.226   2.071  -0.019  0.00  0.00    +0.156 A 
ATOM     10  C   UNL     1       0.008   1.355   0.009  0.00  0.00    +0.248 A 
ATOM     11  N   UNL     1      -1.127   2.032   0.044  0.00  0.00    -0.184 NA
ATOM     12  C   UNL     1      -1.091   3.362   0.049  0.00  0.00    +0.212 A 
ATOM     13  N   UNL     1       0.064   4.015   0.028  0.00  0.00    -0.122 NA
ATOM     14  N   UNL     1       1.192   3.395  -0.005  0.00  0.00    -0.141 NA
ATOM     15  O   UNL     1       0.022   0.001   0.006  0.00  0.00    -0.449 OA
ATOM     16 BR   UNL     1       6.199   1.411   1.810  0.00  0.00    -0.050 Br
ATOM     17  H   UNL     1       1.592   0.138  -2.771  0.00  0.00    +0.150 HD
ENDROOT
BRANCH   1  20
ATOM     18  C   UNL     1       0.437  -4.025   0.485  0.00  0.00    +0.164 A 
ATOM     19  C   UNL     1       0.171  -2.691   0.220  0.00  0.00    +0.058 A 
ATOM     20  C   UNL     1       0.676  -2.098  -0.922  0.00  0.00    +0.016 A 
ATOM     21  C   UNL     1       1.442  -2.835  -1.806  0.00  0.00    +0.032 A 
ATOM     22  C   UNL     1       1.716  -4.166  -1.546  0.00  0.00    +0.086 A 
ATOM     23  C   UNL     1       1.212  -4.766  -0.402  0.00  0.00    +0.177 A 
ATOM     24 CL   UNL     1       2.684  -5.087  -2.654  0.00  0.00    -0.080 Cl
BRANCH  23  25
ATOM     25  O   UNL     1       1.476  -6.075  -0.146  0.00  0.00    -0.502 OA
ATOM     26  H   UNL     1       0.824  -6.687  -0.514  0.00  0.00    +0.292 HD
ENDBRANCH  23  25
BRANCH  18  27
ATOM     27  O   UNL     1      -0.059  -4.608   1.609  0.00  0.00    -0.489 OA
BRANCH  27  29
ATOM     28  C   UNL     1      -1.312  -4.611   3.675  0.00  0.00    +0.048 C 
ATOM     29  C   UNL     1      -0.846  -3.787   2.473  0.00  0.00    +0.226 C 
ENDBRANCH  27  29
ENDBRANCH  18  27
ENDBRANCH   1  20
BRANCH  12  30
ATOM     30  S   UNL     1      -2.601   4.269   0.090  0.00  0.00    -0.085 S 
BRANCH  30  31
ATOM     31  C   UNL     1      -1.951   5.959   0.088  0.00  0.00    +0.074 C 
ATOM     32  C   UNL     1      -3.114   6.952   0.122  0.00  0.00    +0.016 C 
ENDBRANCH  30  31
ENDBRANCH  12  30
TORSDOF 6
