REMARK  Name = ZINC04687098
REMARK  8 active torsions:
REMARK  status: ('A' for Active; 'I' for Inactive)
REMARK    1  A    between atoms: C_1  and  N_2
REMARK    2  A    between atoms: C_7  and  C_23
REMARK    3  A    between atoms: C_9  and  C_14
REMARK    4  A    between atoms: C_9  and  C_21
REMARK    5  A    between atoms: C_14  and  C_15
REMARK    6  A    between atoms: C_27  and  O_30
REMARK    7  A    between atoms: C_28  and  O_29
REMARK    8  A    between atoms: O_30  and  C_31
REMARK                            x       y       z     vdW  Elec       q    Type
REMARK                         _______ _______ _______ _____ _____    ______ ____
ROOT
ATOM      1  C   UNL     1      -1.337   6.226   3.460  0.00  0.00    +0.141 C 
ATOM      2  N   UNL     1      -0.316   5.679   2.563  0.00  0.00    -0.245 N 
ATOM      3  C   UNL     1      -0.453   4.497   1.890  0.00  0.00    +0.224 C 
ATOM      4  O   UNL     1      -1.478   3.875   1.710  0.00  0.00    -0.275 OA
ATOM      5  C   UNL     1       0.919   4.129   1.421  0.00  0.00    +0.077 C 
ATOM      6  C   UNL     1       1.159   3.600   0.011  0.00  0.00    -0.023 C 
ATOM      7  C   UNL     1       2.710   5.397   0.480  0.00  0.00    +0.052 C 
ATOM      8  C   UNL     1       1.426   5.600   1.165  0.00  0.00    +0.086 C 
ATOM      9  C   UNL     1       0.882   6.299   2.307  0.00  0.00    +0.225 C 
ATOM     10  O   UNL     1       1.376   7.229   2.908  0.00  0.00    -0.275 OA
ATOM     11  N   UNL     1       2.504   4.153  -0.319  0.00  0.00    +0.396 N 
ATOM     12  H   UNL     1       2.554   4.372  -1.321  0.00  0.00    -0.083 HD
ATOM     13  H   UNL     1       3.229   3.466  -0.082  0.00  0.00    -0.083 HD
ENDROOT
BRANCH   6  14
ATOM     14  C   UNL     1       1.175   2.094   0.002  0.00  0.00    -0.015 A 
ATOM     15  C   UNL     1       1.317   1.397   1.188  0.00  0.00    +0.006 A 
ATOM     16  C   UNL     1       1.333   0.015   1.184  0.00  0.00    +0.004 A 
ATOM     17  C   UNL     1       1.206  -0.677  -0.007  0.00  0.00    +0.049 A 
ATOM     18  C   UNL     1       1.062   0.015  -1.198  0.00  0.00    +0.161 A 
ATOM     19  C   UNL     1       1.047   1.406  -1.194  0.00  0.00    +0.160 A 
BRANCH  19  20
ATOM     20  O   UNL     1       0.913   2.090  -2.362  0.00  0.00    -0.503 OA
ATOM     21  H   UNL     1      -0.004   2.278  -2.604  0.00  0.00    +0.292 HD
ENDBRANCH  19  20
BRANCH  18  22
ATOM     22  O   UNL     1       0.937  -0.664  -2.370  0.00  0.00    -0.491 OA
ATOM     23  C   UNL     1       0.961  -2.091  -2.298  0.00  0.00    +0.277 C 
ENDBRANCH  18  22
ENDBRANCH   6  14
BRANCH   7  24
ATOM     24  C   UNL     1       3.015   6.564  -0.423  0.00  0.00    +0.347 C 
ATOM     25  O   UNL     1       2.534   7.648  -0.193  0.00  0.00    -0.248 OA
ATOM     26  O   UNL     1       3.821   6.399  -1.484  0.00  0.00    -0.248 OA
ENDBRANCH   7  24
BRANCH   7  27
ATOM     27  C   UNL     1       3.834   5.202   1.499  0.00  0.00    +0.035 C 
BRANCH  27  28
ATOM     28  C   UNL     1       5.139   4.995   0.775  0.00  0.00    -0.048 A 
ATOM     29  C   UNL     1       5.547   3.719   0.435  0.00  0.00    +0.003 A 
ATOM     30  C   UNL     1       6.742   3.530  -0.234  0.00  0.00    +0.000 A 
ATOM     31  C   UNL     1       7.534   4.617  -0.554  0.00  0.00    +0.000 A 
ATOM     32  C   UNL     1       7.129   5.893  -0.210  0.00  0.00    +0.000 A 
ATOM     33  C   UNL     1       5.932   6.082   0.455  0.00  0.00    +0.003 A 
ENDBRANCH  27  28
ENDBRANCH   7  27
TORSDOF 6
