REMARK  Name = ZINC40808730
REMARK  3 active torsions:
REMARK  status: ('A' for Active; 'I' for Inactive)
REMARK    1  A    between atoms: C_10  and  N_11
REMARK    2  A    between atoms: N_11  and  S_12
REMARK    3  A    between atoms: S_12  and  C_15
REMARK                            x       y       z     vdW  Elec       q    Type
REMARK                         _______ _______ _______ _____ _____    ______ ____
ROOT
ATOM      1  N   UNL     1      -1.202  -0.718   0.010  0.00  0.00    -0.216 N 
ATOM      2  H   UNL     1      -1.310  -1.479   0.601  0.00  0.00    +0.174 HD
ENDROOT
BRANCH   1  12
ATOM      3  C   UNL     1      -0.017   1.390   0.010  0.00  0.00    +0.026 A 
ATOM      4  C   UNL     1       1.159   2.107   0.002  0.00  0.00    +0.028 A 
ATOM      5  C   UNL     1       2.380   1.441  -0.013  0.00  0.00    +0.047 A 
ATOM      6  C   UNL     1       2.403   0.035  -0.021  0.00  0.00    +0.001 A 
ATOM      7  C   UNL     1       3.817  -0.347  -0.037  0.00  0.00    +0.027 A 
ATOM      8  C   UNL     1       4.532   0.790  -0.038  0.00  0.00    +0.083 A 
ATOM      9  N   UNL     1       3.691   1.869  -0.024  0.00  0.00    -0.361 N 
ATOM     10  H   UNL     1       3.975   2.796  -0.022  0.00  0.00    +0.165 HD
ATOM     11  C   UNL     1       1.206  -0.684  -0.013  0.00  0.00    +0.034 A 
ATOM     12  C   UNL     1       0.002  -0.004   0.002  0.00  0.00    +0.049 A 
ENDBRANCH   1  12
BRANCH   1  13
ATOM     13  S   UNL     1      -2.441  -0.263  -0.989  0.00  0.00    +0.074 S 
ATOM     14  O   UNL     1      -3.499  -1.185  -0.770  0.00  0.00    -0.150 OA
ATOM     15  O   UNL     1      -2.605   1.139  -0.821  0.00  0.00    -0.150 OA
BRANCH  13  16
ATOM     16  C   UNL     1      -1.893  -0.509  -2.645  0.00  0.00    +0.125 A 
ATOM     17  C   UNL     1      -0.895   0.315  -3.184  0.00  0.00    +0.035 A 
ATOM     18  C   UNL     1      -0.482   0.111  -4.468  0.00  0.00    +0.072 A 
ATOM     19  C   UNL     1      -1.065  -0.922  -5.222  0.00  0.00    +0.249 A 
ATOM     20  O   UNL     1      -0.705  -1.117  -6.372  0.00  0.00    -0.268 OA
ATOM     21  N   UNL     1      -2.021  -1.698  -4.676  0.00  0.00    -0.327 N 
ATOM     22  H   UNL     1      -2.420  -2.409  -5.201  0.00  0.00    +0.168 HD
ATOM     23  C   UNL     1      -2.430  -1.499  -3.396  0.00  0.00    +0.114 A 
ENDBRANCH  13  16
ENDBRANCH   1  13
TORSDOF 3
