REMARK  Name = ZINC27520952
REMARK  6 active torsions:
REMARK  status: ('A' for Active; 'I' for Inactive)
REMARK    1  A    between atoms: C_1  and  O_2
REMARK    2  A    between atoms: O_2  and  C_3
REMARK    3  A    between atoms: C_8  and  N_9
REMARK    4  A    between atoms: C_10  and  C_12
REMARK    5  A    between atoms: N_22  and  C_23
REMARK    6  A    between atoms: C_24  and  C_32
REMARK                            x       y       z     vdW  Elec       q    Type
REMARK                         _______ _______ _______ _____ _____    ______ ____
ROOT
ATOM      1  C   UNL     1      -0.674  -4.905   0.739  0.00  0.00    +0.098 A 
ATOM      2  C   UNL     1      -0.615  -6.293   0.686  0.00  0.00    +0.030 A 
ATOM      3  C   UNL     1      -1.271  -7.036   1.763  0.00  0.00    +0.018 A 
ATOM      4  C   UNL     1      -1.039  -8.406   1.935  0.00  0.00    +0.011 A 
ATOM      5  C   UNL     1      -1.661  -9.076   2.951  0.00  0.00    +0.001 A 
ATOM      6  C   UNL     1      -2.521  -8.411   3.812  0.00  0.00    +0.004 A 
ATOM      7  C   UNL     1      -2.765  -7.060   3.659  0.00  0.00    +0.047 A 
ATOM      8  C   UNL     1      -2.146  -6.359   2.635  0.00  0.00    +0.137 A 
ATOM      9  O   UNL     1      -2.378  -5.035   2.464  0.00  0.00    -0.439 OA
ATOM     10  C   UNL     1      -1.388  -4.307   1.882  0.00  0.00    +0.212 A 
ATOM     11  N   UNL     1      -1.079  -3.102   2.322  0.00  0.00    -0.319 N 
ATOM     12  H   UNL     1      -0.300  -2.643   1.971  0.00  0.00    +0.169 HD
ENDROOT
BRANCH  11  13
ATOM     13  C   UNL     1      -1.845  -2.509   3.258  0.00  0.00    +0.098 A 
ATOM     14  C   UNL     1      -1.695  -1.247   3.847  0.00  0.00    +0.086 A 
ATOM     15  C   UNL     1      -2.675  -0.849   4.842  0.00  0.00    -0.018 A 
ATOM     16  C   UNL     1      -3.653  -1.743   5.113  0.00  0.00    -0.004 A 
ATOM     17  S   UNL     1      -3.315  -3.127   4.059  0.00  0.00    -0.075 S 
ATOM     18  C   UNL     1      -4.778  -1.587   6.089  0.00  0.00    +0.043 C 
ATOM     19  C   UNL     1      -4.455  -0.408   7.018  0.00  0.00    +0.005 C 
ATOM     20  C   UNL     1      -4.005   0.781   6.164  0.00  0.00    +0.005 C 
ATOM     21  C   UNL     1      -2.630   0.497   5.560  0.00  0.00    +0.037 C 
BRANCH  14  22
ATOM     22  C   UNL     1      -0.615  -0.381   3.481  0.00  0.00    +0.102 C 
ATOM     23  N   UNL     1       0.242   0.305   3.190  0.00  0.00    -0.191 NA
ENDBRANCH  14  22
ENDBRANCH  11  13
BRANCH   1  25
ATOM     24  N   UNL     1      -0.210  -2.731  -0.275  0.00  0.00    -0.278 N 
ATOM     25  C   UNL     1      -0.045  -4.069  -0.297  0.00  0.00    +0.253 C 
ATOM     26  O   UNL     1       0.623  -4.585  -1.173  0.00  0.00    -0.270 OA
ATOM     27  H   UNL     1      -0.703  -2.315   0.450  0.00  0.00    +0.155 HD
BRANCH  24  33
ATOM     28  C   UNL     1      -0.180  -0.668  -1.541  0.00  0.00    +0.141 A 
ATOM     29  C   UNL     1       0.361   0.110  -2.551  0.00  0.00    +0.047 A 
ATOM     30  C   UNL     1       1.401  -0.380  -3.320  0.00  0.00    +0.004 A 
ATOM     31  C   UNL     1       1.903  -1.647  -3.084  0.00  0.00    +0.002 A 
ATOM     32  C   UNL     1       1.369  -2.429  -2.078  0.00  0.00    +0.027 A 
ATOM     33  C   UNL     1       0.329  -1.942  -1.299  0.00  0.00    +0.076 A 
BRANCH  28  35
ATOM     34  C   UNL     1      -1.674   1.126  -1.090  0.00  0.00    +0.277 C 
ATOM     35  O   UNL     1      -1.203  -0.188  -0.784  0.00  0.00    -0.493 OA
ENDBRANCH  28  35
ENDBRANCH  24  33
ENDBRANCH   1  25
TORSDOF 5
