REMARK  Name = ZINC03341506
REMARK  8 active torsions:
REMARK  status: ('A' for Active; 'I' for Inactive)
REMARK    1  A    between atoms: C_1  and  C_2
REMARK    2  A    between atoms: C_2  and  C_3
REMARK    3  A    between atoms: C_3  and  N_4
REMARK    4  A    between atoms: C_5  and  C_23
REMARK    5  A    between atoms: C_8  and  S_9
REMARK    6  A    between atoms: S_9  and  C_10
REMARK    7  A    between atoms: C_10  and  C_11
REMARK    8  A    between atoms: C_11  and  C_13
REMARK                            x       y       z     vdW  Elec       q    Type
REMARK                         _______ _______ _______ _____ _____    ______ ____
ROOT
ATOM      1  N   UNL     1       0.750  -1.976   1.216  0.00  0.00    -0.302 N 
ATOM      2  C   UNL     1      -0.122  -2.823   1.862  0.00  0.00    +0.165 A 
ATOM      3  N   UNL     1       0.274  -4.049   1.611  0.00  0.00    -0.128 NA
ATOM      4  N   UNL     1       1.320  -4.027   0.864  0.00  0.00    -0.122 NA
ATOM      5  C   UNL     1       1.651  -2.785   0.587  0.00  0.00    +0.192 A 
ENDROOT
BRANCH   2   6
ATOM      6  C   UNL     1      -1.285  -2.426   2.683  0.00  0.00    +0.022 A 
ATOM      7  C   UNL     1      -1.847  -1.149   2.566  0.00  0.00    +0.031 A 
ATOM      8  C   UNL     1      -2.933  -0.822   3.351  0.00  0.00    +0.111 A 
ATOM      9  N   UNL     1      -3.440  -1.693   4.203  0.00  0.00    -0.263 NA
ATOM     10  C   UNL     1      -2.941  -2.906   4.345  0.00  0.00    +0.111 A 
ATOM     11  C   UNL     1      -1.860  -3.320   3.596  0.00  0.00    +0.031 A 
ENDBRANCH   2   6
BRANCH   1  12
ATOM     12  C   UNL     1       0.714  -0.511   1.202  0.00  0.00    +0.125 C 
BRANCH  12  14
ATOM     13  C   UNL     1      -0.077   1.498  -0.054  0.00  0.00    +0.005 C 
ATOM     14  C   UNL     1      -0.040  -0.032  -0.040  0.00  0.00    +0.018 C 
ENDBRANCH  12  14
ENDBRANCH   1  12
BRANCH   5  15
ATOM     15  S   UNL     1       3.007  -2.262  -0.408  0.00  0.00    -0.078 S 
BRANCH  15  16
ATOM     16  C   UNL     1       3.790  -3.812  -0.932  0.00  0.00    +0.157 C 
BRANCH  16  17
ATOM     17  C   UNL     1       4.982  -3.504  -1.802  0.00  0.00    +0.175 C 
ATOM     18  O   UNL     1       5.274  -2.351  -2.045  0.00  0.00    -0.291 OA
BRANCH  17  19
ATOM     19  C   UNL     1       5.761  -4.561  -2.337  0.00  0.00    +0.043 A 
ATOM     20  C   UNL     1       5.556  -5.912  -2.159  0.00  0.00    +0.095 A 
ATOM     21  N   UNL     1       6.502  -6.604  -2.822  0.00  0.00    -0.360 N 
ATOM     22  H   UNL     1       6.564  -7.572  -2.845  0.00  0.00    +0.165 HD
ATOM     23  C   UNL     1       7.372  -5.748  -3.466  0.00  0.00    +0.047 A 
ATOM     24  C   UNL     1       6.951  -4.435  -3.201  0.00  0.00    +0.010 A 
ATOM     25  C   UNL     1       7.649  -3.356  -3.734  0.00  0.00    +0.011 A 
ATOM     26  C   UNL     1       8.754  -3.582  -4.527  0.00  0.00    +0.001 A 
ATOM     27  C   UNL     1       9.170  -4.878  -4.793  0.00  0.00    +0.002 A 
ATOM     28  C   UNL     1       8.492  -5.955  -4.264  0.00  0.00    +0.026 A 
ENDBRANCH  17  19
ENDBRANCH  16  17
ENDBRANCH  15  16
ENDBRANCH   5  15
TORSDOF 7
