REMARK  Name = ZINC59792879
REMARK  10 active torsions:
REMARK  status: ('A' for Active; 'I' for Inactive)
REMARK    1  A    between atoms: C_1  and  C_2
REMARK    2  A    between atoms: C_2  and  C_3
REMARK    3  A    between atoms: C_3  and  S_4
REMARK    4  A    between atoms: S_4  and  C_5
REMARK    5  A    between atoms: C_10  and  N_14
REMARK    6  A    between atoms: C_15  and  C_17
REMARK    7  A    between atoms: C_17  and  S_18
REMARK    8  A    between atoms: S_18  and  C_19
REMARK    9  A    between atoms: C_22  and  C_25
REMARK   10  A    between atoms: C_28  and  N_31
REMARK                            x       y       z     vdW  Elec       q    Type
REMARK                         _______ _______ _______ _____ _____    ______ ____
ROOT
ATOM      1  N   UNL     1       4.601  -4.236  -8.059  0.00  0.00    -0.285 N 
ATOM      2  C   UNL     1       5.058  -3.485  -9.081  0.00  0.00    +0.227 C 
ATOM      3  O   UNL     1       5.013  -2.275  -9.012  0.00  0.00    -0.275 OA
ATOM      4  H   UNL     1       4.698  -5.200  -8.085  0.00  0.00    +0.155 HD
ENDROOT
BRANCH   1  10
ATOM      5  C   UNL     1       2.705  -0.535  -3.348  0.00  0.00    +0.136 A 
ATOM      6  N   UNL     1       2.228  -1.706  -3.704  0.00  0.00    -0.233 NA
ATOM      7  C   UNL     1       2.728  -2.407  -4.747  0.00  0.00    +0.080 A 
ATOM      8  C   UNL     1       2.309  -3.669  -5.229  0.00  0.00    +0.031 A 
ATOM      9  C   UNL     1       2.926  -4.249  -6.306  0.00  0.00    +0.025 A 
ATOM     10  C   UNL     1       3.984  -3.623  -6.961  0.00  0.00    +0.035 A 
ATOM     11  C   UNL     1       4.420  -2.383  -6.511  0.00  0.00    +0.040 A 
ATOM     12  C   UNL     1       3.803  -1.799  -5.434  0.00  0.00    +0.042 A 
ATOM     13  S   UNL     1       4.009  -0.275  -4.543  0.00  0.00    -0.061 S 
BRANCH   5  14
ATOM     14  S   UNL     1       2.187   0.516  -2.032  0.00  0.00    -0.099 S 
BRANCH  14  15
ATOM     15  C   UNL     1       0.827  -0.396  -1.252  0.00  0.00    +0.076 C 
BRANCH  15  17
ATOM     16  C   UNL     1      -0.871  -0.354   0.581  0.00  0.00    +0.004 C 
ATOM     17  C   UNL     1       0.277   0.415  -0.077  0.00  0.00    +0.008 C 
ENDBRANCH  15  17
ENDBRANCH  14  15
ENDBRANCH   5  14
ENDBRANCH   1  10
BRANCH   2  18
ATOM     18  C   UNL     1       5.626  -4.149 -10.309  0.00  0.00    +0.173 C 
BRANCH  18  19
ATOM     19  S   UNL     1       6.153  -2.880 -11.494  0.00  0.00    -0.077 S 
BRANCH  19  20
ATOM     20  C   UNL     1       6.784  -3.804 -12.855  0.00  0.00    +0.185 A 
ATOM     21  N   UNL     1       6.837  -5.115 -12.940  0.00  0.00    -0.201 NA
ATOM     22  H   UNL     1       7.381  -2.349 -14.220  0.00  0.00    +0.191 HD
ATOM     23  C   UNL     1       7.377  -5.468 -14.116  0.00  0.00    +0.182 A 
ATOM     24  N   UNL     1       7.673  -4.381 -14.792  0.00  0.00    -0.152 NA
ATOM     25  N   UNL     1       7.293  -3.288 -13.996  0.00  0.00    -0.253 N 
BRANCH  23  26
ATOM     26  C   UNL     1       7.603  -6.860 -14.578  0.00  0.00    +0.021 A 
ATOM     27  C   UNL     1       7.239  -7.933 -13.768  0.00  0.00    +0.014 A 
ATOM     28  C   UNL     1       7.452  -9.226 -14.203  0.00  0.00    +0.033 A 
ATOM     29  C   UNL     1       8.024  -9.457 -15.441  0.00  0.00    +0.126 A 
ATOM     30  C   UNL     1       8.387  -8.395 -16.249  0.00  0.00    +0.033 A 
ATOM     31  C   UNL     1       8.175  -7.098 -15.826  0.00  0.00    +0.014 A 
BRANCH  29  32
ATOM     32  N   UNL     1       8.250 -10.845 -15.902  0.00  0.00    +0.056 N 
ATOM     33  O   UNL     1       7.934 -11.775 -15.197  0.00  0.00    -0.126 OA
ATOM     34  O   UNL     1       8.750 -11.049 -16.983  0.00  0.00    -0.126 OA
ENDBRANCH  29  32
ENDBRANCH  23  26
ENDBRANCH  19  20
ENDBRANCH  18  19
ENDBRANCH   2  18
TORSDOF 9
