REMARK  Name = ZINC18264235
REMARK  6 active torsions:
REMARK  status: ('A' for Active; 'I' for Inactive)
REMARK    1  A    between atoms: C_7  and  C_16
REMARK    2  A    between atoms: C_9  and  C_11
REMARK    3  A    between atoms: C_16  and  O_18
REMARK    4  A    between atoms: O_18  and  C_19
REMARK    5  A    between atoms: C_19  and  C_20
REMARK    6  A    between atoms: C_28  and  N_30
REMARK                            x       y       z     vdW  Elec       q    Type
REMARK                         _______ _______ _______ _____ _____    ______ ____
ROOT
ATOM      1  C   UNL     1      -1.250  -0.789   0.010  0.00  0.00    +0.340 C 
ATOM      2  O   UNL     1      -1.208  -1.999  -0.088  0.00  0.00    -0.245 OA
ENDROOT
BRANCH   1   9
ATOM      3  C   UNL     1       2.669  -2.623   0.004  0.00  0.00    +0.001 A 
ATOM      4  C   UNL     1       3.818  -1.835  -0.004  0.00  0.00    +0.002 A 
ATOM      5  C   UNL     1       3.738  -0.476  -0.010  0.00  0.00    +0.028 A 
ATOM      6  C   UNL     1       2.477   0.148  -0.007  0.00  0.00    +0.073 A 
ATOM      7  C   UNL     1       1.311  -0.659   0.000  0.00  0.00    +0.014 A 
ATOM      8  C   UNL     1       1.431  -2.053   0.006  0.00  0.00    +0.011 A 
ATOM      9  C   UNL     1       0.002  -0.004   0.002  0.00  0.00    +0.070 A 
ATOM     10  C   UNL     1      -0.017   1.383  -0.004  0.00  0.00    +0.047 A 
ATOM     11  C   UNL     1       1.199   2.089  -0.011  0.00  0.00    +0.107 A 
ATOM     12  N   UNL     1       2.368   1.478  -0.012  0.00  0.00    -0.244 NA
BRANCH  11  13
ATOM     13  C   UNL     1       1.166   3.564  -0.018  0.00  0.00    +0.153 A 
ATOM     14  C   UNL     1       2.250   4.388  -0.019  0.00  0.00    +0.051 A 
ATOM     15  C   UNL     1       1.757   5.706  -0.028  0.00  0.00    +0.042 A 
ATOM     16  C   UNL     1       0.411   5.625  -0.023  0.00  0.00    +0.196 A 
ATOM     17  O   UNL     1       0.058   4.330  -0.017  0.00  0.00    -0.461 OA
ENDBRANCH  11  13
ENDBRANCH   1   9
BRANCH   1  18
ATOM     18  O   UNL     1      -2.437  -0.163   0.127  0.00  0.00    -0.453 OA
BRANCH  18  19
ATOM     19  C   UNL     1      -3.625  -0.998   0.128  0.00  0.00    +0.308 C 
BRANCH  19  20
ATOM     20  C   UNL     1      -4.849  -0.129   0.266  0.00  0.00    +0.169 A 
ATOM     21  N   UNL     1      -5.422   0.323  -0.824  0.00  0.00    -0.228 NA
ATOM     22  C   UNL     1      -6.513   1.099  -0.747  0.00  0.00    +0.076 A 
ATOM     23  C   UNL     1      -7.152   1.599  -1.890  0.00  0.00    +0.028 A 
ATOM     24  C   UNL     1      -8.258   2.383  -1.754  0.00  0.00    +0.002 A 
ATOM     25  C   UNL     1      -8.766   2.696  -0.496  0.00  0.00    +0.001 A 
ATOM     26  C   UNL     1      -8.169   2.227   0.637  0.00  0.00    +0.013 A 
ATOM     27  C   UNL     1      -7.032   1.419   0.532  0.00  0.00    +0.040 A 
ATOM     28  C   UNL     1      -6.369   0.900   1.671  0.00  0.00    +0.128 A 
ATOM     29  N   UNL     1      -5.300   0.138   1.481  0.00  0.00    -0.214 NA
BRANCH  28  30
ATOM     30  N   UNL     1      -6.824   1.177   2.942  0.00  0.00    -0.343 N 
ATOM     31  H   UNL     1      -7.609   1.733   3.066  0.00  0.00    +0.144 HD
ATOM     32  H   UNL     1      -6.360   0.815   3.713  0.00  0.00    +0.144 HD
ENDBRANCH  28  30
ENDBRANCH  19  20
ENDBRANCH  18  19
ENDBRANCH   1  18
TORSDOF 6
