REMARK  Name = ZINC36024805
REMARK  6 active torsions:
REMARK  status: ('A' for Active; 'I' for Inactive)
REMARK    1  A    between atoms: C_4  and  C_7
REMARK    2  A    between atoms: C_7  and  C_8
REMARK    3  A    between atoms: N_12  and  C_30
REMARK    4  A    between atoms: N_17  and  S_20
REMARK    5  A    between atoms: S_20  and  C_23
REMARK    6  A    between atoms: C_30  and  C_31
REMARK                            x       y       z     vdW  Elec       q    Type
REMARK                         _______ _______ _______ _____ _____    ______ ____
ROOT
ATOM      1  C   UNL     1       4.184  -1.045   1.320  0.00  0.00    +0.023 C 
ATOM      2  C   UNL     1       5.503  -1.788   1.346  0.00  0.00    +0.201 C 
ATOM      3  O   UNL     1       5.798  -2.731   0.644  0.00  0.00    -0.277 OA
ATOM      4  N   UNL     1       6.294  -1.223   2.282  0.00  0.00    -0.306 N 
ATOM      5  C   UNL     1       5.580  -0.114   2.921  0.00  0.00    +0.006 C 
ATOM      6  N   UNL     1       4.452   0.231   2.027  0.00  0.00    +0.401 N 
ATOM      7  C   UNL     1       5.043  -0.546   4.284  0.00  0.00    +0.023 C 
ATOM      8  C   UNL     1       6.214  -0.940   5.190  0.00  0.00    +0.109 C 
ATOM      9  N   UNL     1       7.171   0.174   5.235  0.00  0.00    -0.177 NA
ATOM     10  C   UNL     1       7.690   0.713   3.970  0.00  0.00    +0.109 C 
ATOM     11  C   UNL     1       6.506   1.092   3.074  0.00  0.00    +0.023 C 
ATOM     12  H   UNL     1       4.723   0.951   1.374  0.00  0.00    -0.082 HD
ATOM     13  H   UNL     1       3.647   0.518   2.562  0.00  0.00    -0.082 HD
ENDROOT
BRANCH   9  14
ATOM     14  S   UNL     1       7.656   0.811   6.685  0.00  0.00    +0.061 S 
ATOM     15  O   UNL     1       8.085   2.140   6.421  0.00  0.00    -0.153 OA
ATOM     16  O   UNL     1       6.631   0.513   7.622  0.00  0.00    -0.153 OA
BRANCH  14  17
ATOM     17  C   UNL     1       9.083  -0.087   7.197  0.00  0.00    +0.106 A 
ATOM     18  C   UNL     1       8.944  -1.224   7.970  0.00  0.00    +0.030 A 
ATOM     19  C   UNL     1      10.063  -1.929   8.372  0.00  0.00    +0.022 A 
ATOM     20  C   UNL     1      11.323  -1.495   8.000  0.00  0.00    +0.041 A 
ATOM     21  C   UNL     1      11.462  -0.357   7.226  0.00  0.00    +0.022 A 
ATOM     22  C   UNL     1      10.342   0.343   6.820  0.00  0.00    +0.030 A 
ATOM     23 CL   UNL     1      12.729  -2.379   8.505  0.00  0.00    -0.084 Cl
ENDBRANCH  14  17
ENDBRANCH   9  14
BRANCH   1  24
ATOM     24  C   UNL     1       3.754  -0.774  -0.123  0.00  0.00    +0.028 C 
BRANCH  24  28
ATOM     25  C   UNL     1      -0.036   1.196  -0.135  0.00  0.00    +0.000 A 
ATOM     26  C   UNL     1       1.129   1.939  -0.097  0.00  0.00    +0.000 A 
ATOM     27  C   UNL     1       2.356   1.302  -0.093  0.00  0.00    +0.003 A 
ATOM     28  C   UNL     1       2.417  -0.079  -0.126  0.00  0.00    -0.048 A 
ATOM     29  C   UNL     1       1.252  -0.822  -0.163  0.00  0.00    +0.003 A 
ATOM     30  C   UNL     1       0.025  -0.184  -0.168  0.00  0.00    +0.000 A 
ENDBRANCH  24  28
ENDBRANCH   1  24
BRANCH   4  31
ATOM     31  C   UNL     1       7.656  -1.652   2.609  0.00  0.00    +0.180 C 
BRANCH  31  32
ATOM     32  C   UNL     1       8.623  -1.047   1.625  0.00  0.00    +0.122 A 
ATOM     33  C   UNL     1       9.348   0.069   1.821  0.00  0.00    +0.046 A 
ATOM     34  C   UNL     1      10.115   0.270   0.649  0.00  0.00    +0.041 A 
ATOM     35  C   UNL     1       9.812  -0.736  -0.191  0.00  0.00    +0.195 A 
ATOM     36  O   UNL     1       8.913  -1.533   0.408  0.00  0.00    -0.466 OA
ENDBRANCH  31  32
ENDBRANCH   4  31
TORSDOF 6
