REMARK  Name = ZINC39919859
REMARK  9 active torsions:
REMARK  status: ('A' for Active; 'I' for Inactive)
REMARK    1  A    between atoms: C_1  and  C_2
REMARK    2  A    between atoms: C_5  and  O_8
REMARK    3  A    between atoms: O_8  and  C_9
REMARK    4  A    between atoms: C_9  and  C_10
REMARK    5  A    between atoms: N_12  and  N_13
REMARK    6  A    between atoms: C_14  and  C_25
REMARK    7  A    between atoms: C_28  and  C_31
REMARK    8  A    between atoms: C_31  and  C_32
REMARK    9  A    between atoms: C_31  and  C_33
REMARK                            x       y       z     vdW  Elec       q    Type
REMARK                         _______ _______ _______ _____ _____    ______ ____
ROOT
ATOM      1  N   UNL     1       0.108  -8.725   1.876  0.00  0.00    -0.191 N 
ATOM      2  C   UNL     1      -1.269  -9.159   2.110  0.00  0.00    +0.212 C 
ATOM      3  N   UNL     1      -1.286 -10.496   2.716  0.00  0.00    -0.320 N 
ATOM      4  C   UNL     1      -0.442 -11.471   2.196  0.00  0.00    +0.041 A 
ATOM      5  C   UNL     1      -0.763 -12.816   2.236  0.00  0.00    +0.024 A 
ATOM      6  C   UNL     1       0.110 -13.744   1.702  0.00  0.00    +0.002 A 
ATOM      7  C   UNL     1       1.304 -13.338   1.127  0.00  0.00    +0.001 A 
ATOM      8  C   UNL     1       1.640 -12.001   1.080  0.00  0.00    +0.015 A 
ATOM      9  C   UNL     1       0.770 -11.056   1.616  0.00  0.00    +0.059 A 
ATOM     10  C   UNL     1       1.083  -9.615   1.595  0.00  0.00    +0.266 C 
ATOM     11  O   UNL     1       2.207  -9.233   1.332  0.00  0.00    -0.268 OA
ATOM     12  H   UNL     1      -1.873 -10.695   3.462  0.00  0.00    +0.148 HD
ENDROOT
BRANCH   2  13
ATOM     13  C   UNL     1      -2.010  -9.200   0.798  0.00  0.00    -0.008 A 
ATOM     14  C   UNL     1      -3.193  -8.500   0.650  0.00  0.00    +0.007 A 
ATOM     15  C   UNL     1      -3.872  -8.538  -0.554  0.00  0.00    +0.004 A 
ATOM     16  C   UNL     1      -3.367  -9.274  -1.609  0.00  0.00    -0.045 A 
ATOM     17  C   UNL     1      -2.184  -9.973  -1.461  0.00  0.00    +0.004 A 
ATOM     18  C   UNL     1      -1.502  -9.932  -0.259  0.00  0.00    +0.007 A 
BRANCH  16  19
ATOM     19  C   UNL     1      -4.108  -9.316  -2.921  0.00  0.00    +0.013 C 
ATOM     20  C   UNL     1      -3.212  -8.762  -4.030  0.00  0.00    +0.012 C 
ATOM     21  C   UNL     1      -4.489 -10.761  -3.246  0.00  0.00    +0.012 C 
ENDBRANCH  16  19
ENDBRANCH   2  13
BRANCH   1  24
ATOM     22  C   UNL     1       0.603  -6.659   0.803  0.00  0.00    +0.267 C 
ATOM     23  O   UNL     1       0.588  -7.225  -0.269  0.00  0.00    -0.271 OA
ATOM     24  N   UNL     1       0.419  -7.361   1.939  0.00  0.00    -0.227 N 
ATOM     25  H   UNL     1       0.502  -6.921   2.800  0.00  0.00    +0.173 HD
BRANCH  22  26
ATOM     26  C   UNL     1       0.829  -5.170   0.866  0.00  0.00    +0.326 C 
BRANCH  26  27
ATOM     27  O   UNL     1       0.996  -4.657  -0.457  0.00  0.00    -0.483 OA
BRANCH  27  32
ATOM     28  C   UNL     1       1.881   0.882  -0.960  0.00  0.00    +0.044 C 
ATOM     29  C   UNL     1       1.644  -0.600  -0.826  0.00  0.00    -0.050 A 
ATOM     30  C   UNL     1       1.598  -1.397  -1.955  0.00  0.00    +0.007 A 
ATOM     31  C   UNL     1       1.381  -2.756  -1.834  0.00  0.00    +0.046 A 
ATOM     32  C   UNL     1       1.210  -3.321  -0.579  0.00  0.00    +0.121 A 
ATOM     33  C   UNL     1       1.257  -2.519   0.553  0.00  0.00    +0.046 A 
ATOM     34  C   UNL     1       1.480  -1.161   0.427  0.00  0.00    +0.007 A 
ENDBRANCH  27  32
ENDBRANCH  26  27
ENDBRANCH  22  26
ENDBRANCH   1  24
TORSDOF 6
