REMARK  Name = ZINC09780983
REMARK  7 active torsions:
REMARK  status: ('A' for Active; 'I' for Inactive)
REMARK    1  A    between atoms: C_1  and  N_2
REMARK    2  A    between atoms: N_2  and  C_3
REMARK    3  A    between atoms: N_2  and  C_4
REMARK    4  A    between atoms: C_7  and  C_10
REMARK    5  A    between atoms: C_15  and  S_19
REMARK    6  A    between atoms: S_19  and  C_20
REMARK    7  A    between atoms: C_20  and  C_21
REMARK                            x       y       z     vdW  Elec       q    Type
REMARK                         _______ _______ _______ _____ _____    ______ ____
ROOT
ATOM      1  C   UNL     1      -4.870  -2.906   0.033  0.00  0.00    +0.092 C 
ATOM      2  C   UNL     1      -5.652  -2.563  -1.199  0.00  0.00    +0.071 A 
ATOM      3  C   UNL     1      -6.733  -1.693  -1.133  0.00  0.00    +0.135 A 
ATOM      4  N   UNL     1      -7.406  -1.406  -2.243  0.00  0.00    -0.206 NA
ATOM      5  C   UNL     1      -7.053  -1.944  -3.402  0.00  0.00    +0.194 A 
ATOM      6  N   UNL     1      -6.029  -2.779  -3.500  0.00  0.00    -0.183 NA
ATOM      7  C   UNL     1      -5.311  -3.108  -2.430  0.00  0.00    +0.280 A 
ATOM      8  O   UNL     1      -4.264  -3.962  -2.539  0.00  0.00    -0.265 OA
ATOM      9  N   UNL     1      -7.096  -1.141   0.083  0.00  0.00    -0.302 N 
ATOM     10  C   UNL     1      -6.686  -1.714   1.256  0.00  0.00    +0.017 C 
ATOM     11  C   UNL     1      -5.640  -2.565   1.284  0.00  0.00    +0.024 C 
ATOM     12  C   UNL     1      -5.232  -3.168   2.487  0.00  0.00    +0.162 C 
ATOM     13  C   UNL     1      -5.948  -2.894   3.781  0.00  0.00    +0.080 C 
ATOM     14  C   UNL     1      -7.409  -2.547   3.479  0.00  0.00    +0.014 C 
ATOM     15  C   UNL     1      -7.435  -1.362   2.519  0.00  0.00    +0.051 C 
ATOM     16  O   UNL     1      -4.282  -3.926   2.481  0.00  0.00    -0.292 OA
ATOM     17  H   UNL     1      -7.646  -0.342   0.105  0.00  0.00    +0.153 HD
ENDROOT
BRANCH   1  21
ATOM     18  C   UNL     1      -1.198  -0.719   0.010  0.00  0.00    +0.029 A 
ATOM     19  C   UNL     1      -1.181  -2.108   0.008  0.00  0.00    +0.023 A 
ATOM     20  C   UNL     1      -2.369  -2.812   0.016  0.00  0.00    +0.006 A 
ATOM     21  C   UNL     1      -3.575  -2.135   0.025  0.00  0.00    -0.035 A 
ATOM     22  C   UNL     1      -3.596  -0.752   0.027  0.00  0.00    +0.006 A 
ATOM     23  C   UNL     1      -2.411  -0.042   0.025  0.00  0.00    +0.023 A 
BRANCH  18  25
ATOM     24  C   UNL     1      -0.018   1.461   0.010  0.00  0.00    +0.129 C 
ATOM     25  N   UNL     1       0.002  -0.004   0.002  0.00  0.00    -0.336 N 
ATOM     26  C   UNL     1       1.281  -0.719  -0.014  0.00  0.00    +0.129 C 
ENDBRANCH  18  25
ENDBRANCH   1  21
BRANCH   5  27
ATOM     27  S   UNL     1      -7.972  -1.539  -4.850  0.00  0.00    -0.081 S 
BRANCH  27  28
ATOM     28  C   UNL     1      -7.153  -2.481  -6.167  0.00  0.00    +0.115 C 
BRANCH  28  29
ATOM     29  C   UNL     1      -7.850  -2.222  -7.478  0.00  0.00    -0.002 A 
ATOM     30  C   UNL     1      -8.905  -3.023  -7.870  0.00  0.00    +0.007 A 
ATOM     31  C   UNL     1      -9.544  -2.785  -9.073  0.00  0.00    +0.000 A 
ATOM     32  C   UNL     1      -9.129  -1.746  -9.884  0.00  0.00    +0.003 A 
ATOM     33  C   UNL     1      -8.074  -0.943  -9.493  0.00  0.00    +0.038 A 
ATOM     34  C   UNL     1      -7.436  -1.177  -8.287  0.00  0.00    +0.127 A 
ATOM     35  F   UNL     1      -6.408  -0.390  -7.901  0.00  0.00    -0.205 F 
ENDBRANCH  28  29
ENDBRANCH  27  28
ENDBRANCH   5  27
TORSDOF 5
