REMARK  Name = ZINC36490807
REMARK  10 active torsions:
REMARK  status: ('A' for Active; 'I' for Inactive)
REMARK    1  A    between atoms: C_1  and  C_2
REMARK    2  A    between atoms: C_2  and  C_3
REMARK    3  A    between atoms: C_2  and  C_4
REMARK    4  A    between atoms: C_2  and  N_5
REMARK    5  A    between atoms: C_6  and  C_8
REMARK    6  A    between atoms: C_8  and  C_10
REMARK    7  A    between atoms: C_8  and  N_20
REMARK    8  A    between atoms: C_12  and  N_17
REMARK    9  A    between atoms: N_20  and  C_21
REMARK   10  A    between atoms: C_27  and  C_29
REMARK                            x       y       z     vdW  Elec       q    Type
REMARK                         _______ _______ _______ _____ _____    ______ ____
ROOT
ATOM      1  C   UNL     1       2.662  -0.711  -2.696  0.00  0.00    +0.194 C 
ENDROOT
BRANCH   1   2
ATOM      2  C   UNL     1       1.677   0.255  -2.089  0.00  0.00    +0.002 A 
ATOM      3  C   UNL     1       1.972   1.604  -2.041  0.00  0.00    +0.040 A 
ATOM      4  C   UNL     1       1.069   2.490  -1.484  0.00  0.00    +0.127 A 
ATOM      5  C   UNL     1      -0.130   2.027  -0.975  0.00  0.00    +0.034 A 
ATOM      6  C   UNL     1      -0.426   0.678  -1.023  0.00  0.00    +0.022 A 
ATOM      7  C   UNL     1       0.475  -0.209  -1.586  0.00  0.00    +0.047 A 
ATOM      8 CL   UNL     1       0.100  -1.902  -1.653  0.00  0.00    -0.083 Cl
BRANCH   4   9
ATOM      9  N   UNL     1       1.386   3.935  -1.432  0.00  0.00    +0.056 N 
ATOM     10  O   UNL     1       2.435   4.340  -1.877  0.00  0.00    -0.126 OA
ATOM     11  O   UNL     1       0.596   4.710  -0.945  0.00  0.00    -0.126 OA
ENDBRANCH   4   9
ENDBRANCH   1   2
BRANCH   1  13
ATOM     12  N   UNL     1       1.056  -1.575  -4.367  0.00  0.00    -0.309 N 
ATOM     13  C   UNL     1       2.257  -1.017  -4.115  0.00  0.00    +0.239 C 
ATOM     14  O   UNL     1       3.010  -0.761  -5.030  0.00  0.00    -0.273 OA
ATOM     15  H   UNL     1       0.453  -1.780  -3.635  0.00  0.00    +0.149 HD
BRANCH  12  17
ATOM     16  C   UNL     1       1.662  -2.853  -6.362  0.00  0.00    +0.031 C 
ATOM     17  C   UNL     1       0.662  -1.873  -5.746  0.00  0.00    +0.026 C 
ATOM     18  C   UNL     1       0.647  -0.579  -6.563  0.00  0.00    +0.031 C 
ATOM     19  C   UNL     1      -0.735  -2.497  -5.754  0.00  0.00    +0.031 C 
ENDBRANCH  12  17
ENDBRANCH   1  13
BRANCH   1  20
ATOM     20  N   UNL     1       4.000  -0.113  -2.689  0.00  0.00    -0.281 N 
ATOM     21  C   UNL     1       4.282   0.916  -3.512  0.00  0.00    +0.237 C 
ATOM     22  O   UNL     1       3.467   1.277  -4.333  0.00  0.00    -0.274 OA
BRANCH  21  23
ATOM     23  C   UNL     1       5.612   1.618  -3.411  0.00  0.00    +0.159 C 
ATOM     24  C   UNL     1       5.583   2.656  -2.267  0.00  0.00    +0.041 C 
ATOM     25  C   UNL     1       5.184   3.945  -3.021  0.00  0.00    +0.098 C 
ATOM     26  C   UNL     1       5.635   3.699  -4.444  0.00  0.00    +0.214 C 
ATOM     27  O   UNL     1       5.765   4.557  -5.290  0.00  0.00    -0.276 OA
ATOM     28  N   UNL     1       5.874   2.387  -4.633  0.00  0.00    -0.304 N 
ATOM     29  H   UNL     1       6.180   2.000  -5.469  0.00  0.00    +0.149 HD
ENDBRANCH  21  23
BRANCH  20  30
ATOM     30  C   UNL     1       5.030  -0.634  -1.787  0.00  0.00    +0.077 C 
ATOM     31  C   UNL     1       5.383  -2.067  -2.190  0.00  0.00    +0.022 C 
ATOM     32  C   UNL     1       6.459  -2.611  -1.248  0.00  0.00    +0.002 C 
ATOM     33  C   UNL     1       5.933  -2.601   0.188  0.00  0.00    +0.000 C 
ATOM     34  C   UNL     1       5.579  -1.168   0.591  0.00  0.00    +0.002 C 
ATOM     35  C   UNL     1       4.503  -0.624  -0.351  0.00  0.00    +0.022 C 
ENDBRANCH  20  30
ENDBRANCH   1  20
TORSDOF 7
