REMARK  Name = ZINC33749053
REMARK  11 active torsions:
REMARK  status: ('A' for Active; 'I' for Inactive)
REMARK    1  A    between atoms: C_1  and  C_2
REMARK    2  A    between atoms: C_2  and  C_3
REMARK    3  A    between atoms: C_3  and  C_4
REMARK    4  A    between atoms: C_4  and  N_5
REMARK    5  A    between atoms: N_8  and  C_9
REMARK    6  A    between atoms: C_13  and  C_15
REMARK    7  A    between atoms: C_17  and  C_27
REMARK    8  A    between atoms: C_18  and  C_26
REMARK    9  A    between atoms: N_29  and  C_30
REMARK   10  A    between atoms: C_35  and  O_36
REMARK   11  A    between atoms: O_36  and  C_37
REMARK                            x       y       z     vdW  Elec       q    Type
REMARK                         _______ _______ _______ _____ _____    ______ ____
ROOT
ATOM      1  C   UNL     1      -1.552   1.647   8.828  0.00  0.00    +0.143 C 
ATOM      2  C   UNL     1      -0.599   2.723   9.288  0.00  0.00    +0.058 C 
ATOM      3  C   UNL     1       0.618   2.363   9.784  0.00  0.00    +0.025 C 
ATOM      4  N   UNL     1       0.954   1.082   9.912  0.00  0.00    -0.341 N 
ATOM      5  C   UNL     1       0.055   0.111   9.825  0.00  0.00    +0.135 C 
ATOM      6  N   UNL     1      -1.249   0.409   9.572  0.00  0.00    -0.300 N 
ATOM      7  C   UNL     1      -2.366  -0.413  10.023  0.00  0.00    +0.109 C 
ATOM      8  C   UNL     1      -2.091  -1.901   9.850  0.00  0.00    +0.030 C 
ATOM      9  C   UNL     1      -0.894  -2.296  10.722  0.00  0.00    +0.078 C 
ATOM     10  S   UNL     1       0.598  -1.557  10.011  0.00  0.00    -0.092 S 
ATOM     11  C   UNL     1       1.599   3.432  10.192  0.00  0.00    +0.064 C 
ATOM     12  H   UNL     1       2.010   0.839  10.096  0.00  0.00    +0.167 HD
ENDROOT
BRANCH   1  17
ATOM     13  C   UNL     1      -2.091   1.753   5.088  0.00  0.00    +0.035 A 
ATOM     14  C   UNL     1      -1.043   0.961   4.638  0.00  0.00    +0.023 A 
ATOM     15  C   UNL     1      -0.162   0.403   5.544  0.00  0.00    +0.002 A 
ATOM     16  C   UNL     1      -0.329   0.624   6.899  0.00  0.00    +0.006 A 
ATOM     17  C   UNL     1      -1.375   1.408   7.351  0.00  0.00    -0.021 A 
ATOM     18  C   UNL     1      -2.255   1.973   6.449  0.00  0.00    +0.029 A 
BRANCH  13  22
ATOM     19  N   UNL     1      -3.415   3.176   2.043  0.00  0.00    -0.299 N 
ATOM     20  C   UNL     1      -2.541   2.727   2.965  0.00  0.00    +0.304 C 
ATOM     21  O   UNL     1      -1.353   2.685   2.706  0.00  0.00    -0.253 OA
ATOM     22  N   UNL     1      -2.982   2.325   4.173  0.00  0.00    -0.269 N 
ATOM     23  H   UNL     1      -4.490   3.214   2.277  0.00  0.00    +0.150 HD
ATOM     24  H   UNL     1      -4.042   2.445   4.439  0.00  0.00    +0.156 HD
BRANCH  19  25
ATOM     25  C   UNL     1      -2.936   3.614   0.730  0.00  0.00    +0.106 C 
BRANCH  25  26
ATOM     26  C   UNL     1      -4.123   4.072  -0.120  0.00  0.00    +0.018 C 
BRANCH  26  28
ATOM     27  C   UNL     1      -4.809   4.987  -2.341  0.00  0.00    +0.004 C 
ATOM     28  C   UNL     1      -3.622   4.529  -1.491  0.00  0.00    -0.002 C 
ENDBRANCH  26  28
ENDBRANCH  25  26
ENDBRANCH  19  25
ENDBRANCH  13  22
ENDBRANCH   1  17
BRANCH   2  29
ATOM     29  C   UNL     1      -0.962   4.079   9.206  0.00  0.00    +0.248 C 
ATOM     30  O   UNL     1      -0.238   4.934   9.687  0.00  0.00    -0.270 OA
ATOM     31  N   UNL     1      -2.111   4.434   8.597  0.00  0.00    -0.279 N 
ATOM     32  H   UNL     1      -2.729   3.670   8.102  0.00  0.00    +0.155 HD
BRANCH  31  33
ATOM     33  C   UNL     1      -2.517   5.774   8.594  0.00  0.00    +0.076 A 
ATOM     34  C   UNL     1      -1.570   6.788   8.582  0.00  0.00    +0.027 A 
ATOM     35  C   UNL     1      -1.974   8.110   8.579  0.00  0.00    +0.002 A 
ATOM     36  C   UNL     1      -3.320   8.425   8.586  0.00  0.00    +0.004 A 
ATOM     37  C   UNL     1      -4.269   7.420   8.598  0.00  0.00    +0.047 A 
ATOM     38  C   UNL     1      -3.873   6.093   8.596  0.00  0.00    +0.141 A 
BRANCH  38  39
ATOM     39  O   UNL     1      -4.806   5.103   8.601  0.00  0.00    -0.493 OA
ATOM     40  C   UNL     1      -6.177   5.504   8.603  0.00  0.00    +0.277 C 
ENDBRANCH  38  39
ENDBRANCH  31  33
ENDBRANCH   2  29
TORSDOF 8
