REMARK  Name = ZINC04285141
REMARK  5 active torsions:
REMARK  status: ('A' for Active; 'I' for Inactive)
REMARK    1  A    between atoms: C_1  and  C_2
REMARK    2  A    between atoms: C_4  and  C_28
REMARK    3  A    between atoms: C_6  and  N_8
REMARK    4  A    between atoms: C_9  and  C_11
REMARK    5  A    between atoms: C_11  and  N_12
REMARK                            x       y       z     vdW  Elec       q    Type
REMARK                         _______ _______ _______ _____ _____    ______ ____
ROOT
ATOM      1  N   UNL     1      -2.491  -2.706   0.324  0.00  0.00    -0.215 N 
ATOM      2  C   UNL     1      -3.140  -2.895   1.491  0.00  0.00    +0.251 C 
ATOM      3  O   UNL     1      -2.717  -2.685   2.608  0.00  0.00    -0.272 OA
ATOM      4  C   UNL     1      -4.507  -3.421   1.114  0.00  0.00    +0.138 C 
ATOM      5  C   UNL     1      -4.712  -4.813   1.700  0.00  0.00    +0.040 C 
ATOM      6  C   UNL     1      -6.167  -5.233   1.460  0.00  0.00    +0.008 C 
ATOM      7  C   UNL     1      -7.072  -4.363   2.329  0.00  0.00    +0.035 C 
ATOM      8  C   UNL     1      -6.763  -2.903   2.122  0.00  0.00    -0.042 A 
ATOM      9  C   UNL     1      -5.578  -2.470   1.568  0.00  0.00    -0.012 A 
ATOM     10  C   UNL     1      -5.348  -1.109   1.415  0.00  0.00    +0.006 A 
ATOM     11  C   UNL     1      -6.298  -0.189   1.809  0.00  0.00    +0.000 A 
ATOM     12  C   UNL     1      -7.488  -0.624   2.361  0.00  0.00    +0.000 A 
ATOM     13  C   UNL     1      -7.718  -1.975   2.517  0.00  0.00    +0.004 A 
ATOM     14  N   UNL     1      -4.470  -3.485  -0.354  0.00  0.00    -0.281 N 
ATOM     15  C   UNL     1      -3.252  -3.046  -0.724  0.00  0.00    +0.310 C 
ATOM     16  O   UNL     1      -2.884  -2.967  -1.880  0.00  0.00    -0.252 OA
ATOM     17  H   UNL     1      -5.182  -3.784  -0.940  0.00  0.00    +0.152 HD
ENDROOT
BRANCH   1  18
ATOM     18  C   UNL     1      -1.121  -2.197   0.216  0.00  0.00    +0.214 C 
BRANCH  18  20
ATOM     19  N   UNL     1       0.002  -0.004   0.002  0.00  0.00    -0.284 N 
ATOM     20  C   UNL     1      -1.150  -0.694   0.111  0.00  0.00    +0.235 C 
ATOM     21  O   UNL     1      -2.211  -0.106   0.124  0.00  0.00    -0.274 OA
ATOM     22  H   UNL     1       0.845  -0.477  -0.076  0.00  0.00    +0.155 HD
BRANCH  19  28
ATOM     23  C   UNL     1       2.114   4.258   1.244  0.00  0.00    +0.044 C 
ATOM     24  C   UNL     1       0.993   3.486   0.597  0.00  0.00    -0.048 A 
ATOM     25  C   UNL     1      -0.057   4.162   0.003  0.00  0.00    +0.006 A 
ATOM     26  C   UNL     1      -1.088   3.457  -0.592  0.00  0.00    -0.048 A 
ATOM     27  C   UNL     1      -1.071   2.076  -0.594  0.00  0.00    +0.026 A 
ATOM     28  C   UNL     1      -0.018   1.395   0.002  0.00  0.00    +0.034 A 
ATOM     29  C   UNL     1       1.013   2.106   0.603  0.00  0.00    +0.026 A 
ATOM     30  C   UNL     1      -2.230   4.197  -1.239  0.00  0.00    +0.044 C 
ENDBRANCH  19  28
ENDBRANCH  18  20
ENDBRANCH   1  18
TORSDOF 3
