REMARK  Name = ZINC08952425
REMARK  11 active torsions:
REMARK  status: ('A' for Active; 'I' for Inactive)
REMARK    1  A    between atoms: C_1  and  C_2
REMARK    2  A    between atoms: C_5  and  C_9
REMARK    3  A    between atoms: C_6  and  C_8
REMARK    4  A    between atoms: C_9  and  C_11
REMARK    5  A    between atoms: C_9  and  N_63
REMARK    6  A    between atoms: C_11  and  O_13
REMARK    7  A    between atoms: O_13  and  C_14
REMARK    8  A    between atoms: C_15  and  N_63
REMARK    9  A    between atoms: N_25  and  C_26
REMARK   10  A    between atoms: C_26  and  C_28
REMARK   11  A    between atoms: C_26  and  C_29
REMARK                            x       y       z     vdW  Elec       q    Type
REMARK                         _______ _______ _______ _____ _____    ______ ____
ROOT
ATOM      1  C   UNL     1       2.926   3.958  -1.543  0.00  0.00    +0.049 C 
ATOM      2  C   UNL     1       4.250   3.243  -1.583  0.00  0.00    -0.058 C 
ATOM      3  C   UNL     1       5.183   4.150  -1.873  0.00  0.00    +0.014 C 
ATOM      4  C   UNL     1       6.655   3.829  -2.003  0.00  0.00    +0.040 C 
ATOM      5  C   UNL     1       6.916   2.467  -1.350  0.00  0.00    +0.005 C 
ATOM      6  C   UNL     1       5.909   1.443  -1.884  0.00  0.00    +0.005 C 
ATOM      7  C   UNL     1       4.513   1.778  -1.347  0.00  0.00    +0.031 C 
ATOM      8  C   UNL     1       4.555   5.463  -2.035  0.00  0.00    +0.242 C 
ATOM      9  O   UNL     1       5.147   6.490  -2.303  0.00  0.00    -0.270 OA
ATOM     10  N   UNL     1       3.223   5.366  -1.844  0.00  0.00    -0.301 N 
ENDROOT
BRANCH   1  11
ATOM     11  N   UNL     1       2.332   3.841  -0.197  0.00  0.00    +0.405 N 
ATOM     12  H   UNL     1       2.806   3.092   0.319  0.00  0.00    -0.081 HD
ATOM     13  H   UNL     1       2.451   4.730   0.303  0.00  0.00    -0.081 HD
BRANCH  11  14
ATOM     14  C   UNL     1       0.894   3.528  -0.298  0.00  0.00    +0.073 C 
BRANCH  14  19
ATOM     15  C   UNL     1      -1.783   5.349   4.489  0.00  0.00    +0.044 C 
ATOM     16  C   UNL     1      -1.085   4.875   3.240  0.00  0.00    -0.050 A 
ATOM     17  C   UNL     1       0.283   4.672   3.248  0.00  0.00    +0.003 A 
ATOM     18  C   UNL     1       0.923   4.236   2.103  0.00  0.00    +0.003 A 
ATOM     19  C   UNL     1       0.196   4.003   0.950  0.00  0.00    -0.048 A 
ATOM     20  C   UNL     1      -1.171   4.211   0.941  0.00  0.00    -0.048 A 
ATOM     21  C   UNL     1      -1.812   4.641   2.088  0.00  0.00    +0.007 A 
ATOM     22  C   UNL     1      -1.962   3.962  -0.317  0.00  0.00    +0.044 C 
ENDBRANCH  14  19
BRANCH  14  23
ATOM     23  C   UNL     1       0.712   2.039  -0.439  0.00  0.00    +0.297 C 
ATOM     24  O   UNL     1       1.677   1.312  -0.462  0.00  0.00    -0.252 OA
BRANCH  23  25
ATOM     25  O   UNL     1      -0.522   1.520  -0.540  0.00  0.00    -0.469 OA
ATOM     26  C   UNL     1      -0.621   0.077  -0.674  0.00  0.00    +0.280 C 
ENDBRANCH  23  25
ENDBRANCH  14  23
ENDBRANCH  11  14
ENDBRANCH   1  11
BRANCH  10  27
ATOM     27  C   UNL     1       2.251   6.460  -1.922  0.00  0.00    +0.102 C 
ATOM     28  C   UNL     1       2.633   7.553  -0.921  0.00  0.00    +0.033 C 
BRANCH  27  29
ATOM     29  C   UNL     1       2.251   7.033  -3.316  0.00  0.00    -0.027 A 
ATOM     30  C   UNL     1       2.028   8.383  -3.508  0.00  0.00    +0.005 A 
ATOM     31  C   UNL     1       2.032   8.910  -4.786  0.00  0.00    +0.000 A 
ATOM     32  C   UNL     1       2.249   8.084  -5.873  0.00  0.00    +0.000 A 
ATOM     33  C   UNL     1       2.467   6.732  -5.681  0.00  0.00    +0.000 A 
ATOM     34  C   UNL     1       2.467   6.207  -4.403  0.00  0.00    +0.005 A 
ENDBRANCH  27  29
ENDBRANCH  10  27
TORSDOF 7
