REMARK  Name = ZINC40315995
REMARK  13 active torsions:
REMARK  status: ('A' for Active; 'I' for Inactive)
REMARK    1  A    between atoms: C_1  and  C_2
REMARK    2  A    between atoms: C_2  and  C_3
REMARK    3  A    between atoms: C_2  and  C_4
REMARK    4  A    between atoms: C_7  and  O_10
REMARK    5  A    between atoms: O_10  and  C_11
REMARK    6  A    between atoms: C_11  and  C_12
REMARK    7  A    between atoms: C_12  and  C_14
REMARK    8  A    between atoms: C_12  and  O_37
REMARK    9  A    between atoms: C_14  and  N_15
REMARK   10  A    between atoms: N_15  and  C_16
REMARK   11  A    between atoms: N_15  and  C_29
REMARK   12  A    between atoms: C_16  and  C_17
REMARK   13  A    between atoms: C_20  and  C_22
REMARK                            x       y       z     vdW  Elec       q    Type
REMARK                         _______ _______ _______ _____ _____    ______ ____
ROOT
ATOM      1  N   UNL     1       6.493  -3.927  -6.674  0.00  0.00    +0.389 N 
ATOM      2  H   UNL     1       7.152  -3.258  -7.043  0.00  0.00    -0.081 HD
ENDROOT
BRANCH   1   3
ATOM      3  C   UNL     1       5.286  -3.938  -7.511  0.00  0.00    -0.045 C 
ATOM      4  C   UNL     1       5.678  -4.125  -8.986  0.00  0.00    +0.009 C 
ATOM      5  C   UNL     1       4.465  -3.819  -9.897  0.00  0.00    +0.164 C 
ATOM      6  S   UNL     1       3.504  -2.611  -8.899  0.00  0.00    -0.033 S 
ATOM      7  O   UNL     1       2.238  -3.174  -8.583  0.00  0.00    -0.174 OA
ATOM      8  O   UNL     1       3.565  -1.338  -9.528  0.00  0.00    -0.174 OA
ATOM      9  C   UNL     1       4.542  -2.578  -7.377  0.00  0.00    +0.151 C 
ENDBRANCH   1   3
BRANCH   1  10
ATOM     10  C   UNL     1       6.133  -3.553  -5.300  0.00  0.00    -0.043 C 
BRANCH  10  11
ATOM     11  C   UNL     1       6.776  -2.209  -4.953  0.00  0.00    +0.135 C 
BRANCH  11  12
ATOM     12  O   UNL     1       8.198  -2.352  -4.932  0.00  0.00    -0.390 OA
ATOM     13  H   UNL     1       8.519  -2.997  -4.287  0.00  0.00    +0.210 HD
ENDBRANCH  11  12
BRANCH  11  14
ATOM     14  C   UNL     1       6.290  -1.751  -3.576  0.00  0.00    +0.258 C 
BRANCH  14  15
ATOM     15  O   UNL     1       6.798  -0.444  -3.301  0.00  0.00    -0.489 OA
BRANCH  15  19
ATOM     16  C   UNL     1       5.760   1.246   0.316  0.00  0.00    -0.045 A 
ATOM     17  C   UNL     1       6.565   1.943  -0.566  0.00  0.00    +0.007 A 
ATOM     18  C   UNL     1       6.914   1.379  -1.778  0.00  0.00    +0.046 A 
ATOM     19  C   UNL     1       6.456   0.113  -2.110  0.00  0.00    +0.121 A 
ATOM     20  C   UNL     1       5.649  -0.585  -1.223  0.00  0.00    +0.046 A 
ATOM     21  C   UNL     1       5.307  -0.019  -0.010  0.00  0.00    +0.007 A 
BRANCH  16  23
ATOM     22  C   UNL     1       6.647   2.164   2.442  0.00  0.00    +0.012 C 
ATOM     23  C   UNL     1       5.381   1.864   1.637  0.00  0.00    +0.013 C 
ATOM     24  C   UNL     1       4.613   3.164   1.391  0.00  0.00    +0.012 C 
ENDBRANCH  16  23
ENDBRANCH  15  19
ENDBRANCH  14  15
ENDBRANCH  11  14
ENDBRANCH  10  11
ENDBRANCH   1  10
BRANCH   1  25
ATOM     25  C   UNL     1       7.101  -5.264  -6.675  0.00  0.00    -0.003 C 
BRANCH  25  26
ATOM     26  C   UNL     1       7.605  -5.587  -8.058  0.00  0.00    +0.089 A 
ATOM     27  C   UNL     1       8.598  -4.944  -8.702  0.00  0.00    +0.043 A 
ATOM     28  C   UNL     1       8.744  -5.564  -9.959  0.00  0.00    +0.050 A 
ATOM     29  C   UNL     1       7.821  -6.561 -10.014  0.00  0.00    +0.135 A 
ATOM     30  O   UNL     1       7.141  -6.567  -8.851  0.00  0.00    -0.462 OA
BRANCH  29  31
ATOM     31  C   UNL     1       7.606  -7.482 -11.149  0.00  0.00    +0.017 A 
ATOM     32  C   UNL     1       8.392  -7.374 -12.298  0.00  0.00    +0.014 A 
ATOM     33  C   UNL     1       8.186  -8.236 -13.355  0.00  0.00    +0.039 A 
ATOM     34  C   UNL     1       7.201  -9.208 -13.278  0.00  0.00    +0.123 A 
ATOM     35  C   UNL     1       6.418  -9.320 -12.140  0.00  0.00    +0.039 A 
ATOM     36  C   UNL     1       6.619  -8.467 -11.075  0.00  0.00    +0.014 A 
ATOM     37  F   UNL     1       7.003 -10.050 -14.316  0.00  0.00    -0.205 F 
ENDBRANCH  29  31
ENDBRANCH  25  26
ENDBRANCH   1  25
TORSDOF 11
