REMARK  Name = ZINC48509550
REMARK  7 active torsions:
REMARK  status: ('A' for Active; 'I' for Inactive)
REMARK    1  A    between atoms: C_1  and  N_2
REMARK    2  A    between atoms: N_2  and  C_3
REMARK    3  A    between atoms: C_3  and  C_4
REMARK    4  A    between atoms: N_12  and  C_13
REMARK    5  A    between atoms: C_17  and  O_19
REMARK    6  A    between atoms: O_19  and  C_20
REMARK    7  A    between atoms: C_20  and  C_21
REMARK                            x       y       z     vdW  Elec       q    Type
REMARK                         _______ _______ _______ _____ _____    ______ ____
ROOT
ATOM      1  C   UNL     1       0.008   1.433   0.027  0.00  0.00    +0.134 C 
ATOM      2  N   UNL     1      -0.161  -0.022  -0.002  0.00  0.00    -0.284 N 
ATOM      3  C   UNL     1      -0.169  -0.676  -1.181  0.00  0.00    +0.307 C 
ATOM      4  O   UNL     1      -0.309  -1.883  -1.205  0.00  0.00    -0.252 OA
ATOM      5  N   UNL     1      -0.020   0.009  -2.332  0.00  0.00    -0.269 N 
ATOM      6  H   UNL     1       0.015   0.978  -2.319  0.00  0.00    +0.156 HD
ENDROOT
BRANCH   5   7
ATOM      7  C   UNL     1       0.083  -0.679  -3.547  0.00  0.00    +0.038 A 
ATOM      8  C   UNL     1      -0.432  -0.119  -4.709  0.00  0.00    +0.023 A 
ATOM      9  C   UNL     1      -0.330  -0.798  -5.908  0.00  0.00    +0.005 A 
ATOM     10  C   UNL     1       0.284  -2.035  -5.954  0.00  0.00    +0.046 A 
ATOM     11  C   UNL     1       0.800  -2.600  -4.796  0.00  0.00    +0.124 A 
ATOM     12  C   UNL     1       0.705  -1.919  -3.592  0.00  0.00    +0.069 A 
BRANCH  11  13
ATOM     13  O   UNL     1       1.403  -3.817  -4.843  0.00  0.00    -0.477 OA
BRANCH  13  14
ATOM     14  C   UNL     1       1.471  -4.459  -6.118  0.00  0.00    +0.346 C 
BRANCH  14  15
ATOM     15  C   UNL     1       2.151  -5.756  -5.978  0.00  0.00    +0.104 C 
ATOM     16  N   UNL     1       2.677  -6.758  -5.871  0.00  0.00    -0.193 NA
ENDBRANCH  14  15
ENDBRANCH  13  14
ENDBRANCH  11  13
ENDBRANCH   5   7
BRANCH   2  17
ATOM     17  C   UNL     1      -0.322  -0.766   1.249  0.00  0.00    +0.151 C 
BRANCH  17  18
ATOM     18  C   UNL     1      -1.786  -0.855   1.596  0.00  0.00    +0.008 A 
ATOM     19  C   UNL     1      -2.688  -1.808   1.253  0.00  0.00    +0.028 A 
ATOM     20  C   UNL     1      -3.994  -1.683   1.689  0.00  0.00    +0.025 A 
ATOM     21  C   UNL     1      -4.334  -0.611   2.446  0.00  0.00    +0.060 A 
ATOM     22  S   UNL     1      -2.781   0.261   2.571  0.00  0.00    -0.099 S 
ATOM     23 BR   UNL     1      -5.287  -2.986   1.234  0.00  0.00    -0.050 Br
ENDBRANCH  17  18
ENDBRANCH   2  17
TORSDOF 6
