REMARK  Name = ZINC54643335
REMARK  11 active torsions:
REMARK  status: ('A' for Active; 'I' for Inactive)
REMARK    1  A    between atoms: C_1  and  C_2
REMARK    2  A    between atoms: C_2  and  C_3
REMARK    3  A    between atoms: C_3  and  C_4
REMARK    4  A    between atoms: C_4  and  O_5
REMARK    5  A    between atoms: O_5  and  C_6
REMARK    6  A    between atoms: C_6  and  C_8
REMARK    7  A    between atoms: C_9  and  C_37
REMARK    8  A    between atoms: C_13  and  S_28
REMARK    9  A    between atoms: C_16  and  C_18
REMARK   10  A    between atoms: S_28  and  C_29
REMARK   11  A    between atoms: C_29  and  C_30
REMARK                            x       y       z     vdW  Elec       q    Type
REMARK                         _______ _______ _______ _____ _____    ______ ____
ROOT
ATOM      1  C   UNL     1      -4.209  -4.489   0.225  0.00  0.00    +0.082 C 
ATOM      2  C   UNL     1      -4.334  -5.788  -0.085  0.00  0.00    +0.020 C 
ATOM      3  N   UNL     1      -5.557  -6.378  -0.283  0.00  0.00    -0.287 N 
ATOM      4  C   UNL     1      -6.683  -5.662   0.100  0.00  0.00    +0.219 A 
ATOM      5  N   UNL     1      -7.922  -6.051   0.232  0.00  0.00    -0.187 NA
ATOM      6  C   UNL     1      -8.676  -5.016   0.631  0.00  0.00    +0.211 A 
ATOM      7  N   UNL     1      -7.912  -3.952   0.756  0.00  0.00    -0.141 NA
ATOM      8  N   UNL     1      -6.619  -4.345   0.414  0.00  0.00    -0.220 N 
ATOM      9  C   UNL     1      -5.387  -3.563   0.376  0.00  0.00    +0.181 C 
ATOM     10  C   UNL     1      -3.090  -6.628  -0.220  0.00  0.00    +0.061 C 
ATOM     11  H   UNL     1      -5.633  -7.262  -0.677  0.00  0.00    +0.155 HD
ENDROOT
BRANCH   9  12
ATOM     12  C   UNL     1      -5.435  -2.615  -0.795  0.00  0.00    +0.007 A 
ATOM     13  C   UNL     1      -5.560  -2.950  -2.089  0.00  0.00    +0.089 A 
ATOM     14  N   UNL     1      -5.565  -1.823  -2.864  0.00  0.00    -0.360 N 
ATOM     15  H   UNL     1      -5.645  -1.812  -3.831  0.00  0.00    +0.165 HD
ATOM     16  C   UNL     1      -5.440  -0.707  -2.068  0.00  0.00    +0.047 A 
ATOM     17  C   UNL     1      -5.359  -1.154  -0.736  0.00  0.00    +0.005 A 
ATOM     18  C   UNL     1      -5.231  -0.230   0.302  0.00  0.00    +0.010 A 
ATOM     19  C   UNL     1      -5.189   1.107   0.019  0.00  0.00    +0.001 A 
ATOM     20  C   UNL     1      -5.273   1.553  -1.292  0.00  0.00    +0.002 A 
ATOM     21  C   UNL     1      -5.390   0.658  -2.333  0.00  0.00    +0.026 A 
ENDBRANCH   9  12
BRANCH   1  22
ATOM     22  C   UNL     1      -2.912  -3.966   0.424  0.00  0.00    +0.339 C 
ATOM     23  O   UNL     1      -2.479  -3.826   1.553  0.00  0.00    -0.245 OA
BRANCH  22  24
ATOM     24  O   UNL     1      -2.153  -3.621  -0.637  0.00  0.00    -0.461 OA
BRANCH  24  25
ATOM     25  C   UNL     1      -0.852  -3.099  -0.361  0.00  0.00    +0.232 C 
BRANCH  25  26
ATOM     26  C   UNL     1      -0.146  -2.767  -1.678  0.00  0.00    +0.041 C 
BRANCH  26  28
ATOM     27  C   UNL     1       1.953  -1.877  -2.699  0.00  0.00    +0.004 C 
ATOM     28  C   UNL     1       1.247  -2.208  -1.383  0.00  0.00    -0.000 C 
ENDBRANCH  26  28
ENDBRANCH  25  26
ENDBRANCH  24  25
ENDBRANCH  22  24
ENDBRANCH   1  22
BRANCH   6  29
ATOM     29  S   UNL     1     -10.410  -5.073   0.939  0.00  0.00    -0.080 S 
BRANCH  29  30
ATOM     30  C   UNL     1     -10.861  -6.796   0.592  0.00  0.00    +0.115 C 
BRANCH  30  31
ATOM     31  C   UNL     1     -12.339  -6.984   0.819  0.00  0.00    -0.002 A 
ATOM     32  C   UNL     1     -12.805  -7.350   2.068  0.00  0.00    +0.007 A 
ATOM     33  C   UNL     1     -14.160  -7.523   2.277  0.00  0.00    +0.000 A 
ATOM     34  C   UNL     1     -15.052  -7.328   1.238  0.00  0.00    +0.003 A 
ATOM     35  C   UNL     1     -14.588  -6.961  -0.011  0.00  0.00    +0.038 A 
ATOM     36  C   UNL     1     -13.231  -6.783  -0.221  0.00  0.00    +0.127 A 
ATOM     37  F   UNL     1     -12.777  -6.419  -1.440  0.00  0.00    -0.205 F 
ENDBRANCH  30  31
ENDBRANCH  29  30
ENDBRANCH   6  29
TORSDOF 9
