REMARK  Name = ZINC19681740
REMARK  3 active torsions:
REMARK  status: ('A' for Active; 'I' for Inactive)
REMARK    1  A    between atoms: C_9  and  O_12
REMARK    2  A    between atoms: O_12  and  S_13
REMARK    3  A    between atoms: S_13  and  C_16
REMARK                            x       y       z     vdW  Elec       q    Type
REMARK                         _______ _______ _______ _____ _____    ______ ____
ROOT
ATOM      1  S   UNL     1       5.405  -2.941  -1.450  0.00  0.00    +0.151 S 
ATOM      2  O   UNL     1       6.525  -3.800  -1.287  0.00  0.00    -0.131 OA
ATOM      3  O   UNL     1       4.281  -3.296  -2.245  0.00  0.00    -0.131 OA
ENDROOT
BRANCH   1   4
ATOM      4  C   UNL     1       6.023  -1.425  -2.102  0.00  0.00    +0.128 A 
ATOM      5  C   UNL     1       5.184  -0.587  -2.813  0.00  0.00    +0.032 A 
ATOM      6  C   UNL     1       5.665   0.602  -3.326  0.00  0.00    +0.025 A 
ATOM      7  C   UNL     1       6.993   0.955  -3.126  0.00  0.00    +0.037 A 
ATOM      8  C   UNL     1       7.833   0.111  -2.411  0.00  0.00    -0.024 A 
ATOM      9  C   UNL     1       7.345  -1.074  -1.897  0.00  0.00    +0.036 A 
ATOM     10  C   UNL     1       9.273   0.495  -2.193  0.00  0.00    +0.046 C 
ATOM     11  C   UNL     1       9.787   1.262  -3.412  0.00  0.00    +0.101 C 
ATOM     12  C   UNL     1       8.811   2.345  -3.785  0.00  0.00    +0.218 C 
ATOM     13  O   UNL     1       9.223   3.400  -4.220  0.00  0.00    -0.275 OA
ATOM     14  N   UNL     1       7.487   2.157  -3.641  0.00  0.00    -0.285 N 
ATOM     15  H   UNL     1       6.870   2.861  -3.897  0.00  0.00    +0.155 HD
ENDBRANCH   1   4
BRANCH   1  16
ATOM     16  O   UNL     1       4.875  -2.647  -0.054  0.00  0.00    -0.341 OA
BRANCH  16  25
ATOM     17  C   UNL     1      -0.016   1.357   0.009  0.00  0.00    +0.001 A 
ATOM     18  C   UNL     1       1.168   2.091   0.002  0.00  0.00    +0.001 A 
ATOM     19  C   UNL     1       2.378   1.468  -0.013  0.00  0.00    +0.010 A 
ATOM     20  C   UNL     1       2.438   0.063  -0.021  0.00  0.00    -0.000 A 
ATOM     21  C   UNL     1       1.232  -0.683  -0.013  0.00  0.00    -0.017 A 
ATOM     22  C   UNL     1       0.002  -0.004   0.002  0.00  0.00    +0.008 A 
ATOM     23  C   UNL     1       1.288  -2.088  -0.020  0.00  0.00    +0.012 A 
ATOM     24  C   UNL     1       2.493  -2.718  -0.034  0.00  0.00    +0.050 A 
ATOM     25  C   UNL     1       3.686  -1.990  -0.041  0.00  0.00    +0.171 A 
ATOM     26  C   UNL     1       3.669  -0.613  -0.036  0.00  0.00    +0.070 A 
ATOM     27 BR   UNL     1       5.290   0.359  -0.046  0.00  0.00    -0.046 Br
ENDBRANCH  16  25
ENDBRANCH   1  16
TORSDOF 3
