REMARK  Name = ZINC63012772
REMARK  5 active torsions:
REMARK  status: ('A' for Active; 'I' for Inactive)
REMARK    1  A    between atoms: C_1  and  C_2
REMARK    2  A    between atoms: C_2  and  C_3
REMARK    3  A    between atoms: C_3  and  C_5
REMARK    4  A    between atoms: C_3  and  N_9
REMARK    5  A    between atoms: N_6  and  O_7
REMARK                            x       y       z     vdW  Elec       q    Type
REMARK                         _______ _______ _______ _____ _____    ______ ____
ROOT
ATOM      1  N   UNL     1       0.044   0.112  -2.444  0.00  0.00    -0.285 NA
ATOM      2  C   UNL     1      -0.118   1.562  -2.387  0.00  0.00    +0.126 C 
ATOM      3  C   UNL     1      -1.127   2.099  -3.379  0.00  0.00    +0.244 C 
ATOM      4  O   UNL     1      -0.679   1.887  -4.724  0.00  0.00    -0.490 OA
ATOM      5  C   UNL     1      -0.981   0.671  -5.254  0.00  0.00    +0.125 A 
ATOM      6  C   UNL     1      -1.907   0.568  -6.283  0.00  0.00    +0.046 A 
ATOM      7  C   UNL     1      -2.222  -0.675  -6.798  0.00  0.00    +0.004 A 
ATOM      8  C   UNL     1      -1.621  -1.812  -6.290  0.00  0.00    +0.001 A 
ATOM      9  C   UNL     1      -0.692  -1.709  -5.269  0.00  0.00    +0.008 A 
ATOM     10  C   UNL     1      -0.368  -0.466  -4.763  0.00  0.00    +0.008 A 
ATOM     11  C   UNL     1       0.689  -0.335  -3.684  0.00  0.00    +0.124 C 
ENDROOT
BRANCH   1  12
ATOM     12  C   UNL     1       0.770  -0.383  -1.266  0.00  0.00    +0.123 C 
BRANCH  12  13
ATOM     13  C   UNL     1       0.856  -1.887  -1.324  0.00  0.00    +0.149 C 
ATOM     14  N   UNL     1       1.810  -2.503  -0.711  0.00  0.00    -0.075 NA
ATOM     15  N   UNL     1      -0.084  -2.603  -2.032  0.00  0.00    -0.343 N 
ATOM     16  H   UNL     1      -0.801  -2.140  -2.492  0.00  0.00    +0.144 HD
ATOM     17  H   UNL     1      -0.029  -3.571  -2.069  0.00  0.00    +0.144 HD
BRANCH  14  18
ATOM     18  O   UNL     1       1.891  -3.916  -0.765  0.00  0.00    -0.408 OA
ATOM     19  H   UNL     1       2.639  -4.286  -0.276  0.00  0.00    +0.328 HD
ENDBRANCH  14  18
ENDBRANCH  12  13
BRANCH  12  21
ATOM     20  C   UNL     1       0.811  -0.430   1.232  0.00  0.00    +0.006 C 
ATOM     21  C   UNL     1       0.027   0.037   0.004  0.00  0.00    +0.023 C 
ENDBRANCH  12  21
ENDBRANCH   1  12
TORSDOF 4
