REMARK  Name = ZINC25394194
REMARK  10 active torsions:
REMARK  status: ('A' for Active; 'I' for Inactive)
REMARK    1  A    between atoms: C_1  and  C_2
REMARK    2  A    between atoms: C_2  and  C_3
REMARK    3  A    between atoms: C_3  and  C_28
REMARK    4  A    between atoms: N_6  and  N_10
REMARK    5  A    between atoms: C_11  and  C_13
REMARK    6  A    between atoms: C_13  and  C_14
REMARK    7  A    between atoms: C_17  and  C_19
REMARK    8  A    between atoms: C_24  and  O_25
REMARK    9  A    between atoms: O_25  and  C_26
REMARK   10  A    between atoms: C_26  and  C_27
REMARK                            x       y       z     vdW  Elec       q    Type
REMARK                         _______ _______ _______ _____ _____    ______ ____
ROOT
ATOM      1  N   UNL     1      -2.925   6.987  -1.296  0.00  0.00    -0.223 N 
ATOM      2  C   UNL     1      -1.788   6.288  -1.110  0.00  0.00    +0.235 C 
ATOM      3  O   UNL     1      -1.495   5.392  -1.873  0.00  0.00    -0.274 OA
ATOM      4  H   UNL     1      -3.191   7.800  -0.605  0.00  0.00    +0.174 HD
ENDROOT
BRANCH   1   8
ATOM      5  C   UNL     1      -4.890   6.714  -4.361  0.00  0.00    +0.139 C 
ATOM      6  C   UNL     1      -3.876   7.426  -3.488  0.00  0.00    +0.268 C 
ATOM      7  O   UNL     1      -3.283   8.453  -3.742  0.00  0.00    -0.271 OA
ATOM      8  N   UNL     1      -3.768   6.679  -2.372  0.00  0.00    -0.137 N 
ATOM      9  C   UNL     1      -4.571   5.609  -2.415  0.00  0.00    +0.327 C 
ATOM     10  O   UNL     1      -4.652   4.789  -1.521  0.00  0.00    -0.251 OA
ATOM     11  N   UNL     1      -5.278   5.543  -3.557  0.00  0.00    -0.280 N 
ATOM     12  H   UNL     1      -6.020   4.830  -3.946  0.00  0.00    +0.152 HD
BRANCH   5  13
ATOM     13  C   UNL     1      -6.081   7.602  -4.614  0.00  0.00    -0.015 A 
ATOM     14  C   UNL     1      -6.139   8.371  -5.761  0.00  0.00    +0.006 A 
ATOM     15  C   UNL     1      -7.234   9.182  -5.995  0.00  0.00    +0.000 A 
ATOM     16  C   UNL     1      -8.267   9.231  -5.077  0.00  0.00    +0.000 A 
ATOM     17  C   UNL     1      -8.207   8.465  -3.928  0.00  0.00    +0.000 A 
ATOM     18  C   UNL     1      -7.114   7.651  -3.696  0.00  0.00    +0.006 A 
ENDBRANCH   5  13
BRANCH   5  20
ATOM     19  C   UNL     1      -3.093   5.321  -5.396  0.00  0.00    +0.007 C 
ATOM     20  C   UNL     1      -4.255   6.274  -5.682  0.00  0.00    +0.037 C 
ENDBRANCH   5  20
ENDBRANCH   1   8
BRANCH   2  21
ATOM     21  C   UNL     1      -0.880   6.620   0.047  0.00  0.00    +0.153 C 
BRANCH  21  22
ATOM     22  C   UNL     1       0.312   5.698   0.030  0.00  0.00    +0.058 A 
ATOM     23  C   UNL     1       1.570   6.213   0.020  0.00  0.00    +0.071 A 
ATOM     24  S   UNL     1       2.541   4.712   0.003  0.00  0.00    -0.075 S 
ATOM     25  C   UNL     1       1.170   3.565   0.010  0.00  0.00    +0.112 A 
ATOM     26  N   UNL     1       0.138   4.397   0.019  0.00  0.00    -0.243 NA
BRANCH  25  27
ATOM     27  C   UNL     1       1.183   2.087   0.002  0.00  0.00    +0.049 A 
ATOM     28  C   UNL     1      -0.017   1.375   0.010  0.00  0.00    +0.014 A 
ATOM     29  C   UNL     1       0.002  -0.004   0.002  0.00  0.00    +0.001 A 
ATOM     30  C   UNL     1       1.207  -0.685  -0.013  0.00  0.00    +0.004 A 
ATOM     31  C   UNL     1       2.402   0.009  -0.020  0.00  0.00    +0.046 A 
ATOM     32  C   UNL     1       2.400   1.395  -0.013  0.00  0.00    +0.130 A 
BRANCH  32  33
ATOM     33  O   UNL     1       3.574   2.078  -0.020  0.00  0.00    -0.492 OA
BRANCH  33  34
ATOM     34  C   UNL     1       4.775   1.304  -0.036  0.00  0.00    +0.226 C 
ATOM     35  C   UNL     1       5.985   2.241  -0.043  0.00  0.00    +0.048 C 
ENDBRANCH  33  34
ENDBRANCH  32  33
ENDBRANCH  25  27
ENDBRANCH  21  22
ENDBRANCH   2  21
TORSDOF 8
