REMARK  Name = ZINC43287740
REMARK  7 active torsions:
REMARK  status: ('A' for Active; 'I' for Inactive)
REMARK    1  A    between atoms: C_1  and  C_2
REMARK    2  A    between atoms: C_2  and  C_3
REMARK    3  A    between atoms: C_3  and  C_5
REMARK    4  A    between atoms: C_3  and  N_24
REMARK    5  A    between atoms: C_5  and  C_7
REMARK    6  A    between atoms: C_5  and  N_13
REMARK    7  A    between atoms: C_21  and  C_23
REMARK                            x       y       z     vdW  Elec       q    Type
REMARK                         _______ _______ _______ _____ _____    ______ ____
ROOT
ATOM      1  C   UNL     1       0.722  -2.137  -1.131  0.00  0.00    +0.080 C 
ENDROOT
BRANCH   1   2
ATOM      2  N   UNL     1       1.393  -2.659  -2.329  0.00  0.00    -0.290 NA
ATOM      3  C   UNL     1       1.172  -1.776  -3.483  0.00  0.00    +0.090 C 
ATOM      4  C   UNL     1       1.522  -2.543  -4.769  0.00  0.00    +0.058 C 
ATOM      5  C   UNL     1       2.834  -3.223  -4.550  0.00  0.00    -0.004 A 
ATOM      6  C   UNL     1       3.467  -3.404  -3.357  0.00  0.00    -0.020 A 
ATOM      7  C   UNL     1       4.691  -4.068  -3.396  0.00  0.00    +0.013 A 
ATOM      8  C   UNL     1       5.190  -4.497  -4.579  0.00  0.00    +0.046 A 
ATOM      9  S   UNL     1       3.924  -3.972  -5.726  0.00  0.00    -0.101 S 
ATOM     10  C   UNL     1       2.821  -2.887  -2.075  0.00  0.00    +0.085 C 
ATOM     11  C   UNL     1       2.985  -3.925  -0.963  0.00  0.00    +0.029 C 
ENDBRANCH   1   2
BRANCH   1  12
ATOM     12  C   UNL     1      -0.748  -2.462  -1.196  0.00  0.00    +0.006 A 
ATOM     13  C   UNL     1      -1.579  -2.861  -0.203  0.00  0.00    +0.028 A 
ATOM     14  C   UNL     1      -2.908  -3.106  -0.498  0.00  0.00    +0.025 A 
ATOM     15  C   UNL     1      -3.340  -2.940  -1.772  0.00  0.00    +0.060 A 
ATOM     16  S   UNL     1      -1.848  -2.414  -2.602  0.00  0.00    -0.099 S 
ATOM     17 BR   UNL     1      -4.104  -3.665   0.856  0.00  0.00    -0.050 Br
ENDBRANCH   1  12
BRANCH   1  18
ATOM     18  C   UNL     1       0.906  -0.620  -1.063  0.00  0.00    -0.053 C 
BRANCH  18  19
ATOM     19  N   UNL     1       2.340  -0.300  -1.049  0.00  0.00    +0.381 N 
ATOM     20  H   UNL     1       2.805  -0.871  -0.359  0.00  0.00    -0.090 HD
ATOM     21  H   UNL     1       2.734  -0.485  -1.959  0.00  0.00    -0.090 HD
ATOM     22  H   UNL     1       2.465   0.674  -0.820  0.00  0.00    -0.090 HD
ENDBRANCH  18  19
BRANCH  18  24
ATOM     23  C   UNL     1       0.326   1.445   0.218  0.00  0.00    +0.002 C 
ATOM     24  C   UNL     1       0.252  -0.083   0.211  0.00  0.00    -0.018 C 
ENDBRANCH  18  24
ENDBRANCH   1  18
TORSDOF 5
