REMARK  Name = ZINC23608066
REMARK  4 active torsions:
REMARK  status: ('A' for Active; 'I' for Inactive)
REMARK    1  A    between atoms: C_1  and  N_2
REMARK    2  A    between atoms: C_11  and  C_13
REMARK    3  A    between atoms: C_17  and  S_19
REMARK    4  A    between atoms: S_19  and  N_22
REMARK                            x       y       z     vdW  Elec       q    Type
REMARK                         _______ _______ _______ _____ _____    ______ ____
ROOT
ATOM      1  C   UNL     1       2.057  -7.717   2.959  0.00  0.00    +0.039 A 
ATOM      2  C   UNL     1       1.222  -8.690   2.407  0.00  0.00    +0.013 A 
ATOM      3  C   UNL     1       1.421 -10.020   2.715  0.00  0.00    +0.003 A 
ATOM      4  C   UNL     1       2.445 -10.390   3.569  0.00  0.00    +0.029 A 
ATOM      5  C   UNL     1       3.276  -9.430   4.120  0.00  0.00    +0.109 A 
ATOM      6  C   UNL     1       3.091  -8.097   3.816  0.00  0.00    +0.042 A 
ENDROOT
BRANCH   1  17
ATOM      7  C   UNL     1      -0.018   1.465   0.010  0.00  0.00    +0.105 C 
ATOM      8  N   UNL     1       0.002  -0.004   0.002  0.00  0.00    -0.300 NA
ATOM      9  C   UNL     1      -1.362  -0.549   0.020  0.00  0.00    +0.090 C 
ATOM     10  C   UNL     1      -1.348  -2.033  -0.362  0.00  0.00    +0.071 C 
ATOM     11  C   UNL     1      -0.326  -2.739   0.518  0.00  0.00    +0.056 A 
ATOM     12  C   UNL     1       0.616  -2.008   1.173  0.00  0.00    +0.028 A 
ATOM     13  S   UNL     1       1.534  -3.250   2.037  0.00  0.00    -0.055 S 
ATOM     14  C   UNL     1       0.655  -4.585   1.500  0.00  0.00    +0.165 A 
ATOM     15  N   UNL     1      -0.259  -4.049   0.721  0.00  0.00    -0.229 NA
ATOM     16  N   UNL     1       0.850  -5.926   1.806  0.00  0.00    -0.261 N 
ATOM     17  C   UNL     1       1.850  -6.290   2.633  0.00  0.00    +0.250 C 
ATOM     18  O   UNL     1       2.581  -5.445   3.112  0.00  0.00    -0.270 OA
ATOM     19  C   UNL     1       0.790  -0.529   1.135  0.00  0.00    +0.128 C 
ATOM     20  H   UNL     1       0.266  -6.600   1.425  0.00  0.00    +0.157 HD
ENDBRANCH   1  17
BRANCH   5  21
ATOM     21  S   UNL     1       4.576  -9.912   5.207  0.00  0.00    +0.075 S 
ATOM     22  O   UNL     1       4.868  -8.782   6.017  0.00  0.00    -0.150 OA
ATOM     23  O   UNL     1       4.201 -11.168   5.757  0.00  0.00    -0.150 OA
BRANCH  21  24
ATOM     24  N   UNL     1       5.917 -10.186   4.275  0.00  0.00    -0.202 N 
ATOM     25  C   UNL     1       6.272 -11.473   3.672  0.00  0.00    +0.136 C 
ATOM     26  C   UNL     1       7.585 -11.215   2.914  0.00  0.00    +0.058 C 
ATOM     27  C   UNL     1       7.880  -9.752   3.155  0.00  0.00    -0.023 A 
ATOM     28  C   UNL     1       6.871  -9.222   3.943  0.00  0.00    +0.054 A 
ATOM     29  C   UNL     1       6.924  -7.872   4.296  0.00  0.00    +0.025 A 
ATOM     30  C   UNL     1       7.965  -7.080   3.861  0.00  0.00    +0.002 A 
ATOM     31  C   UNL     1       8.965  -7.617   3.071  0.00  0.00    +0.000 A 
ATOM     32  C   UNL     1       8.924  -8.955   2.724  0.00  0.00    +0.005 A 
ENDBRANCH  21  24
ENDBRANCH   5  21
TORSDOF 3
