REMARK  Name = ZINC08839616
REMARK  6 active torsions:
REMARK  status: ('A' for Active; 'I' for Inactive)
REMARK    1  A    between atoms: C_4  and  C_7
REMARK    2  A    between atoms: C_7  and  C_8
REMARK    3  A    between atoms: C_7  and  N_14
REMARK    4  A    between atoms: N_17  and  C_18
REMARK    5  A    between atoms: C_18  and  C_19
REMARK    6  A    between atoms: N_22  and  C_26
REMARK                            x       y       z     vdW  Elec       q    Type
REMARK                         _______ _______ _______ _____ _____    ______ ____
ROOT
ATOM      1  N   UNL     1      -2.345   0.934   0.018  0.00  0.00    -0.289 N 
ATOM      2  C   UNL     1      -1.187   1.624   0.017  0.00  0.00    +0.300 C 
ATOM      3  O   UNL     1      -1.204   2.840   0.023  0.00  0.00    -0.253 OA
ATOM      4  N   UNL     1      -0.011   0.966   0.007  0.00  0.00    -0.296 N 
ATOM      5  H   UNL     1      -2.332  -0.036   0.013  0.00  0.00    +0.151 HD
ATOM      6  H   UNL     1       0.002  -0.004   0.002  0.00  0.00    +0.150 HD
ENDROOT
BRANCH   1   7
ATOM      7  C   UNL     1      -3.624   1.649   0.028  0.00  0.00    +0.135 C 
BRANCH   7  11
ATOM      8  C   UNL     1      -4.714   2.673  -3.973  0.00  0.00    +0.000 A 
ATOM      9  C   UNL     1      -4.929   3.573  -2.946  0.00  0.00    +0.000 A 
ATOM     10  C   UNL     1      -4.576   3.242  -1.652  0.00  0.00    +0.006 A 
ATOM     11  C   UNL     1      -4.008   2.010  -1.383  0.00  0.00    -0.023 A 
ATOM     12  C   UNL     1      -3.788   1.112  -2.411  0.00  0.00    +0.006 A 
ATOM     13  C   UNL     1      -4.145   1.442  -3.705  0.00  0.00    +0.000 A 
ENDBRANCH   7  11
BRANCH   7  14
ATOM     14  C   UNL     1      -4.688   0.767   0.629  0.00  0.00    -0.023 A 
ATOM     15  C   UNL     1      -4.722  -0.581   0.325  0.00  0.00    +0.006 A 
ATOM     16  C   UNL     1      -5.695  -1.390   0.879  0.00  0.00    +0.000 A 
ATOM     17  C   UNL     1      -6.641  -0.850   1.731  0.00  0.00    +0.000 A 
ATOM     18  C   UNL     1      -6.610   0.499   2.031  0.00  0.00    +0.000 A 
ATOM     19  C   UNL     1      -5.634   1.308   1.480  0.00  0.00    +0.006 A 
ENDBRANCH   7  14
ENDBRANCH   1   7
BRANCH   4  20
ATOM     20  C   UNL     1       1.248   1.716  -0.001  0.00  0.00    +0.152 C 
BRANCH  20  21
ATOM     21  C   UNL     1       2.424   0.737  -0.017  0.00  0.00    +0.213 C 
ATOM     22  C   UNL     1       3.761   1.499   0.051  0.00  0.00    +0.163 C 
ATOM     23  N   UNL     1       4.436   1.137  -1.204  0.00  0.00    -0.234 N 
ATOM     24  C   UNL     1       3.644   0.308  -1.898  0.00  0.00    +0.408 C 
ATOM     25  O   UNL     1       3.952  -0.153  -2.980  0.00  0.00    -0.226 OA
ATOM     26  O   UNL     1       2.482   0.030  -1.290  0.00  0.00    -0.444 OA
BRANCH  23  27
ATOM     27  C   UNL     1       5.698   1.585  -1.609  0.00  0.00    +0.041 A 
ATOM     28  C   UNL     1       6.421   2.452  -0.799  0.00  0.00    +0.024 A 
ATOM     29  C   UNL     1       7.669   2.889  -1.198  0.00  0.00    +0.003 A 
ATOM     30  C   UNL     1       8.195   2.473  -2.408  0.00  0.00    +0.020 A 
ATOM     31  C   UNL     1       7.476   1.614  -3.219  0.00  0.00    +0.043 A 
ATOM     32  C   UNL     1       6.228   1.169  -2.822  0.00  0.00    +0.043 A 
ATOM     33 CL   UNL     1       8.140   1.094  -4.737  0.00  0.00    -0.083 Cl
ENDBRANCH  23  27
ENDBRANCH  20  21
ENDBRANCH   4  20
TORSDOF 6
