REMARK  Name = ZINC05443845
REMARK  5 active torsions:
REMARK  status: ('A' for Active; 'I' for Inactive)
REMARK    1  A    between atoms: C_1  and  C_2
REMARK    2  A    between atoms: C_2  and  C_4
REMARK    3  A    between atoms: C_2  and  N_14
REMARK    4  A    between atoms: C_15  and  C_17
REMARK    5  A    between atoms: C_17  and  C_18
REMARK                            x       y       z     vdW  Elec       q    Type
REMARK                         _______ _______ _______ _____ _____    ______ ____
ROOT
ATOM      1  N   UNL     1       5.279  -1.605  -1.743  0.00  0.00    -0.312 N 
ATOM      2  C   UNL     1       4.128  -0.955  -1.477  0.00  0.00    +0.218 C 
ATOM      3  O   UNL     1       3.430  -0.561  -2.387  0.00  0.00    -0.275 OA
ATOM      4  H   UNL     1       5.837  -1.919  -1.015  0.00  0.00    +0.149 HD
ENDROOT
BRANCH   1   6
ATOM      5  C   UNL     1       5.017  -3.108  -3.654  0.00  0.00    +0.028 C 
ATOM      6  C   UNL     1       5.686  -1.835  -3.131  0.00  0.00    +0.076 C 
BRANCH   6   7
ATOM      7  C   UNL     1       7.206  -1.994  -3.197  0.00  0.00    -0.010 C 
ATOM      8  C   UNL     1       7.632  -3.184  -2.336  0.00  0.00    +0.012 C 
ATOM      9  C   UNL     1       9.153  -3.343  -2.402  0.00  0.00    -0.010 C 
ATOM     10  C   UNL     1       9.578  -3.584  -3.852  0.00  0.00    +0.007 C 
ATOM     11  C   UNL     1       9.151  -2.393  -4.713  0.00  0.00    -0.010 C 
ATOM     12  C   UNL     1       7.631  -2.235  -4.647  0.00  0.00    +0.012 C 
ATOM     13  C   UNL     1       9.820  -1.120  -4.190  0.00  0.00    +0.007 C 
ATOM     14  C   UNL     1       9.395  -0.879  -2.740  0.00  0.00    -0.010 C 
ATOM     15  C   UNL     1       9.821  -2.070  -1.879  0.00  0.00    +0.007 C 
ATOM     16  C   UNL     1       7.875  -0.721  -2.674  0.00  0.00    +0.012 C 
ENDBRANCH   6   7
ENDBRANCH   1   6
BRANCH   2  17
ATOM     17  C   UNL     1       3.709  -0.717  -0.049  0.00  0.00    +0.131 C 
BRANCH  17  18
ATOM     18  C   UNL     1       2.397   0.024  -0.027  0.00  0.00    -0.035 A 
ATOM     19  C   UNL     1       1.207  -0.680  -0.016  0.00  0.00    +0.008 A 
ATOM     20  C   UNL     1       0.002  -0.004   0.002  0.00  0.00    +0.050 A 
ATOM     21  C   UNL     1      -0.017   1.383   0.010  0.00  0.00    +0.162 A 
ATOM     22  C   UNL     1       1.179   2.090   0.002  0.00  0.00    +0.162 A 
ATOM     23  C   UNL     1       2.385   1.406  -0.018  0.00  0.00    +0.053 A 
ATOM     24  O   UNL     1       1.184   3.451   0.018  0.00  0.00    -0.485 OA
ATOM     25  C   UNL     1      -0.040   4.103  -0.340  0.00  0.00    +0.270 C 
ATOM     26  C   UNL     1      -1.189   3.413   0.408  0.00  0.00    +0.270 C 
ATOM     27  O   UNL     1      -1.212   2.035   0.019  0.00  0.00    -0.485 OA
ENDBRANCH  17  18
ENDBRANCH   2  17
TORSDOF 4
