REMARK  Name = ZINC23449848
REMARK  11 active torsions:
REMARK  status: ('A' for Active; 'I' for Inactive)
REMARK    1  A    between atoms: C_1  and  C_2
REMARK    2  A    between atoms: C_2  and  N_3
REMARK    3  A    between atoms: C_7  and  C_9
REMARK    4  A    between atoms: C_9  and  N_10
REMARK    5  A    between atoms: C_11  and  C_13
REMARK    6  A    between atoms: C_13  and  C_14
REMARK    7  A    between atoms: C_14  and  C_15
REMARK    8  A    between atoms: N_19  and  C_20
REMARK    9  A    between atoms: C_23  and  C_28
REMARK   10  A    between atoms: C_25  and  O_26
REMARK   11  A    between atoms: O_26  and  C_27
REMARK                            x       y       z     vdW  Elec       q    Type
REMARK                         _______ _______ _______ _____ _____    ______ ____
ROOT
ATOM      1  C   UNL     1       4.449   4.106   0.006  0.00  0.00    +0.025 A 
ATOM      2  C   UNL     1       3.449   4.934   0.395  0.00  0.00    +0.030 A 
ATOM      3  C   UNL     1       2.269   4.200   0.391  0.00  0.00    +0.016 A 
ATOM      4  C   UNL     1       2.584   2.920  -0.015  0.00  0.00    +0.064 A 
ATOM      5  N   UNL     1       3.918   2.867  -0.246  0.00  0.00    -0.309 N 
ATOM      6  C   UNL     1       1.510   1.914  -0.118  0.00  0.00    +0.041 A 
ATOM      7  C   UNL     1       1.759   0.557  -0.249  0.00  0.00    +0.013 A 
ATOM      8  C   UNL     1       0.698  -0.328  -0.299  0.00  0.00    +0.001 A 
ATOM      9  C   UNL     1      -0.601   0.143  -0.225  0.00  0.00    +0.004 A 
ATOM     10  C   UNL     1      -0.858   1.495  -0.097  0.00  0.00    +0.046 A 
ATOM     11  C   UNL     1       0.190   2.400  -0.053  0.00  0.00    +0.130 A 
ATOM     12  O   UNL     1      -0.049   3.732   0.027  0.00  0.00    -0.487 OA
ATOM     13  C   UNL     1       0.856   4.585   0.735  0.00  0.00    +0.266 C 
ENDROOT
BRANCH   5  14
ATOM     14  C   UNL     1       4.634   1.738  -0.671  0.00  0.00    +0.089 A 
ATOM     15  C   UNL     1       4.798   1.488  -2.026  0.00  0.00    +0.030 A 
ATOM     16  C   UNL     1       5.507   0.378  -2.442  0.00  0.00    +0.005 A 
ATOM     17  C   UNL     1       6.046  -0.492  -1.511  0.00  0.00    -0.047 A 
ATOM     18  C   UNL     1       5.883  -0.252  -0.160  0.00  0.00    +0.051 A 
ATOM     19  C   UNL     1       5.177   0.862   0.266  0.00  0.00    +0.144 A 
ATOM     20  C   UNL     1       6.814  -1.704  -1.972  0.00  0.00    +0.044 C 
BRANCH  19  21
ATOM     21  O   UNL     1       5.016   1.100   1.595  0.00  0.00    -0.493 OA
ATOM     22  C   UNL     1       5.600   0.159   2.498  0.00  0.00    +0.277 C 
ENDBRANCH  19  21
ENDBRANCH   5  14
BRANCH   1  23
ATOM     23  C   UNL     1       5.902   4.485  -0.130  0.00  0.00    +0.063 C 
BRANCH  23  24
ATOM     24  C   UNL     1       6.591   4.355   1.230  0.00  0.00    +0.102 C 
BRANCH  24  26
ATOM     25  N   UNL     1       8.854   4.694   2.171  0.00  0.00    -0.317 N 
ATOM     26  C   UNL     1       8.044   4.734   1.094  0.00  0.00    +0.213 C 
ATOM     27  O   UNL     1       8.484   5.073   0.016  0.00  0.00    -0.276 OA
ATOM     28  H   UNL     1       8.454   4.386   3.148  0.00  0.00    +0.149 HD
BRANCH  25  29
ATOM     29  C   UNL     1      10.266   5.062   2.039  0.00  0.00    +0.089 C 
BRANCH  29  34
ATOM     30  N   UNL     1      10.265   6.089   4.286  0.00  0.00    +0.382 N 
ATOM     31  C   UNL     1      11.294   6.726   5.127  0.00  0.00    -0.078 C 
ATOM     32  C   UNL     1      12.650   6.096   4.745  0.00  0.00    -0.020 C 
ATOM     33  C   UNL     1      12.393   5.546   3.316  0.00  0.00    -0.016 C 
ATOM     34  C   UNL     1      10.919   5.082   3.422  0.00  0.00    -0.051 C 
ATOM     35  H   UNL     1       9.773   6.851   3.664  0.00  0.00    -0.081 HD
BRANCH  30  37
ATOM     36  C   UNL     1       8.652   6.515   6.078  0.00  0.00    -0.017 C 
ATOM     37  C   UNL     1       9.217   5.473   5.111  0.00  0.00    -0.082 C 
ENDBRANCH  30  37
ENDBRANCH  29  34
ENDBRANCH  25  29
ENDBRANCH  24  26
ENDBRANCH  23  24
ENDBRANCH   1  23
TORSDOF 8
