REMARK  Name = ZINC33864529
REMARK  7 active torsions:
REMARK  status: ('A' for Active; 'I' for Inactive)
REMARK    1  A    between atoms: C_1  and  C_2
REMARK    2  A    between atoms: C_2  and  C_3
REMARK    3  A    between atoms: C_2  and  C_4
REMARK    4  A    between atoms: C_2  and  C_5
REMARK    5  A    between atoms: C_8  and  C_11
REMARK    6  A    between atoms: N_20  and  S_21
REMARK    7  A    between atoms: S_21  and  C_24
REMARK                            x       y       z     vdW  Elec       q    Type
REMARK                         _______ _______ _______ _____ _____    ______ ____
ROOT
ATOM      1  C   UNL     1       2.707  -1.868  -4.752  0.00  0.00    +0.156 C 
ATOM      2  C   UNL     1       2.651  -0.808  -5.828  0.00  0.00    +0.042 A 
ATOM      3  C   UNL     1       1.581  -0.418  -6.539  0.00  0.00    +0.025 A 
ATOM      4  C   UNL     1       2.009   0.600  -7.415  0.00  0.00    +0.019 A 
ATOM      5  C   UNL     1       3.328   0.790  -7.203  0.00  0.00    +0.086 A 
ATOM      6  N   UNL     1       3.733  -0.074  -6.233  0.00  0.00    -0.348 N 
ATOM      7  C   UNL     1       5.089  -0.223  -5.695  0.00  0.00    +0.138 C 
ATOM      8  C   UNL     1       5.020  -0.942  -4.343  0.00  0.00    +0.132 C 
ATOM      9  N   UNL     1       4.132  -2.110  -4.458  0.00  0.00    -0.162 NA
ENDROOT
BRANCH   1  13
ATOM     10  C   UNL     1       0.708  -0.489  -1.238  0.00  0.00    -0.042 A 
ATOM     11  C   UNL     1       0.344  -1.692  -1.813  0.00  0.00    +0.004 A 
ATOM     12  C   UNL     1       0.990  -2.138  -2.951  0.00  0.00    +0.006 A 
ATOM     13  C   UNL     1       2.001  -1.381  -3.513  0.00  0.00    -0.023 A 
ATOM     14  C   UNL     1       2.365  -0.178  -2.938  0.00  0.00    +0.006 A 
ATOM     15  C   UNL     1       1.716   0.270  -1.803  0.00  0.00    +0.004 A 
BRANCH  10  17
ATOM     16  C   UNL     1      -0.665   1.343  -0.286  0.00  0.00    +0.015 C 
ATOM     17  C   UNL     1       0.003  -0.003   0.002  0.00  0.00    -0.013 C 
ATOM     18  C   UNL     1       1.019   0.164   1.134  0.00  0.00    +0.015 C 
ATOM     19  C   UNL     1      -1.060  -1.022   0.417  0.00  0.00    +0.015 C 
ENDBRANCH  10  17
ENDBRANCH   1  13
BRANCH   9  20
ATOM     20  S   UNL     1       4.712  -3.649  -4.263  0.00  0.00    +0.064 S 
ATOM     21  O   UNL     1       5.889  -3.542  -3.474  0.00  0.00    -0.153 OA
ATOM     22  O   UNL     1       3.607  -4.455  -3.878  0.00  0.00    -0.153 OA
BRANCH  20  23
ATOM     23  C   UNL     1       5.221  -4.218  -5.851  0.00  0.00    +0.131 A 
ATOM     24  C   UNL     1       6.534  -4.487  -6.092  0.00  0.00    +0.031 A 
ATOM     25  C   UNL     1       6.958  -4.939  -7.340  0.00  0.00    +0.003 A 
ATOM     26  C   UNL     1       6.069  -5.122  -8.356  0.00  0.00    +0.010 A 
ATOM     27  C   UNL     1       4.707  -4.855  -8.143  0.00  0.00    +0.002 A 
ATOM     28  C   UNL     1       4.273  -4.401  -6.872  0.00  0.00    +0.097 A 
ATOM     29  N   UNL     1       2.977  -4.149  -6.664  0.00  0.00    -0.253 NA
ATOM     30  C   UNL     1       2.088  -4.318  -7.612  0.00  0.00    +0.111 A 
ATOM     31  C   UNL     1       2.447  -4.767  -8.882  0.00  0.00    +0.020 A 
ATOM     32  C   UNL     1       3.757  -5.032  -9.166  0.00  0.00    +0.011 A 
ENDBRANCH  20  23
ENDBRANCH   9  20
TORSDOF 4
