REMARK  Name = ZINC56902836
REMARK  13 active torsions:
REMARK  status: ('A' for Active; 'I' for Inactive)
REMARK    1  A    between atoms: C_1  and  N_2
REMARK    2  A    between atoms: N_2  and  C_3
REMARK    3  A    between atoms: N_2  and  C_4
REMARK    4  A    between atoms: C_4  and  C_5
REMARK    5  A    between atoms: C_5  and  N_6
REMARK    6  A    between atoms: C_12  and  O_16
REMARK    7  A    between atoms: O_16  and  C_17
REMARK    8  A    between atoms: N_23  and  C_24
REMARK    9  A    between atoms: C_24  and  C_25
REMARK   10  A    between atoms: C_28  and  O_33
REMARK   11  A    between atoms: C_29  and  O_31
REMARK   12  A    between atoms: O_31  and  C_32
REMARK   13  A    between atoms: O_33  and  C_34
REMARK                            x       y       z     vdW  Elec       q    Type
REMARK                         _______ _______ _______ _____ _____    ______ ____
ROOT
ATOM      1  N   UNL     1      -3.452  -0.617  -1.276  0.00  0.00    -0.236 N 
ATOM      2  C   UNL     1      -4.474   0.161  -0.755  0.00  0.00    +0.169 A 
ATOM      3  N   UNL     1      -4.409   1.365  -0.237  0.00  0.00    -0.224 NA
ATOM      4  C   UNL     1      -5.498   2.011   0.238  0.00  0.00    +0.081 A 
ATOM      5  C   UNL     1      -5.564   3.299   0.816  0.00  0.00    +0.032 A 
ATOM      6  C   UNL     1      -6.757   3.813   1.251  0.00  0.00    +0.048 A 
ATOM      7  C   UNL     1      -7.942   3.091   1.141  0.00  0.00    +0.131 A 
ATOM      8  C   UNL     1      -7.912   1.823   0.579  0.00  0.00    +0.063 A 
ATOM      9  C   UNL     1      -6.718   1.305   0.141  0.00  0.00    +0.044 A 
ATOM     10  S   UNL     1      -6.216  -0.218  -0.624  0.00  0.00    -0.052 S 
ATOM     11  C   UNL     1      -3.723  -1.840  -1.773  0.00  0.00    +0.308 C 
ATOM     12  O   UNL     1      -4.864  -2.261  -1.764  0.00  0.00    -0.252 OA
ATOM     13  N   UNL     1      -2.730  -2.597  -2.280  0.00  0.00    -0.295 N 
ATOM     14  H   UNL     1      -1.820  -2.261  -2.287  0.00  0.00    +0.151 HD
ENDROOT
BRANCH   1  15
ATOM     15  C   UNL     1      -2.078  -0.110  -1.286  0.00  0.00    +0.099 C 
BRANCH  15  16
ATOM     16  C   UNL     1      -1.376  -0.512   0.012  0.00  0.00    -0.060 C 
BRANCH  16  18
ATOM     17  C   UNL     1      -0.018   1.465   0.010  0.00  0.00    -0.097 C 
ATOM     18  N   UNL     1       0.002  -0.004   0.002  0.00  0.00    +0.377 N 
ATOM     19  C   UNL     1       0.713  -0.491   1.192  0.00  0.00    -0.097 C 
ATOM     20  H   UNL     1       0.474  -0.330  -0.828  0.00  0.00    -0.083 HD
ENDBRANCH  16  18
ENDBRANCH  15  16
ENDBRANCH   1  15
BRANCH   7  21
ATOM     21  O   UNL     1      -9.114   3.621   1.581  0.00  0.00    -0.406 OA
BRANCH  21  22
ATOM     22  C   UNL     1      -9.061   4.932   2.148  0.00  0.00    +0.575 C 
ATOM     23  F   UNL     1      -8.574   5.833   1.195  0.00  0.00    -0.133 F 
ATOM     24  F   UNL     1     -10.345   5.320   2.545  0.00  0.00    -0.133 F 
ATOM     25  F   UNL     1      -8.212   4.924   3.260  0.00  0.00    -0.133 F 
ENDBRANCH  21  22
ENDBRANCH   7  21
BRANCH  13  26
ATOM     26  C   UNL     1      -3.024  -3.926  -2.820  0.00  0.00    +0.141 C 
BRANCH  26  27
ATOM     27  C   UNL     1      -1.751  -4.559  -3.320  0.00  0.00    -0.027 A 
ATOM     28  C   UNL     1      -1.351  -4.362  -4.629  0.00  0.00    +0.009 A 
ATOM     29  C   UNL     1      -0.183  -4.940  -5.092  0.00  0.00    +0.050 A 
ATOM     30  C   UNL     1       0.589  -5.718  -4.244  0.00  0.00    +0.162 A 
ATOM     31  C   UNL     1       0.186  -5.915  -2.926  0.00  0.00    +0.162 A 
ATOM     32  C   UNL     1      -0.982  -5.329  -2.467  0.00  0.00    +0.054 A 
BRANCH  31  33
ATOM     33  O   UNL     1       0.941  -6.677  -2.090  0.00  0.00    -0.491 OA
ATOM     34  C   UNL     1       0.466  -6.836  -0.752  0.00  0.00    +0.277 C 
ENDBRANCH  31  33
BRANCH  30  35
ATOM     35  O   UNL     1       1.737  -6.287  -4.698  0.00  0.00    -0.491 OA
ATOM     36  C   UNL     1       2.088  -6.042  -6.061  0.00  0.00    +0.277 C 
ENDBRANCH  30  35
ENDBRANCH  26  27
ENDBRANCH  13  26
TORSDOF 9
