REMARK  Name = ZINC22714926
REMARK  12 active torsions:
REMARK  status: ('A' for Active; 'I' for Inactive)
REMARK    1  A    between atoms: C_1  and  C_2
REMARK    2  A    between atoms: C_2  and  O_3
REMARK    3  A    between atoms: O_3  and  C_4
REMARK    4  A    between atoms: C_4  and  C_6
REMARK    5  A    between atoms: C_7  and  C_35
REMARK    6  A    between atoms: C_14  and  C_15
REMARK    7  A    between atoms: C_20  and  O_21
REMARK    8  A    between atoms: C_23  and  C_25
REMARK    9  A    between atoms: C_30  and  O_31
REMARK   10  A    between atoms: O_31  and  C_32
REMARK   11  A    between atoms: C_32  and  C_33
REMARK   12  A    between atoms: C_32  and  C_34
REMARK                            x       y       z     vdW  Elec       q    Type
REMARK                         _______ _______ _______ _____ _____    ______ ____
ROOT
ATOM      1  C   UNL     1       1.589   2.329   0.702  0.00  0.00    +0.085 C 
ATOM      2  C   UNL     1       2.864   1.844   0.618  0.00  0.00    +0.053 C 
ATOM      3  N   UNL     1       3.840   2.591   0.118  0.00  0.00    -0.228 NA
ATOM      4  C   UNL     1       3.693   3.817  -0.318  0.00  0.00    +0.178 A 
ATOM      5  N   UNL     1       2.496   4.496  -0.319  0.00  0.00    -0.275 N 
ATOM      6  C   UNL     1       2.469   5.750  -0.790  0.00  0.00    +0.268 A 
ATOM      7  O   UNL     1       1.434   6.389  -0.812  0.00  0.00    -0.266 OA
ATOM      8  C   UNL     1       3.727   6.329  -1.282  0.00  0.00    +0.081 A 
ATOM      9  C   UNL     1       3.965   7.561  -1.801  0.00  0.00    +0.032 C 
ATOM     10  S   UNL     1       4.859   4.975  -1.009  0.00  0.00    -0.046 S 
ATOM     11  C   UNL     1       1.332   3.739   0.220  0.00  0.00    +0.165 C 
ATOM     12  C   UNL     1       3.163   0.445   1.094  0.00  0.00    +0.066 C 
ENDROOT
BRANCH   9  13
ATOM     13  C   UNL     1       5.344   8.015  -2.012  0.00  0.00    +0.018 A 
ATOM     14  C   UNL     1       6.400   7.403  -1.325  0.00  0.00    +0.011 A 
ATOM     15  C   UNL     1       7.692   7.835  -1.528  0.00  0.00    +0.001 A 
ATOM     16  C   UNL     1       7.953   8.873  -2.408  0.00  0.00    +0.004 A 
ATOM     17  C   UNL     1       6.921   9.487  -3.093  0.00  0.00    +0.046 A 
ATOM     18  C   UNL     1       5.615   9.063  -2.907  0.00  0.00    +0.124 A 
BRANCH  18  19
ATOM     19  O   UNL     1       4.602   9.661  -3.584  0.00  0.00    -0.506 OA
ATOM     20  H   UNL     1       4.817  10.481  -4.285  0.00  0.00    +0.292 HD
ENDBRANCH  18  19
ENDBRANCH   9  13
BRANCH  11  21
ATOM     21  C   UNL     1       0.761   4.525   1.372  0.00  0.00    +0.022 A 
ATOM     22  C   UNL     1      -0.572   4.888   1.369  0.00  0.00    +0.009 A 
ATOM     23  C   UNL     1      -1.096   5.609   2.425  0.00  0.00    +0.001 A 
ATOM     24  C   UNL     1      -0.288   5.970   3.487  0.00  0.00    +0.004 A 
ATOM     25  C   UNL     1       1.046   5.610   3.496  0.00  0.00    +0.046 A 
ATOM     26  C   UNL     1       1.573   4.881   2.439  0.00  0.00    +0.126 A 
BRANCH  26  27
ATOM     27  O   UNL     1       2.883   4.521   2.447  0.00  0.00    -0.489 OA
BRANCH  27  28
ATOM     28  C   UNL     1       3.634   4.832   3.623  0.00  0.00    +0.167 C 
ATOM     29  C   UNL     1       4.846   3.904   3.714  0.00  0.00    +0.051 C 
ATOM     30  C   UNL     1       4.109   6.285   3.555  0.00  0.00    +0.051 C 
ENDBRANCH  27  28
ENDBRANCH  26  27
ENDBRANCH  11  21
BRANCH   1  31
ATOM     31  C   UNL     1       0.549   1.544   1.225  0.00  0.00    +0.339 C 
ATOM     32  O   UNL     1       0.747   0.372   1.492  0.00  0.00    -0.245 OA
BRANCH  31  33
ATOM     33  O   UNL     1      -0.671   2.086   1.426  0.00  0.00    -0.462 OA
BRANCH  33  35
ATOM     34  C   UNL     1      -2.991   1.999   2.098  0.00  0.00    +0.048 C 
ATOM     35  C   UNL     1      -1.652   1.261   2.059  0.00  0.00    +0.229 C 
ENDBRANCH  33  35
ENDBRANCH  31  33
ENDBRANCH   1  31
TORSDOF 8
