REMARK  Name = ZINC49421263
REMARK  5 active torsions:
REMARK  status: ('A' for Active; 'I' for Inactive)
REMARK    1  A    between atoms: C_1  and  C_2
REMARK    2  A    between atoms: C_5  and  C_8
REMARK    3  A    between atoms: C_23  and  C_26
REMARK    4  A    between atoms: N_28  and  C_29
REMARK    5  A    between atoms: C_32  and  C_35
REMARK                            x       y       z     vdW  Elec       q    Type
REMARK                         _______ _______ _______ _____ _____    ______ ____
ROOT
ATOM      1  C   UNL     1       1.183  -8.621   1.413  0.00  0.00    +0.015 A 
ATOM      2  C   UNL     1       0.192  -8.932   0.540  0.00  0.00    +0.056 A 
ATOM      3  S   UNL     1      -0.226  -7.479  -0.188  0.00  0.00    -0.089 S 
ATOM      4  C   UNL     1       0.899  -6.389   0.636  0.00  0.00    +0.103 A 
ATOM      5  C   UNL     1       1.604  -7.233   1.507  0.00  0.00    +0.094 A 
ATOM      6  N   UNL     1       2.555  -6.654   2.289  0.00  0.00    -0.215 NA
ATOM      7  C   UNL     1       2.798  -5.371   2.236  0.00  0.00    +0.199 A 
ATOM      8  N   UNL     1       2.124  -4.526   1.403  0.00  0.00    -0.294 N 
ATOM      9  H   UNL     1       2.334  -3.579   1.393  0.00  0.00    +0.172 HD
ATOM     10  C   UNL     1       1.168  -5.022   0.582  0.00  0.00    +0.267 A 
ATOM     11  O   UNL     1       0.549  -4.290  -0.173  0.00  0.00    -0.267 OA
ATOM     12  N   UNL     1       3.772  -4.851   3.054  0.00  0.00    -0.300 N 
ATOM     13  C   UNL     1       4.612  -5.735   3.873  0.00  0.00    +0.108 C 
ATOM     14  C   UNL     1       4.540  -5.272   5.332  0.00  0.00    +0.020 C 
ATOM     15  C   UNL     1       4.920  -3.792   5.412  0.00  0.00    +0.016 C 
ATOM     16  C   UNL     1       3.929  -2.963   4.593  0.00  0.00    +0.092 C 
ATOM     17  C   UNL     1       3.998  -3.401   3.121  0.00  0.00    +0.120 C 
ENDROOT
BRANCH   1  22
ATOM     18  C   UNL     1       3.639 -12.685   4.670  0.00  0.00    +0.044 C 
ATOM     19  C   UNL     1       2.997 -11.621   3.818  0.00  0.00    -0.050 A 
ATOM     20  C   UNL     1       1.618 -11.521   3.764  0.00  0.00    +0.004 A 
ATOM     21  C   UNL     1       1.024 -10.549   2.985  0.00  0.00    +0.009 A 
ATOM     22  C   UNL     1       1.816  -9.667   2.252  0.00  0.00    -0.015 A 
ATOM     23  C   UNL     1       3.205  -9.772   2.311  0.00  0.00    +0.009 A 
ATOM     24  C   UNL     1       3.788 -10.745   3.097  0.00  0.00    +0.004 A 
ENDBRANCH   1  22
BRANCH  16  25
ATOM     25  C   UNL     1       4.284  -1.503   4.699  0.00  0.00    +0.218 C 
ATOM     26  O   UNL     1       4.560  -0.871   3.701  0.00  0.00    -0.275 OA
ATOM     27  N   UNL     1       4.296  -0.898   5.904  0.00  0.00    -0.312 N 
ATOM     28  H   UNL     1       4.075  -1.403   6.702  0.00  0.00    +0.149 HD
BRANCH  27  29
ATOM     29  C   UNL     1       4.642   0.521   6.008  0.00  0.00    +0.073 C 
ATOM     30  C   UNL     1       6.163   0.672   6.081  0.00  0.00    +0.022 C 
ATOM     31  C   UNL     1       6.524   2.155   6.190  0.00  0.00    +0.005 C 
ATOM     32  C   UNL     1       5.892   2.742   7.453  0.00  0.00    -0.014 C 
ATOM     33  C   UNL     1       4.371   2.592   7.379  0.00  0.00    +0.005 C 
ATOM     34  C   UNL     1       4.010   1.109   7.271  0.00  0.00    +0.022 C 
ATOM     35  C   UNL     1       6.253   4.225   7.561  0.00  0.00    +0.007 C 
ENDBRANCH  27  29
ENDBRANCH  16  25
TORSDOF 3
