REMARK  Name = ZINC21149828
REMARK  3 active torsions:
REMARK  status: ('A' for Active; 'I' for Inactive)
REMARK    1  A    between atoms: C_4  and  C_7
REMARK    2  A    between atoms: C_7  and  N_8
REMARK    3  A    between atoms: C_27  and  C_30
REMARK                            x       y       z     vdW  Elec       q    Type
REMARK                         _______ _______ _______ _____ _____    ______ ____
ROOT
ATOM      1  N   UNL     1      -2.193   1.948   1.233  0.00  0.00    -0.217 N 
ATOM      2  C   UNL     1      -1.906   3.148   1.779  0.00  0.00    +0.261 C 
ATOM      3  O   UNL     1      -2.354   4.173   1.298  0.00  0.00    -0.269 OA
ATOM      4  C   UNL     1      -1.047   3.192   2.968  0.00  0.00    +0.116 C 
ATOM      5  C   UNL     1      -0.560   1.983   3.470  0.00  0.00    +0.258 C 
ATOM      6  N   UNL     1      -0.903   0.819   2.843  0.00  0.00    -0.235 N 
ATOM      7  H   UNL     1      -0.528  -0.142   3.225  0.00  0.00    +0.159 HD
ATOM      8  C   UNL     1      -1.695   0.817   1.760  0.00  0.00    +0.316 C 
ATOM      9  O   UNL     1      -1.972  -0.245   1.237  0.00  0.00    -0.252 OA
ATOM     10  O   UNL     1       0.237   1.966   4.556  0.00  0.00    -0.270 OA
ATOM     11  C   UNL     1      -0.707   4.465   3.606  0.00  0.00    +0.027 C 
ATOM     12  N   UNL     1       0.268   5.068   3.117  0.00  0.00    -0.316 N 
ATOM     13  C   UNL     1       1.095   6.099   3.291  0.00  0.00    +0.045 A 
ATOM     14  C   UNL     1       2.181   6.147   2.386  0.00  0.00    +0.024 A 
ATOM     15  C   UNL     1       3.139   7.125   2.464  0.00  0.00    +0.002 A 
ATOM     16  C   UNL     1       3.054   8.097   3.447  0.00  0.00    +0.001 A 
ATOM     17  C   UNL     1       2.001   8.075   4.332  0.00  0.00    +0.016 A 
ATOM     18  C   UNL     1       1.009   7.090   4.270  0.00  0.00    +0.030 A 
ATOM     19  S   UNL     1      -0.277   7.193   5.450  0.00  0.00    -0.115 S 
ATOM     20  C   UNL     1      -0.795   5.529   5.853  0.00  0.00    +0.087 C 
ATOM     21  C   UNL     1      -1.568   4.860   4.753  0.00  0.00    +0.071 C 
ATOM     22  H   UNL     1       0.717   4.715   2.177  0.00  0.00    +0.152 HD
ENDROOT
BRANCH  20  23
ATOM     23  C   UNL     1      -1.658   5.581   7.087  0.00  0.00    -0.034 A 
ATOM     24  C   UNL     1      -2.864   6.255   7.059  0.00  0.00    +0.006 A 
ATOM     25  C   UNL     1      -3.659   6.297   8.189  0.00  0.00    +0.020 A 
ATOM     26  C   UNL     1      -3.241   5.675   9.352  0.00  0.00    +0.041 A 
ATOM     27  C   UNL     1      -2.030   5.006   9.381  0.00  0.00    +0.020 A 
ATOM     28  C   UNL     1      -1.239   4.959   8.249  0.00  0.00    +0.006 A 
ATOM     29 CL   UNL     1      -4.235   5.734  10.774  0.00  0.00    -0.084 Cl
ENDBRANCH  20  23
BRANCH   1  30
ATOM     30  C   UNL     1      -3.053   1.878   0.049  0.00  0.00    +0.153 C 
BRANCH  30  34
ATOM     31  C   UNL     1      -7.128   1.488   1.267  0.00  0.00    +0.000 A 
ATOM     32  C   UNL     1      -6.580   2.743   1.081  0.00  0.00    +0.000 A 
ATOM     33  C   UNL     1      -5.261   2.869   0.687  0.00  0.00    +0.005 A 
ATOM     34  C   UNL     1      -4.490   1.740   0.479  0.00  0.00    -0.030 A 
ATOM     35  C   UNL     1      -5.040   0.485   0.660  0.00  0.00    +0.005 A 
ATOM     36  C   UNL     1      -6.358   0.359   1.059  0.00  0.00    +0.000 A 
ENDBRANCH  30  34
ENDBRANCH   1  30
TORSDOF 3
