REMARK  Name = ZINC35966687
REMARK  11 active torsions:
REMARK  status: ('A' for Active; 'I' for Inactive)
REMARK    1  A    between atoms: C_1  and  C_2
REMARK    2  A    between atoms: C_2  and  N_3
REMARK    3  A    between atoms: C_6  and  C_11
REMARK    4  A    between atoms: C_16  and  C_17
REMARK    5  A    between atoms: N_23  and  C_25
REMARK    6  A    between atoms: C_25  and  C_27
REMARK    7  A    between atoms: C_25  and  C_31
REMARK    8  A    between atoms: C_27  and  C_28
REMARK    9  A    between atoms: C_28  and  C_29
REMARK   10  A    between atoms: C_28  and  C_30
REMARK   11  A    between atoms: N_36  and  C_39
REMARK                            x       y       z     vdW  Elec       q    Type
REMARK                         _______ _______ _______ _____ _____    ______ ____
ROOT
ATOM      1  N   UNL     1      -0.337   1.286  -2.176  0.00  0.00    -0.257 N 
ATOM      2  C   UNL     1      -0.395   0.618  -3.366  0.00  0.00    +0.042 C 
ATOM      3  C   UNL     1       0.691   0.005  -3.877  0.00  0.00    +0.058 C 
ATOM      4  C   UNL     1       1.982   0.083  -3.087  0.00  0.00    +0.142 C 
ATOM      5  N   UNL     1       1.942   0.827  -1.817  0.00  0.00    -0.288 N 
ATOM      6  C   UNL     1       0.777   1.391  -1.439  0.00  0.00    +0.307 C 
ATOM      7  O   UNL     1       0.735   2.011  -0.394  0.00  0.00    -0.252 OA
ATOM      8  C   UNL     1       0.374  -0.611  -5.105  0.00  0.00    +0.247 C 
ATOM      9  O   UNL     1       1.167  -1.236  -5.787  0.00  0.00    -0.270 OA
ATOM     10  N   UNL     1      -0.918  -0.418  -5.426  0.00  0.00    -0.281 N 
ATOM     11  C   UNL     1      -1.520   0.380  -4.348  0.00  0.00    +0.160 C 
ATOM     12  H   UNL     1       2.736   0.912  -1.266  0.00  0.00    +0.151 HD
ENDROOT
BRANCH   4  13
ATOM     13  C   UNL     1       3.027   0.721  -3.965  0.00  0.00    -0.011 A 
ATOM     14  C   UNL     1       2.950   2.069  -4.263  0.00  0.00    +0.006 A 
ATOM     15  C   UNL     1       3.909   2.654  -5.069  0.00  0.00    +0.000 A 
ATOM     16  C   UNL     1       4.945   1.892  -5.576  0.00  0.00    +0.001 A 
ATOM     17  C   UNL     1       5.022   0.544  -5.278  0.00  0.00    +0.013 A 
ATOM     18  C   UNL     1       4.065  -0.040  -4.468  0.00  0.00    +0.060 A 
BRANCH  18  19
ATOM     19  C   UNL     1       4.152  -1.508  -4.138  0.00  0.00    +0.418 C 
ATOM     20  F   UNL     1       5.315  -2.044  -4.701  0.00  0.00    -0.166 F 
ATOM     21  F   UNL     1       4.188  -1.672  -2.749  0.00  0.00    -0.166 F 
ATOM     22  F   UNL     1       3.034  -2.170  -4.658  0.00  0.00    -0.166 F 
ENDBRANCH  18  19
ENDBRANCH   4  13
BRANCH   1  24
ATOM     23  C   UNL     1      -1.630   3.362  -2.213  0.00  0.00    +0.025 C 
ATOM     24  C   UNL     1      -1.557   1.929  -1.682  0.00  0.00    +0.111 C 
ENDBRANCH   1  24
BRANCH  10  25
ATOM     25  C   UNL     1      -1.598  -0.911  -6.627  0.00  0.00    +0.163 C 
BRANCH  25  26
ATOM     26  C   UNL     1      -1.062  -0.193  -7.838  0.00  0.00    +0.236 C 
ATOM     27  O   UNL     1      -0.025   0.431  -7.764  0.00  0.00    -0.274 OA
ATOM     28  N   UNL     1      -1.734  -0.245  -9.005  0.00  0.00    -0.298 N 
ATOM     29  C   UNL     1      -3.046  -0.904  -9.091  0.00  0.00    +0.123 C 
ATOM     30  C   UNL     1      -4.033   0.061  -9.757  0.00  0.00    +0.103 C 
ATOM     31  N   UNL     1      -3.480   0.514 -11.040  0.00  0.00    -0.302 NA
ATOM     32  C   UNL     1      -2.236   1.271 -10.847  0.00  0.00    +0.103 C 
ATOM     33  C   UNL     1      -1.179   0.361 -10.225  0.00  0.00    +0.123 C 
ATOM     34  C   UNL     1      -4.467   1.304 -11.789  0.00  0.00    +0.105 C 
ENDBRANCH  25  26
BRANCH  25  35
ATOM     35  C   UNL     1      -1.350  -2.413  -6.772  0.00  0.00    +0.035 C 
BRANCH  35  36
ATOM     36  C   UNL     1      -2.071  -3.161  -5.649  0.00  0.00    -0.015 C 
ATOM     37  C   UNL     1      -1.999  -4.667  -5.910  0.00  0.00    +0.007 C 
ATOM     38  C   UNL     1      -1.400  -2.842  -4.312  0.00  0.00    +0.007 C 
ENDBRANCH  35  36
ENDBRANCH  25  35
ENDBRANCH  10  25
TORSDOF 7
