REMARK  Name = ZINC45677462
REMARK  6 active torsions:
REMARK  status: ('A' for Active; 'I' for Inactive)
REMARK    1  A    between atoms: C_1  and  C_2
REMARK    2  A    between atoms: C_5  and  C_7
REMARK    3  A    between atoms: C_7  and  N_8
REMARK    4  A    between atoms: C_18  and  C_24
REMARK    5  A    between atoms: C_24  and  O_26
REMARK    6  A    between atoms: O_26  and  C_27
REMARK                            x       y       z     vdW  Elec       q    Type
REMARK                         _______ _______ _______ _____ _____    ______ ____
ROOT
ATOM      1  N   UNL     1       1.995  -6.572  -0.649  0.00  0.00    -0.295 N 
ATOM      2  C   UNL     1       1.680  -5.747  -1.667  0.00  0.00    +0.303 C 
ATOM      3  O   UNL     1       1.173  -4.666  -1.439  0.00  0.00    -0.253 OA
ATOM      4  N   UNL     1       1.928  -6.120  -2.939  0.00  0.00    -0.281 N 
ATOM      5  C   UNL     1       1.698  -5.193  -4.057  0.00  0.00    +0.116 C 
ATOM      6  C   UNL     1       3.039  -4.880  -4.731  0.00  0.00    +0.072 C 
ATOM      7  C   UNL     1       3.803  -6.168  -4.929  0.00  0.00    +0.023 A 
ATOM      8  C   UNL     1       3.537  -7.314  -4.267  0.00  0.00    -0.002 A 
ATOM      9  C   UNL     1       4.485  -8.306  -4.732  0.00  0.00    +0.005 A 
ATOM     10  C   UNL     1       4.688  -9.647  -4.407  0.00  0.00    +0.025 A 
ATOM     11  C   UNL     1       5.725 -10.303  -5.078  0.00  0.00    +0.060 A 
ATOM     12  C   UNL     1       6.517  -9.645  -6.026  0.00  0.00    +0.017 A 
ATOM     13  C   UNL     1       6.325  -8.328  -6.351  0.00  0.00    +0.027 A 
ATOM     14  C   UNL     1       5.296  -7.649  -5.696  0.00  0.00    +0.047 A 
ATOM     15  N   UNL     1       4.854  -6.364  -5.788  0.00  0.00    -0.358 N 
ATOM     16  H   UNL     1       5.227  -5.687  -6.374  0.00  0.00    +0.166 HD
ATOM     17  C   UNL     1       2.442  -7.467  -3.246  0.00  0.00    +0.146 C 
ATOM     18  H   UNL     1       2.330  -7.464  -0.834  0.00  0.00    +0.151 HD
ENDROOT
BRANCH  11  19
ATOM     19  C   UNL     1       5.991 -11.723  -4.779  0.00  0.00    +0.339 C 
ATOM     20  O   UNL     1       5.312 -12.309  -3.959  0.00  0.00    -0.245 OA
BRANCH  19  21
ATOM     21  O   UNL     1       6.986 -12.371  -5.417  0.00  0.00    -0.464 OA
ATOM     22  C   UNL     1       7.187 -13.744  -5.078  0.00  0.00    +0.280 C 
ENDBRANCH  19  21
ENDBRANCH  11  19
BRANCH   1  23
ATOM     23  C   UNL     1       1.829  -6.123   0.735  0.00  0.00    +0.148 C 
BRANCH  23  28
ATOM     24  C   UNL     1       2.457 -10.552   4.212  0.00  0.00    +0.051 C 
ATOM     25  C   UNL     1       2.547  -9.334   3.329  0.00  0.00    -0.013 A 
ATOM     26  C   UNL     1       3.624  -8.559   3.051  0.00  0.00    +0.011 A 
ATOM     27  C   UNL     1       3.471  -7.478   2.203  0.00  0.00    +0.013 A 
ATOM     28  C   UNL     1       2.248  -7.226   1.674  0.00  0.00    +0.007 A 
ATOM     29  S   UNL     1       1.265  -8.541   2.373  0.00  0.00    -0.097 S 
ENDBRANCH  23  28
ENDBRANCH   1  23
TORSDOF 4
