REMARK  Name = ZINC62770944
REMARK  5 active torsions:
REMARK  status: ('A' for Active; 'I' for Inactive)
REMARK    1  A    between atoms: C_1  and  C_2
REMARK    2  A    between atoms: C_2  and  C_4
REMARK    3  A    between atoms: C_2  and  N_18
REMARK    4  A    between atoms: C_4  and  C_5
REMARK    5  A    between atoms: C_8  and  C_10
REMARK                            x       y       z     vdW  Elec       q    Type
REMARK                         _______ _______ _______ _____ _____    ______ ____
ROOT
ATOM      1  C   UNL     1       0.657  -2.014   1.298  0.00  0.00    +0.104 A 
ATOM      2  C   UNL     1       1.539  -2.872   0.750  0.00  0.00    +0.045 A 
ATOM      3  C   UNL     1       1.083  -4.174   1.038  0.00  0.00    +0.050 A 
ATOM      4  C   UNL     1      -0.065  -4.037   1.753  0.00  0.00    +0.136 A 
ATOM      5  O   UNL     1      -0.309  -2.722   1.908  0.00  0.00    -0.460 OA
ENDROOT
BRANCH   4   6
ATOM      6  C   UNL     1      -0.898  -5.141   2.276  0.00  0.00    +0.031 A 
ATOM      7  C   UNL     1      -1.286  -6.185   1.435  0.00  0.00    +0.014 A 
ATOM      8  C   UNL     1      -2.063  -7.212   1.928  0.00  0.00    +0.016 A 
ATOM      9  C   UNL     1      -2.459  -7.209   3.255  0.00  0.00    +0.019 A 
ATOM     10  C   UNL     1      -2.079  -6.176   4.095  0.00  0.00    +0.031 A 
ATOM     11  C   UNL     1      -1.296  -5.146   3.614  0.00  0.00    +0.030 A 
ATOM     12 BR   UNL     1      -0.771  -3.740   4.765  0.00  0.00    -0.050 Br
ATOM     13 BR   UNL     1      -3.524  -8.622   3.923  0.00  0.00    -0.050 Br
ENDBRANCH   4   6
BRANCH   1  14
ATOM     14  C   UNL     1       0.742  -0.511   1.242  0.00  0.00    +0.058 C 
BRANCH  14  16
ATOM     15  C   UNL     1      -0.019   1.526   0.010  0.00  0.00    -0.014 C 
ATOM     16  C   UNL     1       0.002  -0.004   0.002  0.00  0.00    -0.071 C 
BRANCH  16  17
ATOM     17  N   UNL     1       0.690  -0.478  -1.207  0.00  0.00    +0.380 N 
ATOM     18  H   UNL     1       1.636  -0.129  -1.214  0.00  0.00    -0.090 HD
ATOM     19  H   UNL     1       0.703  -1.487  -1.212  0.00  0.00    -0.090 HD
ATOM     20  H   UNL     1       0.202  -0.144  -2.024  0.00  0.00    -0.090 HD
ENDBRANCH  16  17
ENDBRANCH  14  16
ENDBRANCH   1  14
TORSDOF 4
