REMARK  Name = ZINC38713052
REMARK  11 active torsions:
REMARK  status: ('A' for Active; 'I' for Inactive)
REMARK    1  A    between atoms: C_1  and  C_2
REMARK    2  A    between atoms: C_2  and  N_3
REMARK    3  A    between atoms: N_3  and  C_4
REMARK    4  A    between atoms: N_3  and  C_6
REMARK    5  A    between atoms: C_4  and  C_5
REMARK    6  A    between atoms: C_6  and  C_7
REMARK    7  A    between atoms: C_7  and  N_8
REMARK    8  A    between atoms: C_9  and  C_28
REMARK    9  A    between atoms: C_31  and  O_34
REMARK   10  A    between atoms: O_34  and  C_35
REMARK   11  A    between atoms: C_35  and  C_36
REMARK                            x       y       z     vdW  Elec       q    Type
REMARK                         _______ _______ _______ _____ _____    ______ ____
ROOT
ATOM      1  N   UNL     1      -0.803  -3.594   2.129  0.00  0.00    -0.285 N 
ATOM      2  C   UNL     1      -1.883  -4.286   2.852  0.00  0.00    +0.144 C 
ATOM      3  C   UNL     1      -1.471  -5.719   2.924  0.00  0.00    +0.072 A 
ATOM      4  C   UNL     1      -2.123  -6.885   3.528  0.00  0.00    +0.199 A 
ATOM      5  O   UNL     1      -3.268  -6.867   3.945  0.00  0.00    -0.287 OA
ATOM      6  C   UNL     1      -1.258  -8.089   3.582  0.00  0.00    +0.065 A 
ATOM      7  C   UNL     1      -1.669  -9.216   4.315  0.00  0.00    +0.016 A 
ATOM      8  C   UNL     1      -0.888 -10.321   4.382  0.00  0.00    +0.009 A 
ATOM      9  C   UNL     1       0.353 -10.353   3.712  0.00  0.00    -0.014 A 
ATOM     10  C   UNL     1       1.176 -11.489   3.776  0.00  0.00    +0.008 A 
ATOM     11  C   UNL     1       2.369 -11.497   3.118  0.00  0.00    +0.001 A 
ATOM     12  C   UNL     1       2.788 -10.393   2.381  0.00  0.00    +0.001 A 
ATOM     13  C   UNL     1       2.015  -9.273   2.299  0.00  0.00    +0.012 A 
ATOM     14  C   UNL     1       0.781  -9.231   2.965  0.00  0.00    +0.025 A 
ATOM     15  C   UNL     1      -0.040  -8.078   2.898  0.00  0.00    +0.147 A 
ATOM     16  O   UNL     1       0.379  -7.016   2.179  0.00  0.00    -0.449 OA
ATOM     17  C   UNL     1      -0.264  -5.838   2.293  0.00  0.00    +0.199 A 
ATOM     18  C   UNL     1       0.134  -4.508   1.802  0.00  0.00    +0.283 C 
ATOM     19  O   UNL     1       1.158  -4.269   1.194  0.00  0.00    -0.267 OA
ENDROOT
BRANCH   2  20
ATOM     20  C   UNL     1      -2.029  -3.715   4.239  0.00  0.00    -0.022 A 
ATOM     21  C   UNL     1      -0.904  -3.375   4.967  0.00  0.00    +0.009 A 
ATOM     22  C   UNL     1      -1.035  -2.852   6.239  0.00  0.00    +0.046 A 
ATOM     23  C   UNL     1      -2.297  -2.666   6.785  0.00  0.00    +0.121 A 
ATOM     24  C   UNL     1      -3.424  -3.007   6.051  0.00  0.00    +0.046 A 
ATOM     25  C   UNL     1      -3.288  -3.526   4.778  0.00  0.00    +0.009 A 
BRANCH  23  26
ATOM     26  O   UNL     1      -2.429  -2.152   8.036  0.00  0.00    -0.488 OA
BRANCH  26  27
ATOM     27  C   UNL     1      -3.758  -1.989   8.533  0.00  0.00    +0.256 C 
BRANCH  27  28
ATOM     28  C   UNL     1      -3.707  -1.411   9.924  0.00  0.00    +0.006 C 
ATOM     29  C   UNL     1      -4.510  -0.430  10.256  0.00  0.00    +0.007 C 
ENDBRANCH  27  28
ENDBRANCH  26  27
ENDBRANCH  23  26
ENDBRANCH   2  20
BRANCH   1  30
ATOM     30  C   UNL     1      -0.756  -2.164   1.814  0.00  0.00    +0.090 C 
BRANCH  30  31
ATOM     31  C   UNL     1      -1.421  -1.919   0.458  0.00  0.00    -0.060 C 
BRANCH  31  32
ATOM     32  N   UNL     1      -1.374  -0.485   0.142  0.00  0.00    +0.380 N 
ATOM     33  H   UNL     1      -1.792   0.039   0.895  0.00  0.00    -0.082 HD
BRANCH  32  35
ATOM     34  C   UNL     1       0.082   1.451  -0.216  0.00  0.00    -0.017 C 
ATOM     35  C   UNL     1       0.024  -0.066  -0.029  0.00  0.00    -0.082 C 
ENDBRANCH  32  35
BRANCH  32  36
ATOM     36  C   UNL     1      -2.116  -0.233  -1.101  0.00  0.00    -0.082 C 
ATOM     37  C   UNL     1      -3.600  -0.533  -0.879  0.00  0.00    -0.017 C 
ENDBRANCH  32  36
ENDBRANCH  31  32
ENDBRANCH  30  31
ENDBRANCH   1  30
TORSDOF 9
