REMARK  Name = ZINC06505940
REMARK  3 active torsions:
REMARK  status: ('A' for Active; 'I' for Inactive)
REMARK    1  A    between atoms: C_6  and  N_7
REMARK    2  A    between atoms: N_7  and  C_8
REMARK    3  A    between atoms: C_8  and  N_15
REMARK                            x       y       z     vdW  Elec       q    Type
REMARK                         _______ _______ _______ _____ _____    ______ ____
ROOT
ATOM      1  C   UNL     1      -1.180  -2.110  -0.103  0.00  0.00    +0.197 C 
ATOM      2  C   UNL     1      -1.865  -2.763  -1.223  0.00  0.00    +0.161 C 
ATOM      3  C   UNL     1      -2.509  -2.090  -2.349  0.00  0.00    +0.188 C 
ATOM      4  N   UNL     1      -3.010  -2.996  -3.145  0.00  0.00    -0.036 NA
ATOM      5  O   UNL     1      -2.731  -4.274  -2.603  0.00  0.00    -0.266 OA
ATOM      6  N   UNL     1      -2.006  -4.085  -1.400  0.00  0.00    -0.189 N 
ATOM      7  N   UNL     1      -2.578  -0.714  -2.540  0.00  0.00    -0.339 N 
ATOM      8  H   UNL     1      -1.675  -4.782  -0.813  0.00  0.00    +0.210 HD
ATOM      9  H   UNL     1      -2.240  -0.112  -1.859  0.00  0.00    +0.144 HD
ATOM     10  H   UNL     1      -2.963  -0.357  -3.355  0.00  0.00    +0.144 HD
ENDROOT
BRANCH   1  11
ATOM     11  N   UNL     1      -1.212  -0.722   0.019  0.00  0.00    -0.295 N 
ATOM     12  H   UNL     1      -2.063  -0.259   0.076  0.00  0.00    +0.154 HD
BRANCH  11  18
ATOM     13  C   UNL     1      -0.049   1.393   0.088  0.00  0.00    +0.024 A 
ATOM     14  C   UNL     1       1.132   2.107   0.128  0.00  0.00    +0.016 A 
ATOM     15  C   UNL     1       2.345   1.441   0.141  0.00  0.00    +0.013 A 
ATOM     16  C   UNL     1       2.378   0.058   0.113  0.00  0.00    +0.016 A 
ATOM     17  C   UNL     1       1.200  -0.662   0.072  0.00  0.00    +0.024 A 
ATOM     18  C   UNL     1      -0.019   0.004   0.060  0.00  0.00    +0.033 A 
ATOM     19  I   UNL     1       4.134   2.528   0.203  0.00  0.00    -0.044 I 
ENDBRANCH  11  18
ENDBRANCH   1  11
BRANCH   1  20
ATOM     20  N   UNL     1      -0.540  -2.829   0.781  0.00  0.00    -0.013 NA
ATOM     21  O   UNL     1      -0.512  -4.042   0.674  0.00  0.00    -0.142 OA
ENDBRANCH   1  20
TORSDOF 3
