REMARK  Name = ZINC64870249
REMARK  7 active torsions:
REMARK  status: ('A' for Active; 'I' for Inactive)
REMARK    1  A    between atoms: C_1  and  C_2
REMARK    2  A    between atoms: C_2  and  O_3
REMARK    3  A    between atoms: O_3  and  C_4
REMARK    4  A    between atoms: C_9  and  C_10
REMARK    5  A    between atoms: C_12  and  C_16
REMARK    6  A    between atoms: N_26  and  C_29
REMARK    7  A    between atoms: C_29  and  C_30
REMARK                            x       y       z     vdW  Elec       q    Type
REMARK                         _______ _______ _______ _____ _____    ______ ____
ROOT
ATOM      1  C   UNL     1       2.359  -0.638  -6.683  0.00  0.00    +0.006 A 
ATOM      2  C   UNL     1       1.107  -1.212  -6.842  0.00  0.00    +0.009 A 
ATOM      3  C   UNL     1       0.493  -1.218  -8.077  0.00  0.00    +0.016 A 
ATOM      4  C   UNL     1       1.140  -0.640  -9.167  0.00  0.00    +0.063 A 
ATOM      5  C   UNL     1       2.409  -0.058  -9.005  0.00  0.00    +0.056 A 
ATOM      6  C   UNL     1       3.008  -0.058  -7.754  0.00  0.00    +0.034 A 
ATOM      7  N   UNL     1       3.029   0.509 -10.108  0.00  0.00    -0.307 N 
ATOM      8  H   UNL     1       3.905   0.914 -10.011  0.00  0.00    +0.170 HD
ATOM      9  C   UNL     1       2.428   0.503 -11.310  0.00  0.00    +0.330 A 
ATOM     10  O   UNL     1       3.006   1.011 -12.252  0.00  0.00    -0.246 OA
ATOM     11  N   UNL     1       1.218  -0.040 -11.516  0.00  0.00    -0.256 N 
ATOM     12  C   UNL     1       0.529  -0.618 -10.508  0.00  0.00    +0.265 A 
ATOM     13  O   UNL     1      -0.567  -1.107 -10.703  0.00  0.00    -0.267 OA
ENDROOT
BRANCH   1  16
ATOM     14  C   UNL     1       1.986  -1.424  -3.484  0.00  0.00    +0.138 C 
ATOM     15  N   UNL     1       2.593  -1.821  -4.561  0.00  0.00    -0.339 N 
ATOM     16  C   UNL     1       3.014  -0.641  -5.326  0.00  0.00    +0.274 C 
ATOM     17  O   UNL     1       2.577   0.489  -4.558  0.00  0.00    -0.243 OA
ATOM     18  N   UNL     1       1.933  -0.053  -3.416  0.00  0.00    -0.247 N 
ATOM     19  H   UNL     1       1.523   0.460  -2.702  0.00  0.00    +0.196 HD
ATOM     20  H   UNL     1       2.742  -2.745  -4.818  0.00  0.00    +0.164 HD
BRANCH  14  26
ATOM     21  C   UNL     1       0.777  -1.808  -1.336  0.00  0.00    +0.131 A 
ATOM     22  C   UNL     1       0.243  -2.668  -0.388  0.00  0.00    +0.046 A 
ATOM     23  C   UNL     1       0.352  -4.035  -0.554  0.00  0.00    +0.004 A 
ATOM     24  C   UNL     1       0.991  -4.556  -1.666  0.00  0.00    +0.001 A 
ATOM     25  C   UNL     1       1.526  -3.714  -2.618  0.00  0.00    +0.015 A 
ATOM     26  C   UNL     1       1.419  -2.332  -2.464  0.00  0.00    +0.058 A 
BRANCH  21  27
ATOM     27  O   UNL     1       0.671  -0.465  -1.174  0.00  0.00    -0.492 OA
BRANCH  27  29
ATOM     28  C   UNL     1      -0.019   1.526   0.010  0.00  0.00    +0.048 C 
ATOM     29  C   UNL     1       0.002  -0.004   0.002  0.00  0.00    +0.226 C 
ENDBRANCH  27  29
ENDBRANCH  21  27
ENDBRANCH  14  26
ENDBRANCH   1  16
BRANCH  11  30
ATOM     30  C   UNL     1       0.633  -0.004 -12.859  0.00  0.00    +0.165 C 
BRANCH  30  31
ATOM     31  C   UNL     1       1.044  -1.240 -13.618  0.00  0.00    -0.028 A 
ATOM     32  C   UNL     1       2.204  -1.236 -14.369  0.00  0.00    +0.005 A 
ATOM     33  C   UNL     1       2.580  -2.370 -15.065  0.00  0.00    +0.000 A 
ATOM     34  C   UNL     1       1.796  -3.507 -15.010  0.00  0.00    +0.000 A 
ATOM     35  C   UNL     1       0.636  -3.510 -14.259  0.00  0.00    +0.000 A 
ATOM     36  C   UNL     1       0.262  -2.378 -13.559  0.00  0.00    +0.005 A 
ENDBRANCH  30  31
ENDBRANCH  11  30
TORSDOF 6
