REMARK  Name = ZINC45893168
REMARK  10 active torsions:
REMARK  status: ('A' for Active; 'I' for Inactive)
REMARK    1  A    between atoms: C_1  and  C_2
REMARK    2  A    between atoms: N_10  and  C_14
REMARK    3  A    between atoms: C_14  and  C_15
REMARK    4  A    between atoms: N_17  and  C_18
REMARK    5  A    between atoms: C_18  and  C_19
REMARK    6  A    between atoms: C_24  and  C_25
REMARK    7  A    between atoms: C_28  and  C_31
REMARK    8  A    between atoms: C_31  and  N_32
REMARK    9  A    between atoms: N_32  and  C_33
REMARK   10  A    between atoms: N_32  and  C_34
REMARK                            x       y       z     vdW  Elec       q    Type
REMARK                         _______ _______ _______ _____ _____    ______ ____
ROOT
ATOM      1  C   UNL     1       3.204  -6.245  -1.735  0.00  0.00    +0.231 C 
ATOM      2  O   UNL     1       3.057  -5.490  -2.673  0.00  0.00    -0.274 OA
ATOM      3  N   UNL     1       3.716  -7.475  -1.935  0.00  0.00    -0.310 N 
ATOM      4  H   UNL     1       3.834  -8.079  -1.185  0.00  0.00    +0.149 HD
ENDROOT
BRANCH   1   5
ATOM      5  C   UNL     1       2.815  -5.807  -0.347  0.00  0.00    +0.213 C 
BRANCH   5  15
ATOM      6  C   UNL     1      -0.563   1.433  -0.687  0.00  0.00    +0.007 C 
ATOM      7  C   UNL     1      -0.528  -0.096  -0.716  0.00  0.00    -0.014 C 
ATOM      8  C   UNL     1       0.380  -0.563  -1.855  0.00  0.00    +0.006 C 
ATOM      9  C   UNL     1       0.406  -2.094  -1.891  0.00  0.00    +0.035 C 
ATOM     10  C   UNL     1       0.921  -2.625  -0.557  0.00  0.00    +0.113 C 
ATOM     11  C   UNL     1       0.038  -2.150   0.591  0.00  0.00    +0.035 C 
ATOM     12  C   UNL     1       0.013  -0.619   0.617  0.00  0.00    +0.006 C 
ATOM     13  C   UNL     1       0.988  -4.135  -0.581  0.00  0.00    +0.247 C 
ATOM     14  O   UNL     1       0.068  -4.908  -0.736  0.00  0.00    -0.273 OA
ATOM     15  N   UNL     1       2.289  -4.440  -0.395  0.00  0.00    -0.215 N 
ATOM     16  C   UNL     1       3.040  -3.340  -0.259  0.00  0.00    +0.310 C 
ATOM     17  O   UNL     1       4.242  -3.360  -0.080  0.00  0.00    -0.252 OA
ATOM     18  N   UNL     1       2.313  -2.209  -0.341  0.00  0.00    -0.285 N 
ATOM     19  H   UNL     1       2.644  -1.300  -0.272  0.00  0.00    +0.151 HD
ENDBRANCH   5  15
ENDBRANCH   1   5
BRANCH   3  20
ATOM     20  C   UNL     1       4.094  -7.901  -3.285  0.00  0.00    +0.140 C 
BRANCH  20  21
ATOM     21  C   UNL     1       4.751  -9.256  -3.219  0.00  0.00    -0.023 A 
ATOM     22  C   UNL     1       6.119  -9.369  -3.367  0.00  0.00    +0.006 A 
ATOM     23  C   UNL     1       6.723 -10.612  -3.307  0.00  0.00    +0.000 A 
ATOM     24  C   UNL     1       5.961 -11.747  -3.098  0.00  0.00    +0.001 A 
ATOM     25  C   UNL     1       4.593 -11.646  -2.947  0.00  0.00    +0.009 A 
ATOM     26  C   UNL     1       3.979 -10.396  -3.002  0.00  0.00    -0.013 A 
BRANCH  26  27
ATOM     27  C   UNL     1       2.509 -10.279  -2.837  0.00  0.00    -0.018 A 
ATOM     28  C   UNL     1       1.893 -10.778  -1.691  0.00  0.00    +0.009 A 
ATOM     29  C   UNL     1       0.526 -10.667  -1.542  0.00  0.00    +0.002 A 
ATOM     30  C   UNL     1      -0.233 -10.062  -2.527  0.00  0.00    -0.064 A 
ATOM     31  C   UNL     1       0.373  -9.565  -3.667  0.00  0.00    +0.002 A 
ATOM     32  C   UNL     1       1.741  -9.666  -3.824  0.00  0.00    +0.009 A 
BRANCH  30  33
ATOM     33  C   UNL     1      -1.726  -9.943  -2.358  0.00  0.00    -0.044 C 
BRANCH  33  34
ATOM     34  N   UNL     1      -2.043  -8.679  -1.680  0.00  0.00    +0.379 N 
ATOM     35  C   UNL     1      -3.501  -8.507  -1.623  0.00  0.00    -0.096 C 
ATOM     36  C   UNL     1      -1.499  -8.705  -0.316  0.00  0.00    -0.096 C 
ATOM     37  H   UNL     1      -1.634  -7.911  -2.191  0.00  0.00    -0.082 HD
ENDBRANCH  33  34
ENDBRANCH  30  33
ENDBRANCH  26  27
ENDBRANCH  20  21
ENDBRANCH   3  20
TORSDOF 7
