REMARK  Name = ZINC36024673
REMARK  5 active torsions:
REMARK  status: ('A' for Active; 'I' for Inactive)
REMARK    1  A    between atoms: C_1  and  C_2
REMARK    2  A    between atoms: N_6  and  C_25
REMARK    3  A    between atoms: N_11  and  S_14
REMARK    4  A    between atoms: S_14  and  C_17
REMARK    5  A    between atoms: C_25  and  C_26
REMARK                            x       y       z     vdW  Elec       q    Type
REMARK                         _______ _______ _______ _____ _____    ______ ____
ROOT
ATOM      1  C   UNL     1      -0.984   0.702  -0.009  0.00  0.00    -0.004 C 
ATOM      2  C   UNL     1      -0.507  -0.729   0.246  0.00  0.00    +0.016 C 
ATOM      3  C   UNL     1       0.087  -1.318  -1.015  0.00  0.00    +0.200 C 
ATOM      4  O   UNL     1      -0.387  -1.233  -2.129  0.00  0.00    -0.277 OA
ATOM      5  N   UNL     1       1.232  -1.954  -0.693  0.00  0.00    -0.309 N 
ATOM      6  C   UNL     1       1.465  -1.840   0.750  0.00  0.00    +0.006 C 
ATOM      7  N   UNL     1       0.603  -0.737   1.229  0.00  0.00    +0.401 N 
ATOM      8  C   UNL     1       2.930  -1.508   1.024  0.00  0.00    +0.023 C 
ATOM      9  C   UNL     1       3.816  -2.639   0.492  0.00  0.00    +0.109 C 
ATOM     10  N   UNL     1       3.358  -3.910   1.070  0.00  0.00    -0.177 NA
ATOM     11  C   UNL     1       1.944  -4.284   0.923  0.00  0.00    +0.109 C 
ATOM     12  C   UNL     1       1.074  -3.139   1.452  0.00  0.00    +0.023 C 
ATOM     13  H   UNL     1       1.102   0.140   1.209  0.00  0.00    -0.082 HD
ATOM     14  H   UNL     1       0.256  -0.930   2.156  0.00  0.00    -0.082 HD
ENDROOT
BRANCH  10  15
ATOM     15  S   UNL     1       4.414  -4.902   1.871  0.00  0.00    +0.062 S 
ATOM     16  O   UNL     1       3.959  -6.232   1.663  0.00  0.00    -0.153 OA
ATOM     17  O   UNL     1       5.722  -4.479   1.509  0.00  0.00    -0.153 OA
BRANCH  15  18
ATOM     18  C   UNL     1       4.236  -4.572   3.592  0.00  0.00    +0.125 A 
ATOM     19  C   UNL     1       3.703  -5.535   4.429  0.00  0.00    +0.030 A 
ATOM     20  C   UNL     1       3.563  -5.276   5.780  0.00  0.00    +0.003 A 
ATOM     21  C   UNL     1       3.955  -4.055   6.295  0.00  0.00    +0.021 A 
ATOM     22  C   UNL     1       4.488  -3.091   5.460  0.00  0.00    +0.061 A 
ATOM     23  C   UNL     1       4.635  -3.352   4.107  0.00  0.00    +0.086 A 
ATOM     24 CL   UNL     1       5.311  -2.145   3.058  0.00  0.00    -0.080 Cl
ATOM     25 CL   UNL     1       4.981  -1.557   6.106  0.00  0.00    -0.082 Cl
ENDBRANCH  15  18
ENDBRANCH  10  15
BRANCH   5  26
ATOM     26  C   UNL     1       2.108  -2.650  -1.638  0.00  0.00    +0.141 C 
BRANCH  26  27
ATOM     27  C   UNL     1       2.934  -1.641  -2.394  0.00  0.00    -0.026 A 
ATOM     28  C   UNL     1       2.561  -1.263  -3.671  0.00  0.00    +0.009 A 
ATOM     29  C   UNL     1       3.315  -0.338  -4.368  0.00  0.00    +0.050 A 
ATOM     30  C   UNL     1       4.447   0.212  -3.789  0.00  0.00    +0.166 A 
ATOM     31  C   UNL     1       4.823  -0.169  -2.503  0.00  0.00    +0.167 A 
ATOM     32  C   UNL     1       4.059  -1.093  -1.808  0.00  0.00    +0.054 A 
ATOM     33  O   UNL     1       5.959   0.506  -2.163  0.00  0.00    -0.453 OA
ATOM     34  C   UNL     1       6.502   0.996  -3.403  0.00  0.00    +0.466 C 
ATOM     35  O   UNL     1       5.348   1.127  -4.253  0.00  0.00    -0.453 OA
ENDBRANCH  26  27
ENDBRANCH   5  26
TORSDOF 4
