REMARK  Name = ZINC58644930
REMARK  15 active torsions:
REMARK  status: ('A' for Active; 'I' for Inactive)
REMARK    1  A    between atoms: C_1  and  C_2
REMARK    2  A    between atoms: C_2  and  C_3
REMARK    3  A    between atoms: C_2  and  C_4
REMARK    4  A    between atoms: C_7  and  N_10
REMARK    5  A    between atoms: C_14  and  S_15
REMARK    6  A    between atoms: S_15  and  C_16
REMARK    7  A    between atoms: C_16  and  C_17
REMARK    8  A    between atoms: N_19  and  C_20
REMARK    9  A    between atoms: C_20  and  C_21
REMARK   10  A    between atoms: C_20  and  C_22
REMARK   11  A    between atoms: C_20  and  C_23
REMARK   12  A    between atoms: C_23  and  C_24
REMARK   13  A    between atoms: C_24  and  C_25
REMARK   14  A    between atoms: C_24  and  C_26
REMARK   15  A    between atoms: C_24  and  C_27
REMARK                            x       y       z     vdW  Elec       q    Type
REMARK                         _______ _______ _______ _____ _____    ______ ____
ROOT
ATOM      1  N   UNL     1      -8.055   1.888  -0.285  0.00  0.00    -0.277 N 
ATOM      2  C   UNL     1      -8.774   1.341   0.745  0.00  0.00    +0.230 A 
ATOM      3  N   UNL     1      -9.667   0.551   0.217  0.00  0.00    -0.137 NA
ATOM      4  N   UNL     1      -9.564   0.560  -1.064  0.00  0.00    -0.122 NA
ATOM      5  C   UNL     1      -8.595   1.368  -1.429  0.00  0.00    +0.196 A 
ENDROOT
BRANCH   1   9
ATOM      6  C   UNL     1      -4.893   4.590   0.008  0.00  0.00    -0.045 A 
ATOM      7  C   UNL     1      -6.072   4.831   0.689  0.00  0.00    +0.006 A 
ATOM      8  C   UNL     1      -7.122   3.938   0.594  0.00  0.00    +0.026 A 
ATOM      9  C   UNL     1      -6.992   2.797  -0.187  0.00  0.00    +0.050 A 
ATOM     10  C   UNL     1      -5.807   2.558  -0.869  0.00  0.00    +0.026 A 
ATOM     11  C   UNL     1      -4.763   3.457  -0.775  0.00  0.00    +0.006 A 
BRANCH   6  13
ATOM     12  C   UNL     1      -4.202   6.937  -0.392  0.00  0.00    +0.012 C 
ATOM     13  C   UNL     1      -3.750   5.566   0.114  0.00  0.00    +0.013 C 
ATOM     14  C   UNL     1      -3.311   5.680   1.575  0.00  0.00    +0.012 C 
ENDBRANCH   6  13
ENDBRANCH   1   9
BRANCH   5  15
ATOM     15  S   UNL     1      -8.085   1.713  -3.080  0.00  0.00    -0.076 S 
BRANCH  15  16
ATOM     16  C   UNL     1      -9.199   0.711  -4.102  0.00  0.00    +0.173 C 
BRANCH  16  17
ATOM     17  C   UNL     1      -8.865   0.916  -5.558  0.00  0.00    +0.224 C 
ATOM     18  O   UNL     1      -7.965   1.664  -5.874  0.00  0.00    -0.275 OA
ATOM     19  N   UNL     1      -9.568   0.268  -6.508  0.00  0.00    -0.310 N 
ATOM     20  H   UNL     1     -10.288  -0.331  -6.255  0.00  0.00    +0.149 HD
BRANCH  19  21
ATOM     21  C   UNL     1      -9.244   0.467  -7.923  0.00  0.00    +0.029 C 
ATOM     22  C   UNL     1      -9.332   1.956  -8.261  0.00  0.00    +0.031 C 
ATOM     23  C   UNL     1      -7.825  -0.035  -8.196  0.00  0.00    +0.031 C 
BRANCH  21  24
ATOM     24  C   UNL     1     -10.237  -0.312  -8.788  0.00  0.00    +0.031 C 
BRANCH  24  25
ATOM     25  C   UNL     1     -10.017  -1.813  -8.591  0.00  0.00    -0.036 C 
ATOM     26  C   UNL     1     -10.025  -2.138  -7.095  0.00  0.00    +0.010 C 
ATOM     27  C   UNL     1     -11.137  -2.589  -9.287  0.00  0.00    +0.010 C 
ATOM     28  C   UNL     1      -8.668  -2.215  -9.192  0.00  0.00    +0.010 C 
ENDBRANCH  24  25
ENDBRANCH  21  24
ENDBRANCH  19  21
ENDBRANCH  16  17
ENDBRANCH  15  16
ENDBRANCH   5  15
TORSDOF 8
