REMARK  Name = ZINC59121599
REMARK  7 active torsions:
REMARK  status: ('A' for Active; 'I' for Inactive)
REMARK    1  A    between atoms: C_1  and  C_2
REMARK    2  A    between atoms: C_2  and  C_4
REMARK    3  A    between atoms: N_6  and  C_26
REMARK    4  A    between atoms: C_13  and  C_23
REMARK    5  A    between atoms: N_14  and  N_15
REMARK    6  A    between atoms: N_15  and  C_16
REMARK    7  A    between atoms: C_23  and  C_25
REMARK                            x       y       z     vdW  Elec       q    Type
REMARK                         _______ _______ _______ _____ _____    ______ ____
ROOT
ATOM      1  C   UNL     1      -1.150  -0.906   0.105  0.00  0.00    +0.162 C 
ATOM      2  N   UNL     1      -2.347  -0.371   0.118  0.00  0.00    -0.166 NA
ATOM      3  N   UNL     1      -3.506  -1.127   0.056  0.00  0.00    -0.179 N 
ATOM      4  C   UNL     1      -3.291  -2.565  -0.026  0.00  0.00    +0.226 C 
ATOM      5  S   UNL     1      -1.468  -2.663  -0.012  0.00  0.00    -0.043 S 
ATOM      6  N   UNL     1      -3.872  -3.218  -1.185  0.00  0.00    -0.272 N 
ATOM      7  C   UNL     1      -4.684  -4.406  -0.896  0.00  0.00    +0.121 C 
ATOM      8  C   UNL     1      -5.373  -4.284   0.498  0.00  0.00    +0.093 C 
ATOM      9  S   UNL     1      -3.994  -3.450   1.412  0.00  0.00    -0.101 S 
ATOM     10  C   UNL     1      -3.670  -2.748  -2.489  0.00  0.00    +0.158 C 
ATOM     11  N   UNL     1      -3.030  -1.623  -2.687  0.00  0.00    -0.291 N 
ATOM     12  H   UNL     1      -2.635  -1.151  -1.938  0.00  0.00    +0.186 HD
ENDROOT
BRANCH   3  13
ATOM     13  C   UNL     1      -4.779  -0.555   0.071  0.00  0.00    +0.074 A 
ATOM     14  C   UNL     1      -5.685  -0.845  -0.943  0.00  0.00    +0.026 A 
ATOM     15  C   UNL     1      -6.944  -0.278  -0.925  0.00  0.00    +0.002 A 
ATOM     16  C   UNL     1      -7.305   0.577   0.101  0.00  0.00    +0.002 A 
ATOM     17  C   UNL     1      -6.407   0.869   1.111  0.00  0.00    +0.022 A 
ATOM     18  C   UNL     1      -5.147   0.301   1.103  0.00  0.00    +0.064 A 
ATOM     19 CL   UNL     1      -4.023   0.661   2.377  0.00  0.00    -0.082 Cl
ENDBRANCH   3  13
BRANCH   1  21
ATOM     20  C   UNL     1       0.158   1.256   0.259  0.00  0.00    +0.094 C 
ATOM     21  C   UNL     1       0.102  -0.247   0.163  0.00  0.00    +0.186 C 
ATOM     22  O   UNL     1       1.130  -0.892   0.134  0.00  0.00    -0.290 OA
ENDBRANCH   1  21
BRANCH  10  23
ATOM     23  C   UNL     1      -4.158  -3.489  -3.592  0.00  0.00    +0.192 C 
ATOM     24  O   UNL     1      -5.044  -3.032  -4.285  0.00  0.00    -0.289 OA
ATOM     25  C   UNL     1      -3.578  -4.844  -3.905  0.00  0.00    +0.095 C 
ENDBRANCH  10  23
BRANCH  11  26
ATOM     26  N   UNL     1      -2.915  -1.101  -3.982  0.00  0.00    -0.257 N 
ATOM     27  H   UNL     1      -3.237  -1.613  -4.741  0.00  0.00    +0.172 HD
BRANCH  26  28
ATOM     28  C   UNL     1      -2.338   0.153  -4.181  0.00  0.00    +0.065 A 
ATOM     29  C   UNL     1      -1.872   0.885  -3.095  0.00  0.00    +0.026 A 
ATOM     30  C   UNL     1      -1.301   2.126  -3.295  0.00  0.00    +0.002 A 
ATOM     31  C   UNL     1      -1.193   2.643  -4.574  0.00  0.00    +0.002 A 
ATOM     32  C   UNL     1      -1.657   1.919  -5.657  0.00  0.00    +0.022 A 
ATOM     33  C   UNL     1      -2.224   0.673  -5.466  0.00  0.00    +0.063 A 
ATOM     34 CL   UNL     1      -2.799  -0.239  -6.827  0.00  0.00    -0.082 Cl
ENDBRANCH  26  28
ENDBRANCH  11  26
TORSDOF 5
