REMARK  Name = ZINC39764091
REMARK  12 active torsions:
REMARK  status: ('A' for Active; 'I' for Inactive)
REMARK    1  A    between atoms: C_1  and  C_2
REMARK    2  A    between atoms: C_2  and  C_3
REMARK    3  A    between atoms: C_2  and  C_4
REMARK    4  A    between atoms: C_2  and  N_5
REMARK    5  A    between atoms: C_6  and  C_8
REMARK    6  A    between atoms: C_8  and  N_9
REMARK    7  A    between atoms: N_9  and  C_10
REMARK    8  A    between atoms: C_11  and  C_13
REMARK    9  A    between atoms: C_13  and  S_14
REMARK   10  A    between atoms: S_14  and  C_15
REMARK   11  A    between atoms: C_19  and  C_24
REMARK   12  A    between atoms: N_20  and  C_21
REMARK                            x       y       z     vdW  Elec       q    Type
REMARK                         _______ _______ _______ _____ _____    ______ ____
ROOT
ATOM      1  C   UNL     1       7.587   3.719  -4.080  0.00  0.00    +0.237 C 
ATOM      2  N   UNL     1       8.164   3.882  -2.736  0.00  0.00    -0.237 N 
ATOM      3  N   UNL     1       9.070   2.830  -2.561  0.00  0.00    -0.169 NA
ATOM      4  C   UNL     1       9.114   2.060  -3.616  0.00  0.00    +0.147 C 
ATOM      5  N   UNL     1       8.243   2.514  -4.615  0.00  0.00    -0.282 N 
ATOM      6  H   UNL     1       7.957   4.582  -2.096  0.00  0.00    +0.171 HD
ENDROOT
BRANCH   4   7
ATOM      7  C   UNL     1       9.931   0.926  -3.735  0.00  0.00    +0.022 C 
ATOM      8  C   UNL     1      10.744   0.365  -2.750  0.00  0.00    +0.006 A 
ATOM      9  C   UNL     1      10.998   0.719  -1.408  0.00  0.00    +0.010 A 
ATOM     10  C   UNL     1      11.856  -0.026  -0.665  0.00  0.00    +0.001 A 
ATOM     11  C   UNL     1      12.500  -1.146  -1.196  0.00  0.00    +0.002 A 
ATOM     12  C   UNL     1      12.303  -1.544  -2.477  0.00  0.00    +0.026 A 
ATOM     13  C   UNL     1      11.420  -0.814  -3.314  0.00  0.00    +0.043 A 
ATOM     14  N   UNL     1      11.064  -0.993  -4.572  0.00  0.00    -0.380 N 
ATOM     15  C   UNL     1      10.109   0.051  -4.957  0.00  0.00    +0.152 C 
ATOM     16  H   UNL     1      11.380  -1.705  -5.149  0.00  0.00    +0.160 HD
ENDBRANCH   4   7
BRANCH   5  17
ATOM     17  C   UNL     1       8.025   1.909  -5.932  0.00  0.00    +0.078 C 
ATOM     18  C   UNL     1       7.088   2.638  -6.897  0.00  0.00    +0.024 C 
ATOM     19  C   UNL     1       6.636   1.339  -6.226  0.00  0.00    +0.024 C 
ENDBRANCH   5  17
BRANCH   1  20
ATOM     20  S   UNL     1       5.793   3.471  -3.976  0.00  0.00    -0.109 S 
BRANCH  20  21
ATOM     21  C   UNL     1       5.612   2.022  -2.901  0.00  0.00    +0.168 C 
BRANCH  21  24
ATOM     22  N   UNL     1       3.771   0.659  -1.966  0.00  0.00    -0.295 N 
ATOM     23  C   UNL     1       4.783  -0.168  -1.303  0.00  0.00    +0.132 C 
ATOM     24  C   UNL     1       4.149   1.704  -2.729  0.00  0.00    +0.226 C 
ATOM     25  O   UNL     1       3.311   2.388  -3.277  0.00  0.00    -0.275 OA
BRANCH  22  26
ATOM     26  C   UNL     1       2.349   0.350  -1.798  0.00  0.00    +0.203 C 
BRANCH  26  28
ATOM     27  N   UNL     1       0.515   0.962  -0.255  0.00  0.00    -0.309 N 
ATOM     28  C   UNL     1       1.811   1.094  -0.604  0.00  0.00    +0.231 C 
ATOM     29  O   UNL     1       2.543   1.811   0.045  0.00  0.00    -0.274 OA
ATOM     30  H   UNL     1      -0.070   0.388  -0.773  0.00  0.00    +0.149 HD
BRANCH  27  32
ATOM     31  C   UNL     1       0.165   3.189   0.691  0.00  0.00    +0.031 C 
ATOM     32  C   UNL     1      -0.008   1.685   0.907  0.00  0.00    +0.026 C 
ATOM     33  C   UNL     1       0.757   1.257   2.161  0.00  0.00    +0.031 C 
ATOM     34  C   UNL     1      -1.493   1.362   1.081  0.00  0.00    +0.031 C 
ENDBRANCH  27  32
ENDBRANCH  26  28
ENDBRANCH  22  26
ENDBRANCH  21  24
ENDBRANCH  20  21
ENDBRANCH   1  20
TORSDOF 8
