REMARK  Name = ZINC21253575
REMARK  11 active torsions:
REMARK  status: ('A' for Active; 'I' for Inactive)
REMARK    1  A    between atoms: C_1  and  C_2
REMARK    2  A    between atoms: C_2  and  O_3
REMARK    3  A    between atoms: O_3  and  C_4
REMARK    4  A    between atoms: C_7  and  C_12
REMARK    5  A    between atoms: C_9  and  O_10
REMARK    6  A    between atoms: O_10  and  C_11
REMARK    7  A    between atoms: C_17  and  C_22
REMARK    8  A    between atoms: C_24  and  O_30
REMARK    9  A    between atoms: C_27  and  O_28
REMARK   10  A    between atoms: O_28  and  C_29
REMARK   11  A    between atoms: O_30  and  C_31
REMARK                            x       y       z     vdW  Elec       q    Type
REMARK                         _______ _______ _______ _____ _____    ______ ____
ROOT
ATOM      1  C   UNL     1       1.853  -2.706   1.239  0.00  0.00    +0.136 C 
ATOM      2  C   UNL     1       3.332  -2.626   1.532  0.00  0.00    +0.036 C 
ATOM      3  C   UNL     1       4.196  -1.748   0.995  0.00  0.00    +0.017 C 
ATOM      4  C   UNL     1       5.659  -1.758   1.409  0.00  0.00    +0.060 C 
ATOM      5  C   UNL     1       6.099  -3.187   1.722  0.00  0.00    +0.036 C 
ATOM      6  C   UNL     1       5.223  -3.704   2.869  0.00  0.00    +0.088 C 
ATOM      7  C   UNL     1       3.784  -3.592   2.462  0.00  0.00    +0.163 C 
ATOM      8  O   UNL     1       2.977  -4.360   2.947  0.00  0.00    -0.292 OA
ATOM      9  N   UNL     1       3.871  -0.799   0.081  0.00  0.00    -0.316 N 
ATOM     10  C   UNL     1       2.775   0.051   0.177  0.00  0.00    +0.052 A 
ATOM     11  C   UNL     1       2.910   1.422   0.303  0.00  0.00    +0.025 A 
ATOM     12  C   UNL     1       1.777   2.217   0.334  0.00  0.00    +0.002 A 
ATOM     13  C   UNL     1       0.521   1.645   0.241  0.00  0.00    +0.002 A 
ATOM     14  C   UNL     1       0.383   0.272   0.132  0.00  0.00    +0.025 A 
ATOM     15  C   UNL     1       1.515  -0.526   0.116  0.00  0.00    +0.049 A 
ATOM     16  N   UNL     1       1.423  -1.918   0.104  0.00  0.00    -0.331 N 
ATOM     17  H   UNL     1       4.495  -0.660  -0.814  0.00  0.00    +0.152 HD
ATOM     18  H   UNL     1       1.017  -2.415  -0.789  0.00  0.00    +0.147 HD
ENDROOT
BRANCH   1  22
ATOM     19  C   UNL     1      -0.286  -1.367   4.692  0.00  0.00    +0.162 A 
ATOM     20  C   UNL     1       0.550  -0.497   4.011  0.00  0.00    +0.050 A 
ATOM     21  C   UNL     1       1.240  -0.933   2.895  0.00  0.00    +0.009 A 
ATOM     22  C   UNL     1       1.098  -2.236   2.456  0.00  0.00    -0.019 A 
ATOM     23  C   UNL     1       0.261  -3.108   3.128  0.00  0.00    +0.055 A 
ATOM     24  C   UNL     1      -0.430  -2.679   4.250  0.00  0.00    +0.162 A 
BRANCH  24  25
ATOM     25  O   UNL     1      -1.249  -3.536   4.915  0.00  0.00    -0.491 OA
ATOM     26  C   UNL     1      -1.347  -4.867   4.404  0.00  0.00    +0.277 C 
ENDBRANCH  24  25
BRANCH  19  27
ATOM     27  O   UNL     1      -0.966  -0.940   5.789  0.00  0.00    -0.489 OA
BRANCH  27  29
ATOM     28  C   UNL     1      -1.611   0.714   7.429  0.00  0.00    +0.048 C 
ATOM     29  C   UNL     1      -0.771   0.419   6.185  0.00  0.00    +0.226 C 
ENDBRANCH  27  29
ENDBRANCH  19  27
ENDBRANCH   1  22
BRANCH   5  30
ATOM     30  C   UNL     1       7.547  -3.195   2.140  0.00  0.00    +0.002 A 
ATOM     31  C   UNL     1       7.950  -2.472   3.246  0.00  0.00    +0.053 A 
ATOM     32  C   UNL     1       9.282  -2.483   3.634  0.00  0.00    +0.121 A 
ATOM     33  C   UNL     1      10.210  -3.212   2.905  0.00  0.00    +0.049 A 
ATOM     34  C   UNL     1       9.808  -3.931   1.797  0.00  0.00    +0.049 A 
ATOM     35  C   UNL     1       8.475  -3.924   1.412  0.00  0.00    +0.124 A 
BRANCH  35  36
ATOM     36  O   UNL     1       8.078  -4.633   0.321  0.00  0.00    -0.495 OA
ATOM     37  C   UNL     1       9.087  -5.361  -0.382  0.00  0.00    +0.277 C 
ENDBRANCH  35  36
BRANCH  32  38
ATOM     38  O   UNL     1       9.678  -1.775   4.725  0.00  0.00    -0.495 OA
ATOM     39  C   UNL     1      11.066  -1.827   5.063  0.00  0.00    +0.277 C 
ENDBRANCH  32  38
ENDBRANCH   5  30
TORSDOF 7
