REMARK  Name = ZINC33704843
REMARK  19 active torsions:
REMARK  status: ('A' for Active; 'I' for Inactive)
REMARK    1  A    between atoms: C_1  and  C_2
REMARK    2  A    between atoms: C_2  and  N_3
REMARK    3  A    between atoms: N_3  and  C_4
REMARK    4  A    between atoms: N_3  and  C_6
REMARK    5  A    between atoms: C_4  and  C_5
REMARK    6  A    between atoms: C_6  and  C_7
REMARK    7  A    between atoms: C_7  and  C_8
REMARK    8  A    between atoms: C_8  and  C_9
REMARK    9  A    between atoms: C_9  and  C_11
REMARK   10  A    between atoms: C_9  and  N_12
REMARK   11  A    between atoms: C_13  and  C_15
REMARK   12  A    between atoms: C_15  and  S_16
REMARK   13  A    between atoms: S_16  and  C_17
REMARK   14  A    between atoms: C_28  and  C_31
REMARK   15  A    between atoms: C_32  and  C_34
REMARK   16  A    between atoms: C_34  and  C_35
REMARK   17  A    between atoms: C_35  and  C_36
REMARK   18  A    between atoms: C_35  and  C_37
REMARK   19  A    between atoms: C_35  and  C_38
REMARK                            x       y       z     vdW  Elec       q    Type
REMARK                         _______ _______ _______ _____ _____    ______ ____
ROOT
ATOM      1  C   UNL     1      -5.118  -0.773  -0.451  0.00  0.00    +0.192 A 
ATOM      2  N   UNL     1      -3.993  -0.079  -0.540  0.00  0.00    -0.207 NA
ATOM      3  C   UNL     1      -2.814  -0.677  -0.399  0.00  0.00    +0.127 A 
ATOM      4  C   UNL     1      -2.776  -2.052  -0.159  0.00  0.00    +0.083 A 
ATOM      5  C   UNL     1      -3.973  -2.739  -0.067  0.00  0.00    +0.135 A 
ATOM      6  N   UNL     1      -5.113  -2.078  -0.219  0.00  0.00    -0.210 NA
ATOM      7 CL   UNL     1      -3.983  -4.448   0.236  0.00  0.00    -0.062 Cl
ATOM      8  N   UNL     1      -1.640   0.052  -0.494  0.00  0.00    -0.312 N 
ATOM      9  C   UNL     1      -0.821  -0.109   0.715  0.00  0.00    +0.125 C 
ATOM     10  C   UNL     1       0.540   0.560   0.499  0.00  0.00    +0.127 C 
ATOM     11  N   UNL     1       0.315   1.952   0.082  0.00  0.00    -0.296 N 
ATOM     12  C   UNL     1      -0.604   2.203  -1.039  0.00  0.00    +0.090 C 
ATOM     13  C   UNL     1      -1.921   1.468  -0.767  0.00  0.00    +0.128 C 
ATOM     14  C   UNL     1      -0.869   3.705  -1.160  0.00  0.00    +0.029 C 
ATOM     15  C   UNL     1       0.935   2.972   0.709  0.00  0.00    +0.216 C 
ATOM     16  O   UNL     1       0.675   4.117   0.407  0.00  0.00    -0.276 OA
ENDROOT
BRANCH   1  17
ATOM     17  S   UNL     1      -6.659   0.059  -0.644  0.00  0.00    -0.077 S 
BRANCH  17  18
ATOM     18  C   UNL     1      -7.797  -1.332  -0.431  0.00  0.00    +0.173 C 
BRANCH  18  20
ATOM     19  N   UNL     1     -10.241  -1.712  -0.437  0.00  0.00    -0.312 N 
ATOM     20  C   UNL     1      -9.217  -0.844  -0.560  0.00  0.00    +0.224 C 
ATOM     21  O   UNL     1      -9.438   0.329  -0.775  0.00  0.00    -0.275 OA
ATOM     22  H   UNL     1     -10.041  -2.776  -0.242  0.00  0.00    +0.149 HD
BRANCH  19  23
ATOM     23  C   UNL     1     -11.621  -1.237  -0.562  0.00  0.00    +0.070 C 
ATOM     24  C   UNL     1     -12.102  -0.704   0.789  0.00  0.00    +0.028 C 
BRANCH  23  25
ATOM     25  C   UNL     1     -12.520  -2.394  -1.003  0.00  0.00    +0.020 C 
BRANCH  25  26
ATOM     26  C   UNL     1     -12.118  -2.845  -2.409  0.00  0.00    -0.017 C 
BRANCH  26  27
ATOM     27  C   UNL     1     -13.017  -4.002  -2.850  0.00  0.00    -0.079 C 
BRANCH  27  28
ATOM     28  N   UNL     1     -12.603  -4.463  -4.182  0.00  0.00    +0.379 N 
ATOM     29  H   UNL     1     -12.388  -3.575  -4.795  0.00  0.00    -0.082 HD
BRANCH  28  31
ATOM     30  C   UNL     1     -10.840  -5.517  -5.515  0.00  0.00    -0.017 C 
ATOM     31  C   UNL     1     -11.376  -5.266  -4.104  0.00  0.00    -0.082 C 
ENDBRANCH  28  31
BRANCH  28  32
ATOM     32  C   UNL     1     -13.683  -5.213  -4.838  0.00  0.00    -0.082 C 
ATOM     33  C   UNL     1     -14.746  -4.237  -5.346  0.00  0.00    -0.017 C 
ENDBRANCH  28  32
ENDBRANCH  27  28
ENDBRANCH  26  27
ENDBRANCH  25  26
ENDBRANCH  23  25
ENDBRANCH  19  23
ENDBRANCH  18  20
ENDBRANCH  17  18
ENDBRANCH   1  17
BRANCH  15  34
ATOM     34  C   UNL     1       1.951   2.688   1.785  0.00  0.00    +0.102 C 
BRANCH  34  35
ATOM     35  C   UNL     1       2.499   4.008   2.330  0.00  0.00    -0.029 C 
ATOM     36  C   UNL     1       1.352   4.834   2.916  0.00  0.00    +0.011 C 
ATOM     37  C   UNL     1       3.531   3.720   3.423  0.00  0.00    +0.011 C 
ATOM     38  C   UNL     1       3.163   4.791   1.196  0.00  0.00    +0.011 C 
ENDBRANCH  34  35
ENDBRANCH  15  34
TORSDOF 12
