REMARK  Name = ZINC62825585
REMARK  3 active torsions:
REMARK  status: ('A' for Active; 'I' for Inactive)
REMARK    1  A    between atoms: C_5  and  N_10
REMARK    2  A    between atoms: C_6  and  C_7
REMARK    3  A    between atoms: C_17  and  N_20
REMARK                            x       y       z     vdW  Elec       q    Type
REMARK                         _______ _______ _______ _____ _____    ______ ____
ROOT
ATOM      1  N   UNL     1       1.308  -2.088   0.032  0.00  0.00    -0.268 N 
ATOM      2  C   UNL     1       2.480  -2.721   0.237  0.00  0.00    +0.306 C 
ATOM      3  O   UNL     1       3.480  -2.080   0.497  0.00  0.00    -0.252 OA
ATOM      4  N   UNL     1       2.544  -4.065   0.154  0.00  0.00    -0.287 N 
ATOM      5  C   UNL     1       1.327  -4.861  -0.052  0.00  0.00    +0.109 C 
ATOM      6  C   UNL     1       1.244  -5.928   1.044  0.00  0.00    +0.017 C 
ATOM      7  C   UNL     1       2.536  -6.747   1.053  0.00  0.00    -0.013 C 
ATOM      8  C   UNL     1       3.722  -5.829   1.361  0.00  0.00    -0.057 C 
ATOM      9  C   UNL     1       3.834  -4.761   0.262  0.00  0.00    +0.093 C 
ATOM     10  H   UNL     1       0.495  -2.603  -0.096  0.00  0.00    +0.156 HD
ENDROOT
BRANCH   1  15
ATOM     11  C   UNL     1       0.669   1.366  -1.118  0.00  0.00    +0.032 A 
ATOM     12  C   UNL     1       1.177   2.080  -0.054  0.00  0.00    +0.020 A 
ATOM     13  C   UNL     1       1.727   1.420   1.034  0.00  0.00    +0.032 A 
ATOM     14  C   UNL     1       1.771   0.040   1.065  0.00  0.00    +0.041 A 
ATOM     15  C   UNL     1       1.264  -0.697   0.003  0.00  0.00    +0.063 A 
ATOM     16  C   UNL     1       0.706  -0.032  -1.101  0.00  0.00    +0.086 A 
ATOM     17 BR   UNL     1       2.524  -0.848   2.556  0.00  0.00    -0.048 Br
ATOM     18 BR   UNL     1       1.125   3.970  -0.080  0.00  0.00    -0.050 Br
BRANCH  16  19
ATOM     19  C   UNL     1       0.165  -0.801  -2.233  0.00  0.00    +0.388 C 
ATOM     20  O   UNL     1      -0.236  -0.219  -3.232  0.00  0.00    -0.241 OA
ATOM     21  O   UNL     1       0.116  -2.022  -2.175  0.00  0.00    -0.241 OA
ENDBRANCH  16  19
ENDBRANCH   1  15
BRANCH   8  22
ATOM     22  N   UNL     1       4.958  -6.622   1.401  0.00  0.00    +0.381 N 
ATOM     23  H   UNL     1       5.101  -7.067   0.506  0.00  0.00    -0.090 HD
ATOM     24  H   UNL     1       5.739  -6.016   1.604  0.00  0.00    -0.090 HD
ATOM     25  H   UNL     1       4.883  -7.326   2.119  0.00  0.00    -0.090 HD
ENDBRANCH   8  22
TORSDOF 3
