REMARK  Name = ZINC21206412
REMARK  5 active torsions:
REMARK  status: ('A' for Active; 'I' for Inactive)
REMARK    1  A    between atoms: N_12  and  C_16
REMARK    2  A    between atoms: C_16  and  C_17
REMARK    3  A    between atoms: N_19  and  C_20
REMARK    4  A    between atoms: C_20  and  C_21
REMARK    5  A    between atoms: C_24  and  C_26
REMARK                            x       y       z     vdW  Elec       q    Type
REMARK                         _______ _______ _______ _____ _____    ______ ____
ROOT
ATOM      1  C   UNL     1      -0.344   5.971   2.196  0.00  0.00    +0.213 C 
ENDROOT
BRANCH   1  13
ATOM      2  C   UNL     1       1.209  -0.678  -0.013  0.00  0.00    +0.000 A 
ATOM      3  C   UNL     1       0.002  -0.004   0.002  0.00  0.00    +0.000 A 
ATOM      4  C   UNL     1      -0.017   1.376   0.010  0.00  0.00    +0.006 A 
ATOM      5  C   UNL     1       1.169   2.092   0.002  0.00  0.00    -0.012 A 
ATOM      6  C   UNL     1       2.378   1.417  -0.009  0.00  0.00    -0.042 A 
ATOM      7  C   UNL     1       2.394   0.032  -0.018  0.00  0.00    +0.004 A 
ATOM      8  C   UNL     1       3.521   2.410  -0.004  0.00  0.00    +0.038 C 
ATOM      9  C   UNL     1       2.889   3.756  -0.427  0.00  0.00    +0.045 C 
ATOM     10  C   UNL     1       1.427   3.575  -0.001  0.00  0.00    +0.138 C 
ATOM     11  C   UNL     1       1.171   4.187   1.351  0.00  0.00    +0.251 C 
ATOM     12  O   UNL     1       1.707   3.903   2.401  0.00  0.00    -0.272 OA
ATOM     13  N   UNL     1       0.217   5.120   1.145  0.00  0.00    -0.215 N 
ATOM     14  C   UNL     1      -0.153   5.170  -0.142  0.00  0.00    +0.310 C 
ATOM     15  O   UNL     1      -0.997   5.930  -0.574  0.00  0.00    -0.252 OA
ATOM     16  N   UNL     1       0.517   4.282  -0.904  0.00  0.00    -0.281 N 
ATOM     17  H   UNL     1       0.496   4.027  -1.974  0.00  0.00    +0.152 HD
ENDBRANCH   1  13
BRANCH   1  18
ATOM     18  C   UNL     1      -1.542   5.291   2.808  0.00  0.00    +0.231 C 
ATOM     19  O   UNL     1      -1.892   4.202   2.405  0.00  0.00    -0.274 OA
ATOM     20  N   UNL     1      -2.224   5.892   3.803  0.00  0.00    -0.307 N 
ATOM     21  H   UNL     1      -1.906   6.880   4.169  0.00  0.00    +0.149 HD
BRANCH  20  22
ATOM     22  C   UNL     1      -3.388   5.230   4.397  0.00  0.00    +0.178 C 
BRANCH  22  23
ATOM     23  C   UNL     1      -3.965   6.106   5.479  0.00  0.00    +0.123 A 
ATOM     24  C   UNL     1      -4.913   7.048   5.305  0.00  0.00    +0.047 A 
ATOM     25  C   UNL     1      -5.161   7.622   6.569  0.00  0.00    +0.050 A 
ATOM     26  C   UNL     1      -4.336   6.998   7.451  0.00  0.00    +0.135 A 
ATOM     27  O   UNL     1      -3.617   6.080   6.776  0.00  0.00    -0.458 OA
BRANCH  26  28
ATOM     28  C   UNL     1      -4.244   7.278   8.899  0.00  0.00    +0.017 A 
ATOM     29  C   UNL     1      -5.046   8.265   9.474  0.00  0.00    +0.013 A 
ATOM     30  C   UNL     1      -4.959   8.519  10.827  0.00  0.00    +0.021 A 
ATOM     31  C   UNL     1      -4.071   7.804  11.613  0.00  0.00    +0.041 A 
ATOM     32  C   UNL     1      -3.269   6.827  11.047  0.00  0.00    +0.021 A 
ATOM     33  C   UNL     1      -3.350   6.561   9.696  0.00  0.00    +0.013 A 
ATOM     34 CL   UNL     1      -3.962   8.134  13.314  0.00  0.00    -0.084 Cl
ENDBRANCH  26  28
ENDBRANCH  22  23
ENDBRANCH  20  22
ENDBRANCH   1  18
TORSDOF 5
