REMARK  Name = ZINC63982358
REMARK  7 active torsions:
REMARK  status: ('A' for Active; 'I' for Inactive)
REMARK    1  A    between atoms: C_1  and  C_2
REMARK    2  A    between atoms: C_2  and  C_3
REMARK    3  A    between atoms: C_3  and  C_4
REMARK    4  A    between atoms: C_6  and  C_23
REMARK    5  A    between atoms: C_7  and  C_9
REMARK    6  A    between atoms: C_9  and  N_11
REMARK    7  A    between atoms: N_20  and  C_21
REMARK                            x       y       z     vdW  Elec       q    Type
REMARK                         _______ _______ _______ _____ _____    ______ ____
ROOT
ATOM      1  N   UNL     1      -1.366  -6.231  -2.255  0.00  0.00    -0.142 NA
ATOM      2  C   UNL     1      -1.250  -7.470  -2.713  0.00  0.00    +0.201 A 
ATOM      3  N   UNL     1      -1.226  -8.596  -1.948  0.00  0.00    -0.326 N 
ATOM      4  C   UNL     1      -1.095  -9.694  -2.792  0.00  0.00    +0.067 A 
ATOM      5  C   UNL     1      -1.017 -11.060  -2.562  0.00  0.00    +0.047 A 
ATOM      6  C   UNL     1      -0.886 -11.931  -3.626  0.00  0.00    +0.043 A 
ATOM      7  C   UNL     1      -0.830 -11.446  -4.923  0.00  0.00    +0.022 A 
ATOM      8  C   UNL     1      -0.906 -10.088  -5.162  0.00  0.00    +0.029 A 
ATOM      9  C   UNL     1      -1.039  -9.206  -4.099  0.00  0.00    +0.068 A 
ATOM     10  N   UNL     1      -1.144  -7.820  -4.025  0.00  0.00    -0.315 N 
ATOM     11  C   UNL     1      -1.137  -6.896  -5.161  0.00  0.00    +0.152 C 
ATOM     12 CL   UNL     1      -0.789 -13.640  -3.338  0.00  0.00    -0.083 Cl
ATOM     13  H   UNL     1      -1.290  -8.627  -0.981  0.00  0.00    +0.169 HD
ENDROOT
BRANCH   1  14
ATOM     14  C   UNL     1      -1.349  -6.001  -0.934  0.00  0.00    +0.279 C 
ATOM     15  O   UNL     1      -1.324  -6.936  -0.152  0.00  0.00    -0.267 OA
BRANCH  14  19
ATOM     16  C   UNL     1      -1.389  -2.038   0.000  0.00  0.00    +0.079 A 
ATOM     17  N   UNL     1      -1.362  -2.856   1.027  0.00  0.00    -0.248 NA
ATOM     18  C   UNL     1      -1.347  -4.157   0.868  0.00  0.00    +0.058 A 
ATOM     19  C   UNL     1      -1.360  -4.619  -0.428  0.00  0.00    +0.099 A 
ATOM     20  S   UNL     1      -1.402  -3.075  -1.325  0.00  0.00    -0.067 S 
ATOM     21  C   UNL     1      -1.316  -5.099   2.044  0.00  0.00    +0.067 C 
BRANCH  16  22
ATOM     22  C   UNL     1      -1.409  -0.531   0.007  0.00  0.00    +0.062 C 
BRANCH  22  24
ATOM     23  C   UNL     1       0.005   1.528  -0.013  0.00  0.00    +0.004 C 
ATOM     24  C   UNL     1       0.026  -0.002  -0.019  0.00  0.00    +0.003 C 
ENDBRANCH  22  24
ENDBRANCH  16  22
ENDBRANCH  14  19
ENDBRANCH   1  14
TORSDOF 4
