REMARK  Name = ZINC63491708
REMARK  6 active torsions:
REMARK  status: ('A' for Active; 'I' for Inactive)
REMARK    1  A    between atoms: C_1  and  C_2
REMARK    2  A    between atoms: C_5  and  C_8
REMARK    3  A    between atoms: N_25  and  C_26
REMARK    4  A    between atoms: C_30  and  C_31
REMARK    5  A    between atoms: C_31  and  O_33
REMARK    6  A    between atoms: O_33  and  C_34
REMARK                            x       y       z     vdW  Elec       q    Type
REMARK                         _______ _______ _______ _____ _____    ______ ____
ROOT
ATOM      1  C   UNL     1       0.115  -4.343  -0.004  0.00  0.00    +0.134 C 
ATOM      2  C   UNL     1       1.551  -4.847   0.175  0.00  0.00    +0.131 C 
ATOM      3  C   UNL     1       1.955  -4.506   1.604  0.00  0.00    -0.035 C 
ATOM      4  C   UNL     1       3.064  -3.781   1.517  0.00  0.00    -0.001 A 
ATOM      5  C   UNL     1       3.953  -3.223   2.549  0.00  0.00    +0.010 A 
ATOM      6  C   UNL     1       5.016  -2.505   2.099  0.00  0.00    +0.001 A 
ATOM      7  C   UNL     1       5.281  -2.289   0.743  0.00  0.00    +0.002 A 
ATOM      8  C   UNL     1       4.520  -2.768  -0.273  0.00  0.00    +0.026 A 
ATOM      9  C   UNL     1       3.375  -3.543   0.074  0.00  0.00    +0.043 A 
ATOM     10  N   UNL     1       2.489  -4.143  -0.701  0.00  0.00    -0.375 N 
ATOM     11  C   UNL     1       1.125  -4.907   2.799  0.00  0.00    +0.052 C 
ATOM     12  C   UNL     1      -0.316  -4.450   2.509  0.00  0.00    +0.114 C 
ATOM     13  N   UNL     1      -0.680  -4.823   1.137  0.00  0.00    -0.276 N 
ATOM     14  C   UNL     1      -1.750  -5.614   0.920  0.00  0.00    +0.307 C 
ATOM     15  O   UNL     1      -1.999  -6.004  -0.205  0.00  0.00    -0.252 OA
ATOM     16  N   UNL     1      -2.543  -5.972   1.949  0.00  0.00    -0.268 N 
ATOM     17  H   UNL     1      -2.387  -5.603   2.832  0.00  0.00    +0.156 HD
ATOM     18  H   UNL     1       2.453  -4.123  -1.670  0.00  0.00    +0.160 HD
ENDROOT
BRANCH   1  23
ATOM     19  C   UNL     1       0.074   1.435  -0.124  0.00  0.00    +0.044 C 
ATOM     20  C   UNL     1       0.084  -0.072  -0.093  0.00  0.00    -0.050 A 
ATOM     21  C   UNL     1       0.553  -0.737   1.025  0.00  0.00    +0.004 A 
ATOM     22  C   UNL     1       0.563  -2.119   1.053  0.00  0.00    +0.006 A 
ATOM     23  C   UNL     1       0.103  -2.836  -0.035  0.00  0.00    -0.025 A 
ATOM     24  C   UNL     1      -0.367  -2.171  -1.153  0.00  0.00    +0.006 A 
ATOM     25  C   UNL     1      -0.380  -0.789  -1.180  0.00  0.00    +0.004 A 
ENDBRANCH   1  23
BRANCH  16  26
ATOM     26  C   UNL     1      -3.588  -6.873   1.743  0.00  0.00    +0.056 A 
ATOM     27  C   UNL     1      -3.940  -7.319   0.485  0.00  0.00    +0.032 A 
ATOM     28  C   UNL     1      -4.966  -8.194   0.361  0.00  0.00    +0.048 A 
ATOM     29  S   UNL     1      -5.492  -8.448   1.935  0.00  0.00    -0.088 S 
ATOM     30  C   UNL     1      -4.345  -7.390   2.795  0.00  0.00    +0.117 A 
BRANCH  30  31
ATOM     31  C   UNL     1      -4.232  -7.138   4.183  0.00  0.00    +0.347 C 
ATOM     32  O   UNL     1      -3.378  -6.374   4.595  0.00  0.00    -0.244 OA
BRANCH  31  33
ATOM     33  O   UNL     1      -5.070  -7.744   5.049  0.00  0.00    -0.464 OA
ATOM     34  C   UNL     1      -4.899  -7.444   6.436  0.00  0.00    +0.280 C 
ENDBRANCH  31  33
ENDBRANCH  30  31
ENDBRANCH  16  26
TORSDOF 4
