REMARK  Name = ZINC09238993
REMARK  8 active torsions:
REMARK  status: ('A' for Active; 'I' for Inactive)
REMARK    1  A    between atoms: C_1  and  C_2
REMARK    2  A    between atoms: C_2  and  O_3
REMARK    3  A    between atoms: O_3  and  C_4
REMARK    4  A    between atoms: C_7  and  C_10
REMARK    5  A    between atoms: C_12  and  C_22
REMARK    6  A    between atoms: C_18  and  C_21
REMARK    7  A    between atoms: N_24  and  C_25
REMARK    8  A    between atoms: C_30  and  C_31
REMARK                            x       y       z     vdW  Elec       q    Type
REMARK                         _______ _______ _______ _____ _____    ______ ____
ROOT
ATOM      1  C   UNL     1       3.257   7.442  -0.872  0.00  0.00    +0.140 C 
ATOM      2  C   UNL     1       3.565   6.106  -0.184  0.00  0.00    +0.166 C 
ATOM      3  S   UNL     1       4.204   6.469   1.479  0.00  0.00    -0.069 S 
ATOM      4  C   UNL     1       3.028   7.707   1.926  0.00  0.00    +0.209 A 
ATOM      5  N   UNL     1       2.806   8.219   3.104  0.00  0.00    -0.121 NA
ATOM      6  N   UNL     1       1.877   9.108   3.018  0.00  0.00    -0.132 NA
ATOM      7  C   UNL     1       1.460   9.203   1.785  0.00  0.00    +0.148 A 
ATOM      8  N   UNL     1       2.175   8.307   1.044  0.00  0.00    -0.225 N 
ATOM      9  N   UNL     1       2.063   8.055  -0.286  0.00  0.00    -0.272 N 
ATOM     10  C   UNL     1       0.388  10.131   1.274  0.00  0.00    +0.090 C 
ATOM     11  H   UNL     1       1.241   7.504  -0.482  0.00  0.00    +0.167 HD
ENDROOT
BRANCH   1  15
ATOM     12  C   UNL     1       2.598   6.768  -5.040  0.00  0.00    +0.121 A 
ATOM     13  C   UNL     1       3.825   7.241  -4.598  0.00  0.00    +0.046 A 
ATOM     14  C   UNL     1       4.036   7.458  -3.250  0.00  0.00    +0.009 A 
ATOM     15  C   UNL     1       3.025   7.204  -2.342  0.00  0.00    -0.024 A 
ATOM     16  C   UNL     1       1.803   6.728  -2.779  0.00  0.00    +0.009 A 
ATOM     17  C   UNL     1       1.585   6.514  -4.127  0.00  0.00    +0.046 A 
BRANCH  12  18
ATOM     18  O   UNL     1       2.389   6.554  -6.365  0.00  0.00    -0.492 OA
BRANCH  18  20
ATOM     19  C   UNL     1       1.055   5.888  -8.267  0.00  0.00    +0.048 C 
ATOM     20  C   UNL     1       1.101   6.066  -6.748  0.00  0.00    +0.225 C 
ENDBRANCH  18  20
ENDBRANCH  12  18
ENDBRANCH   1  15
BRANCH   2  21
ATOM     21  C   UNL     1       2.307   5.284  -0.079  0.00  0.00    +0.233 C 
ATOM     22  O   UNL     1       1.360   5.702   0.553  0.00  0.00    -0.274 OA
ATOM     23  N   UNL     1       2.233   4.083  -0.687  0.00  0.00    -0.284 N 
ATOM     24  H   UNL     1       3.017   3.710  -1.119  0.00  0.00    +0.155 HD
BRANCH  23  25
ATOM     25  C   UNL     1       1.026   3.375  -0.694  0.00  0.00    +0.036 A 
ATOM     26  C   UNL     1      -0.179   4.053  -0.561  0.00  0.00    +0.024 A 
ATOM     27  C   UNL     1      -1.368   3.351  -0.569  0.00  0.00    +0.017 A 
ATOM     28  C   UNL     1      -1.361   1.975  -0.714  0.00  0.00    +0.018 A 
ATOM     29  C   UNL     1      -0.162   1.297  -0.840  0.00  0.00    +0.020 A 
ATOM     30  C   UNL     1       1.031   1.993  -0.833  0.00  0.00    -0.028 A 
ATOM     31  C   UNL     1       2.337   1.254  -0.978  0.00  0.00    +0.046 C 
ATOM     32 BR   UNL     1      -2.992   1.019  -0.731  0.00  0.00    -0.050 Br
ENDBRANCH  23  25
ENDBRANCH   2  21
TORSDOF 5
