REMARK  Name = ZINC01422340
REMARK  6 active torsions:
REMARK  status: ('A' for Active; 'I' for Inactive)
REMARK    1  A    between atoms: C_1  and  N_2
REMARK    2  A    between atoms: C_5  and  C_10
REMARK    3  A    between atoms: C_13  and  O_16
REMARK    4  A    between atoms: N_19  and  C_21
REMARK    5  A    between atoms: C_24  and  O_27
REMARK    6  A    between atoms: O_27  and  C_28
REMARK                            x       y       z     vdW  Elec       q    Type
REMARK                         _______ _______ _______ _____ _____    ______ ____
ROOT
ATOM      1  C   UNL     1       6.283   2.687   0.888  0.00  0.00    +0.139 C 
ATOM      2  N   UNL     1       4.968   2.117   0.585  0.00  0.00    -0.260 N 
ATOM      3  C   UNL     1       4.250   1.569   1.609  0.00  0.00    +0.042 C 
ATOM      4  C   UNL     1       3.033   1.027   1.398  0.00  0.00    +0.058 C 
ATOM      5  C   UNL     1       2.490   1.045  -0.016  0.00  0.00    +0.142 C 
ATOM      6  N   UNL     1       3.341   1.658  -1.050  0.00  0.00    -0.288 N 
ATOM      7  C   UNL     1       4.537   2.160  -0.682  0.00  0.00    +0.307 C 
ATOM      8  O   UNL     1       5.247   2.667  -1.529  0.00  0.00    -0.252 OA
ATOM      9  C   UNL     1       2.500   0.534   2.606  0.00  0.00    +0.251 C 
ATOM     10  O   UNL     1       1.414  -0.007   2.709  0.00  0.00    -0.270 OA
ATOM     11  N   UNL     1       3.347   0.739   3.631  0.00  0.00    -0.262 N 
ATOM     12  C   UNL     1       4.534   1.415   3.087  0.00  0.00    +0.165 C 
ATOM     13  H   UNL     1       3.048   1.699  -1.974  0.00  0.00    +0.151 HD
ENDROOT
BRANCH   5  14
ATOM     14  C   UNL     1       1.176   1.783   0.000  0.00  0.00    -0.022 A 
ATOM     15  C   UNL     1      -0.013   1.076   0.008  0.00  0.00    +0.009 A 
ATOM     16  C   UNL     1      -1.218   1.750   0.017  0.00  0.00    +0.046 A 
ATOM     17  C   UNL     1      -1.237   3.137   0.031  0.00  0.00    +0.117 A 
ATOM     18  C   UNL     1      -0.043   3.844   0.023  0.00  0.00    +0.046 A 
ATOM     19  C   UNL     1       1.160   3.165   0.007  0.00  0.00    +0.009 A 
BRANCH  17  20
ATOM     20  O   UNL     1      -2.422   3.802   0.045  0.00  0.00    -0.507 OA
ATOM     21  H   UNL     1      -2.773   3.999  -0.834  0.00  0.00    +0.292 HD
ENDBRANCH  17  20
ENDBRANCH   5  14
BRANCH  11  22
ATOM     22  C   UNL     1       3.138   0.376   4.967  0.00  0.00    +0.037 A 
ATOM     23  C   UNL     1       4.109   0.648   5.922  0.00  0.00    +0.027 A 
ATOM     24  C   UNL     1       3.900   0.294   7.240  0.00  0.00    +0.048 A 
ATOM     25  C   UNL     1       2.724  -0.343   7.609  0.00  0.00    +0.130 A 
ATOM     26  C   UNL     1       1.756  -0.620   6.655  0.00  0.00    +0.048 A 
ATOM     27  C   UNL     1       1.961  -0.262   5.338  0.00  0.00    +0.027 A 
BRANCH  25  28
ATOM     28  O   UNL     1       2.521  -0.696   8.906  0.00  0.00    -0.406 OA
BRANCH  28  29
ATOM     29  C   UNL     1       3.560  -0.380   9.835  0.00  0.00    +0.575 C 
ATOM     30  F   UNL     1       3.768   1.004   9.850  0.00  0.00    -0.133 F 
ATOM     31  F   UNL     1       3.189  -0.809  11.114  0.00  0.00    -0.133 F 
ATOM     32  F   UNL     1       4.741  -1.024   9.451  0.00  0.00    -0.133 F 
ENDBRANCH  28  29
ENDBRANCH  25  28
ENDBRANCH  11  22
TORSDOF 5
