REMARK  Name = ZINC09345921
REMARK  6 active torsions:
REMARK  status: ('A' for Active; 'I' for Inactive)
REMARK    1  A    between atoms: C_1  and  O_2
REMARK    2  A    between atoms: O_2  and  C_3
REMARK    3  A    between atoms: C_6  and  C_11
REMARK    4  A    between atoms: C_7  and  O_9
REMARK    5  A    between atoms: O_9  and  C_10
REMARK    6  A    between atoms: C_29  and  C_31
REMARK                            x       y       z     vdW  Elec       q    Type
REMARK                         _______ _______ _______ _____ _____    ______ ____
ROOT
ATOM      1  C   UNL     1       2.593  -2.541   4.316  0.00  0.00    +0.238 C 
ATOM      2  C   UNL     1       3.967  -2.966   3.889  0.00  0.00    +0.027 C 
ATOM      3  C   UNL     1       5.020  -2.136   4.037  0.00  0.00    +0.083 C 
ATOM      4  C   UNL     1       4.763  -0.806   4.645  0.00  0.00    +0.044 A 
ATOM      5  C   UNL     1       5.685   0.227   4.546  0.00  0.00    +0.033 A 
ATOM      6  C   UNL     1       5.404   1.451   5.125  0.00  0.00    +0.042 A 
ATOM      7  C   UNL     1       4.210   1.645   5.799  0.00  0.00    +0.023 A 
ATOM      8  C   UNL     1       3.287   0.620   5.902  0.00  0.00    +0.048 A 
ATOM      9  C   UNL     1       3.556  -0.610   5.328  0.00  0.00    +0.131 A 
ATOM     10  O   UNL     1       2.675  -1.634   5.417  0.00  0.00    -0.479 OA
ATOM     11 CL   UNL     1       6.551   2.748   5.007  0.00  0.00    -0.084 Cl
ATOM     12  N   UNL     1       6.268  -2.499   3.651  0.00  0.00    -0.213 NA
ATOM     13  C   UNL     1       6.570  -3.660   3.118  0.00  0.00    +0.237 C 
ATOM     14  N   UNL     1       7.742  -4.177   2.686  0.00  0.00    -0.205 NA
ATOM     15  C   UNL     1       7.563  -5.385   2.227  0.00  0.00    +0.203 C 
ATOM     16  N   UNL     1       6.248  -5.723   2.337  0.00  0.00    -0.251 N 
ATOM     17  N   UNL     1       5.603  -4.622   2.905  0.00  0.00    -0.208 N 
ATOM     18  C   UNL     1       4.215  -4.330   3.283  0.00  0.00    +0.159 C 
ATOM     19  H   UNL     1       5.840  -6.562   2.072  0.00  0.00    +0.171 HD
ENDROOT
BRANCH   1  23
ATOM     20  C   UNL     1       0.626  -0.619   1.041  0.00  0.00    +0.124 A 
ATOM     21  C   UNL     1       1.299   0.137   1.992  0.00  0.00    +0.046 A 
ATOM     22  C   UNL     1       1.933  -0.487   3.049  0.00  0.00    +0.015 A 
ATOM     23  C   UNL     1       1.899  -1.864   3.163  0.00  0.00    +0.039 A 
ATOM     24  C   UNL     1       1.227  -2.623   2.216  0.00  0.00    +0.131 A 
ATOM     25  C   UNL     1       0.585  -1.999   1.157  0.00  0.00    +0.091 A 
BRANCH  20  27
ATOM     26  C   UNL     1       0.086   1.421  -0.054  0.00  0.00    +0.277 C 
ATOM     27  O   UNL     1       0.002  -0.004   0.002  0.00  0.00    -0.495 OA
ENDBRANCH  20  27
BRANCH  24  28
ATOM     28  O   UNL     1       1.194  -3.977   2.328  0.00  0.00    -0.495 OA
ATOM     29  C   UNL     1       0.484  -4.695   1.317  0.00  0.00    +0.277 C 
ENDBRANCH  24  28
ENDBRANCH   1  23
BRANCH  18  30
ATOM     30  C   UNL     1       3.767  -5.373   4.274  0.00  0.00    -0.021 A 
ATOM     31  C   UNL     1       4.583  -5.712   5.337  0.00  0.00    +0.006 A 
ATOM     32  C   UNL     1       4.172  -6.669   6.245  0.00  0.00    +0.000 A 
ATOM     33  C   UNL     1       2.946  -7.288   6.091  0.00  0.00    +0.000 A 
ATOM     34  C   UNL     1       2.129  -6.948   5.028  0.00  0.00    +0.000 A 
ATOM     35  C   UNL     1       2.538  -5.988   4.122  0.00  0.00    +0.006 A 
ENDBRANCH  18  30
TORSDOF 4
