REMARK  Name = ZINC50306041
REMARK  5 active torsions:
REMARK  status: ('A' for Active; 'I' for Inactive)
REMARK    1  A    between atoms: C_1  and  C_2
REMARK    2  A    between atoms: C_3  and  N_23
REMARK    3  A    between atoms: C_4  and  C_8
REMARK    4  A    between atoms: N_10  and  C_11
REMARK    5  A    between atoms: N_10  and  C_12
REMARK                            x       y       z     vdW  Elec       q    Type
REMARK                         _______ _______ _______ _____ _____    ______ ____
ROOT
ATOM      1  C   UNL     1      -0.179  -3.417  -1.393  0.00  0.00    +0.269 C 
ATOM      2  O   UNL     1      -0.234  -3.367  -2.607  0.00  0.00    -0.268 OA
ATOM      3  N   UNL     1       0.164  -4.567  -0.781  0.00  0.00    -0.292 N 
ATOM      4  C   UNL     1       0.173  -4.643   0.682  0.00  0.00    +0.133 C 
ENDROOT
BRANCH   3   5
ATOM      5  C   UNL     1       0.528  -5.741  -1.578  0.00  0.00    +0.107 C 
ATOM      6  C   UNL     1       1.961  -6.151  -1.245  0.00  0.00    +0.027 C 
ATOM      7  C   UNL     1       2.247  -7.498  -1.919  0.00  0.00    +0.007 C 
ATOM      8  C   UNL     1       1.432  -8.576  -1.206  0.00  0.00    +0.035 C 
ATOM      9  C   UNL     1      -0.014  -8.166  -1.106  0.00  0.00    -0.042 A 
ATOM     10  C   UNL     1      -0.428  -6.864  -1.272  0.00  0.00    -0.024 A 
ATOM     11  C   UNL     1      -1.777  -6.553  -1.160  0.00  0.00    +0.006 A 
ATOM     12  C   UNL     1      -2.704  -7.538  -0.887  0.00  0.00    +0.000 A 
ATOM     13  C   UNL     1      -2.287  -8.846  -0.723  0.00  0.00    +0.000 A 
ATOM     14  C   UNL     1      -0.949  -9.157  -0.834  0.00  0.00    +0.004 A 
ENDBRANCH   3   5
BRANCH   1  18
ATOM     15  C   UNL     1      -1.325   1.319   0.021  0.00  0.00    +0.067 C 
ATOM     16  C   UNL     1      -0.989  -0.150   0.009  0.00  0.00    +0.054 A 
ATOM     17  C   UNL     1      -0.765  -0.919  -1.090  0.00  0.00    +0.078 A 
ATOM     18  C   UNL     1      -0.488  -2.218  -0.592  0.00  0.00    +0.168 A 
ATOM     19  N   UNL     1      -0.559  -2.152   0.724  0.00  0.00    -0.167 NA
ATOM     20  N   UNL     1      -0.845  -0.955   1.094  0.00  0.00    -0.279 N 
ATOM     21  H   UNL     1      -0.945  -0.668   2.015  0.00  0.00    +0.189 HD
BRANCH  17  22
ATOM     22  N   UNL     1      -0.801  -0.513  -2.432  0.00  0.00    -0.355 N 
ATOM     23  H   UNL     1      -1.003   0.409  -2.655  0.00  0.00    +0.142 HD
ATOM     24  H   UNL     1      -0.624  -1.155  -3.138  0.00  0.00    +0.142 HD
ENDBRANCH  17  22
ENDBRANCH   1  18
TORSDOF 3
