REMARK  Name = ZINC36690258
REMARK  16 active torsions:
REMARK  status: ('A' for Active; 'I' for Inactive)
REMARK    1  A    between atoms: C_1  and  C_2
REMARK    2  A    between atoms: C_2  and  C_3
REMARK    3  A    between atoms: C_2  and  C_4
REMARK    4  A    between atoms: C_4  and  N_5
REMARK    5  A    between atoms: N_5  and  C_6
REMARK    6  A    between atoms: N_5  and  S_10
REMARK    7  A    between atoms: C_6  and  C_7
REMARK    8  A    between atoms: C_7  and  C_8
REMARK    9  A    between atoms: C_7  and  C_9
REMARK   10  A    between atoms: S_10  and  C_13
REMARK   11  A    between atoms: C_16  and  C_19
REMARK   12  A    between atoms: N_21  and  C_22
REMARK   13  A    between atoms: C_22  and  C_23
REMARK   14  A    between atoms: C_23  and  N_24
REMARK   15  A    between atoms: N_24  and  C_25
REMARK   16  A    between atoms: N_24  and  C_26
REMARK                            x       y       z     vdW  Elec       q    Type
REMARK                         _______ _______ _______ _____ _____    ______ ____
ROOT
ATOM      1  C   UNL     1      -2.630   2.773  -0.937  0.00  0.00    +0.106 A 
ATOM      2  C   UNL     1      -1.569   3.167  -0.140  0.00  0.00    +0.029 A 
ATOM      3  C   UNL     1      -0.543   3.918  -0.674  0.00  0.00    +0.015 A 
ATOM      4  C   UNL     1      -0.577   4.282  -2.022  0.00  0.00    +0.037 A 
ATOM      5  C   UNL     1      -1.650   3.882  -2.820  0.00  0.00    +0.015 A 
ATOM      6  C   UNL     1      -2.667   3.126  -2.274  0.00  0.00    +0.029 A 
ENDROOT
BRANCH   4   7
ATOM      7  C   UNL     1       0.519   5.088  -2.601  0.00  0.00    +0.252 C 
ATOM      8  O   UNL     1       1.250   5.731  -1.873  0.00  0.00    -0.270 OA
ATOM      9  N   UNL     1       0.707   5.110  -3.935  0.00  0.00    -0.248 N 
ATOM     10  C   UNL     1       1.848   5.688  -4.464  0.00  0.00    +0.168 A 
ATOM     11  N   UNL     1       2.202   5.810  -5.722  0.00  0.00    -0.224 NA
ATOM     12  C   UNL     1       3.355   6.404  -6.098  0.00  0.00    +0.080 A 
ATOM     13  C   UNL     1       3.851   6.598  -7.408  0.00  0.00    +0.029 A 
ATOM     14  C   UNL     1       5.051   7.225  -7.616  0.00  0.00    +0.002 A 
ATOM     15  C   UNL     1       5.820   7.690  -6.558  0.00  0.00    +0.001 A 
ATOM     16  C   UNL     1       5.365   7.518  -5.264  0.00  0.00    +0.017 A 
ATOM     17  C   UNL     1       4.164   6.890  -5.045  0.00  0.00    +0.041 A 
ATOM     18  S   UNL     1       3.210   6.467  -3.608  0.00  0.00    -0.052 S 
BRANCH   9  19
ATOM     19  C   UNL     1      -0.297   4.521  -4.826  0.00  0.00    +0.097 C 
BRANCH  19  20
ATOM     20  C   UNL     1      -1.525   5.432  -4.882  0.00  0.00    -0.060 C 
BRANCH  20  21
ATOM     21  N   UNL     1      -2.515   4.861  -5.805  0.00  0.00    +0.377 N 
ATOM     22  C   UNL     1      -2.980   3.568  -5.286  0.00  0.00    -0.097 C 
ATOM     23  C   UNL     1      -3.656   5.778  -5.928  0.00  0.00    -0.097 C 
ATOM     24  H   UNL     1      -2.092   4.727  -6.712  0.00  0.00    -0.083 HD
ENDBRANCH  20  21
ENDBRANCH  19  20
ENDBRANCH   9  19
ENDBRANCH   4   7
BRANCH   1  25
ATOM     25  S   UNL     1      -3.936   1.813  -0.246  0.00  0.00    +0.061 S 
ATOM     26  O   UNL     1      -5.077   2.034  -1.063  0.00  0.00    -0.153 OA
ATOM     27  O   UNL     1      -3.937   2.074   1.151  0.00  0.00    -0.153 OA
BRANCH  25  28
ATOM     28  N   UNL     1      -3.523   0.220  -0.430  0.00  0.00    -0.176 NA
BRANCH  28  29
ATOM     29  C   UNL     1      -2.874  -0.500   0.668  0.00  0.00    +0.112 C 
BRANCH  29  31
ATOM     30  C   UNL     1      -0.644   0.284  -0.140  0.00  0.00    +0.008 C 
ATOM     31  C   UNL     1      -1.477  -0.945   0.233  0.00  0.00    -0.001 C 
ATOM     32  C   UNL     1      -0.798  -1.691   1.382  0.00  0.00    +0.008 C 
ENDBRANCH  29  31
ENDBRANCH  28  29
BRANCH  28  33
ATOM     33  C   UNL     1      -3.805  -0.469  -1.692  0.00  0.00    +0.112 C 
BRANCH  33  34
ATOM     34  C   UNL     1      -5.214  -1.063  -1.644  0.00  0.00    -0.001 C 
ATOM     35  C   UNL     1      -5.536  -1.721  -2.987  0.00  0.00    +0.008 C 
ATOM     36  C   UNL     1      -5.288  -2.111  -0.532  0.00  0.00    +0.008 C 
ENDBRANCH  33  34
ENDBRANCH  28  33
ENDBRANCH  25  28
ENDBRANCH   1  25
TORSDOF 10
