REMARK  Name = ZINC06131139
REMARK  7 active torsions:
REMARK  status: ('A' for Active; 'I' for Inactive)
REMARK    1  A    between atoms: C_1  and  C_2
REMARK    2  A    between atoms: C_5  and  S_8
REMARK    3  A    between atoms: S_8  and  N_11
REMARK    4  A    between atoms: N_11  and  C_12
REMARK    5  A    between atoms: C_22  and  O_24
REMARK    6  A    between atoms: O_24  and  C_25
REMARK    7  A    between atoms: N_27  and  C_28
REMARK                            x       y       z     vdW  Elec       q    Type
REMARK                         _______ _______ _______ _____ _____    ______ ____
ROOT
ATOM      1  C   UNL     1       2.317   4.045   2.442  0.00  0.00    +0.133 C 
ATOM      2  C   UNL     1       3.212   5.291   2.561  0.00  0.00    +0.183 C 
ATOM      3  O   UNL     1       3.315   5.614   3.956  0.00  0.00    -0.369 OA
ATOM      4  C   UNL     1       2.138   5.105   4.609  0.00  0.00    +0.191 C 
ATOM      5  C   UNL     1       1.869   3.746   3.889  0.00  0.00    +0.171 C 
ATOM      6  O   UNL     1       2.804   2.828   4.485  0.00  0.00    -0.368 OA
ATOM      7  C   UNL     1       2.898   3.146   5.881  0.00  0.00    +0.207 C 
ATOM      8  C   UNL     1       2.537   4.635   6.039  0.00  0.00    +0.235 C 
ENDROOT
BRANCH   1   9
ATOM      9  N   UNL     1       1.155   4.329   1.596  0.00  0.00    -0.182 NA
ATOM     10  H   UNL     1       0.227   4.711   2.046  0.00  0.00    +0.148 HD
BRANCH   9  11
ATOM     11  S   UNL     1       1.147   3.847   0.011  0.00  0.00    +0.059 S 
ATOM     12  O   UNL     1       2.382   4.273  -0.549  0.00  0.00    -0.153 OA
ATOM     13  O   UNL     1      -0.109   4.239  -0.526  0.00  0.00    -0.153 OA
BRANCH  11  18
ATOM     14  C   UNL     1       1.229  -2.186  -0.022  0.00  0.00    +0.044 C 
ATOM     15  C   UNL     1       1.208  -0.679  -0.014  0.00  0.00    -0.050 A 
ATOM     16  C   UNL     1       0.002  -0.004   0.002  0.00  0.00    +0.005 A 
ATOM     17  C   UNL     1      -0.017   1.378   0.010  0.00  0.00    +0.029 A 
ATOM     18  C   UNL     1       1.171   2.086   0.002  0.00  0.00    +0.105 A 
ATOM     19  C   UNL     1       2.377   1.411  -0.014  0.00  0.00    +0.029 A 
ATOM     20  C   UNL     1       2.396   0.029  -0.021  0.00  0.00    +0.005 A 
ENDBRANCH  11  18
ENDBRANCH   9  11
ENDBRANCH   1   9
BRANCH   8  21
ATOM     21  O   UNL     1       3.680   5.384   6.529  0.00  0.00    -0.442 OA
BRANCH  21  22
ATOM     22  C   UNL     1       3.795   5.520   7.863  0.00  0.00    +0.401 C 
ATOM     23  O   UNL     1       2.963   5.027   8.598  0.00  0.00    -0.226 OA
ATOM     24  N   UNL     1       4.833   6.204   8.384  0.00  0.00    -0.278 N 
ATOM     25  H   UNL     1       5.586   6.651   7.718  0.00  0.00    +0.152 HD
BRANCH  24  26
ATOM     26  C   UNL     1       4.958   6.353   9.836  0.00  0.00    +0.076 C 
ATOM     27  C   UNL     1       4.127   7.550  10.300  0.00  0.00    +0.022 C 
ATOM     28  C   UNL     1       4.258   7.705  11.816  0.00  0.00    +0.002 C 
ATOM     29  C   UNL     1       5.726   7.932  12.181  0.00  0.00    +0.000 C 
ATOM     30  C   UNL     1       6.558   6.735  11.717  0.00  0.00    +0.002 C 
ATOM     31  C   UNL     1       6.427   6.580  10.200  0.00  0.00    +0.022 C 
ENDBRANCH  24  26
ENDBRANCH  21  22
ENDBRANCH   8  21
TORSDOF 6
