REMARK  Name = ZINC39206091
REMARK  7 active torsions:
REMARK  status: ('A' for Active; 'I' for Inactive)
REMARK    1  A    between atoms: C_1  and  C_2
REMARK    2  A    between atoms: C_4  and  C_16
REMARK    3  A    between atoms: C_6  and  C_14
REMARK    4  A    between atoms: C_7  and  N_13
REMARK    5  A    between atoms: C_19  and  O_22
REMARK    6  A    between atoms: O_22  and  C_23
REMARK    7  A    between atoms: C_23  and  C_25
REMARK                            x       y       z     vdW  Elec       q    Type
REMARK                         _______ _______ _______ _____ _____    ______ ____
ROOT
ATOM      1  C   UNL     1       0.042   1.443   0.177  0.00  0.00    +0.067 C 
ATOM      2  C   UNL     1       0.014  -0.063   0.134  0.00  0.00    +0.066 C 
ATOM      3  C   UNL     1      -1.074  -0.789   0.041  0.00  0.00    +0.030 C 
ATOM      4  C   UNL     1      -2.542  -0.467   0.086  0.00  0.00    +0.098 C 
ATOM      5  C   UNL     1      -3.171  -1.552   0.940  0.00  0.00    +0.097 C 
ATOM      6  C   UNL     1      -2.473  -2.636   1.337  0.00  0.00    +0.195 C 
ATOM      7  O   UNL     1      -1.179  -2.898   1.078  0.00  0.00    -0.448 OA
ATOM      8  C   UNL     1      -0.582  -2.235  -0.040  0.00  0.00    +0.343 C 
ATOM      9  N   UNL     1       0.867  -2.073   0.121  0.00  0.00    -0.138 NA
ATOM     10  N   UNL     1       1.111  -0.861   0.179  0.00  0.00    -0.155 NA
ENDROOT
BRANCH   4  11
ATOM     11  C   UNL     1      -2.760   0.886   0.713  0.00  0.00    -0.035 A 
ATOM     12  C   UNL     1      -2.332   1.124   2.006  0.00  0.00    +0.008 A 
ATOM     13  C   UNL     1      -2.531   2.363   2.583  0.00  0.00    +0.046 A 
ATOM     14  C   UNL     1      -3.160   3.369   1.864  0.00  0.00    +0.132 A 
ATOM     15  C   UNL     1      -3.588   3.128   0.567  0.00  0.00    +0.046 A 
ATOM     16  C   UNL     1      -3.382   1.888  -0.008  0.00  0.00    +0.008 A 
BRANCH  14  17
ATOM     17  O   UNL     1      -3.357   4.589   2.430  0.00  0.00    -0.422 OA
BRANCH  17  18
ATOM     18  C   UNL     1      -4.620   4.951   2.728  0.00  0.00    +0.344 C 
ATOM     19  O   UNL     1      -5.529   4.157   2.588  0.00  0.00    -0.245 OA
BRANCH  18  20
ATOM     20  C   UNL     1      -4.900   6.314   3.226  0.00  0.00    +0.059 A 
ATOM     21  C   UNL     1      -3.859   7.231   3.383  0.00  0.00    +0.015 A 
ATOM     22  C   UNL     1      -4.127   8.501   3.848  0.00  0.00    +0.001 A 
ATOM     23  C   UNL     1      -5.424   8.868   4.159  0.00  0.00    +0.000 A 
ATOM     24  C   UNL     1      -6.461   7.964   4.006  0.00  0.00    +0.001 A 
ATOM     25  C   UNL     1      -6.208   6.692   3.536  0.00  0.00    +0.015 A 
ENDBRANCH  18  20
ENDBRANCH  17  18
ENDBRANCH  14  17
ENDBRANCH   4  11
BRANCH   6  26
ATOM     26  N   UNL     1      -3.152  -3.567   2.082  0.00  0.00    -0.329 N 
ATOM     27  H   UNL     1      -4.087  -3.428   2.297  0.00  0.00    +0.145 HD
ATOM     28  H   UNL     1      -2.696  -4.366   2.392  0.00  0.00    +0.145 HD
ENDBRANCH   6  26
BRANCH   5  29
ATOM     29  C   UNL     1      -4.541  -1.422   1.337  0.00  0.00    +0.101 C 
ATOM     30  N   UNL     1      -5.628  -1.318   1.651  0.00  0.00    -0.191 NA
ENDBRANCH   5  29
TORSDOF 6
