REMARK  Name = ZINC39488032
REMARK  6 active torsions:
REMARK  status: ('A' for Active; 'I' for Inactive)
REMARK    1  A    between atoms: C_1  and  C_2
REMARK    2  A    between atoms: C_2  and  C_23
REMARK    3  A    between atoms: N_4  and  O_22
REMARK    4  A    between atoms: N_7  and  C_8
REMARK    5  A    between atoms: C_8  and  C_9
REMARK    6  A    between atoms: C_9  and  C_16
REMARK                            x       y       z     vdW  Elec       q    Type
REMARK                         _______ _______ _______ _____ _____    ______ ____
ROOT
ATOM      1  C   UNL     1      -2.970   1.717   1.206  0.00  0.00    +0.039 C 
ATOM      2  C   UNL     1      -1.639   2.008   1.901  0.00  0.00    +0.079 C 
ATOM      3  C   UNL     1      -1.857   2.902   3.138  0.00  0.00    +0.171 C 
ATOM      4  N   UNL     1      -1.385   2.075   4.258  0.00  0.00    -0.165 N 
ATOM      5  C   UNL     1      -0.958   0.897   3.787  0.00  0.00    +0.328 C 
ATOM      6  O   UNL     1      -0.512   0.019   4.500  0.00  0.00    -0.250 OA
ATOM      7  N   UNL     1      -1.066   0.772   2.457  0.00  0.00    -0.272 N 
ENDROOT
BRANCH   2   8
ATOM      8  C   UNL     1      -0.673   2.654   0.942  0.00  0.00    -0.023 A 
ATOM      9  C   UNL     1       0.666   2.310   0.973  0.00  0.00    +0.006 A 
ATOM     10  C   UNL     1       1.552   2.903   0.092  0.00  0.00    +0.000 A 
ATOM     11  C   UNL     1       1.099   3.838  -0.819  0.00  0.00    +0.000 A 
ATOM     12  C   UNL     1      -0.240   4.181  -0.850  0.00  0.00    +0.000 A 
ATOM     13  C   UNL     1      -1.126   3.585   0.027  0.00  0.00    +0.006 A 
ENDBRANCH   2   8
BRANCH   4  14
ATOM     14  O   UNL     1      -1.381   2.464   5.620  0.00  0.00    -0.291 OA
ATOM     15  H   UNL     1      -1.033   1.790   6.220  0.00  0.00    +0.242 HD
ENDBRANCH   4  14
BRANCH   7  16
ATOM     16  C   UNL     1      -0.675  -0.407   1.680  0.00  0.00    +0.117 C 
BRANCH  16  17
ATOM     17  C   UNL     1      -1.714  -1.512   1.875  0.00  0.00    -0.008 C 
ATOM     18  C   UNL     1      -1.209  -2.808   1.234  0.00  0.00    +0.025 C 
ATOM     19  C   UNL     1      -1.034  -2.593  -0.271  0.00  0.00    +0.098 C 
ATOM     20  N   UNL     1      -2.320  -2.203  -0.863  0.00  0.00    -0.242 NA
ATOM     21  C   UNL     1      -2.803  -0.936  -0.298  0.00  0.00    +0.098 C 
ATOM     22  C   UNL     1      -3.030  -1.102   1.207  0.00  0.00    +0.025 C 
ATOM     23 BR   UNL     1      -2.197  -2.102  -2.706  0.00  0.00    +0.013 Br
BRANCH  17  24
ATOM     24  C   UNL     1      -1.949  -1.737   3.370  0.00  0.00    -0.003 C 
ATOM     25  C   UNL     1      -0.693  -2.346   3.997  0.00  0.00    +0.004 C 
ATOM     26  C   UNL     1      -0.927  -2.570   5.492  0.00  0.00    +0.000 C 
ATOM     27  C   UNL     1      -2.107  -3.524   5.686  0.00  0.00    +0.000 C 
ATOM     28  C   UNL     1      -3.363  -2.916   5.059  0.00  0.00    +0.000 C 
ATOM     29  C   UNL     1      -3.129  -2.691   3.564  0.00  0.00    +0.004 C 
ENDBRANCH  17  24
ENDBRANCH  16  17
ENDBRANCH   7  16
TORSDOF 5
