REMARK  Name = ZINC38713629
REMARK  12 active torsions:
REMARK  status: ('A' for Active; 'I' for Inactive)
REMARK    1  A    between atoms: C_1  and  C_2
REMARK    2  A    between atoms: C_2  and  N_3
REMARK    3  A    between atoms: N_3  and  C_4
REMARK    4  A    between atoms: N_3  and  C_6
REMARK    5  A    between atoms: C_4  and  C_5
REMARK    6  A    between atoms: C_6  and  C_7
REMARK    7  A    between atoms: C_7  and  C_8
REMARK    8  A    between atoms: C_8  and  N_9
REMARK    9  A    between atoms: C_10  and  C_29
REMARK   10  A    between atoms: C_33  and  O_35
REMARK   11  A    between atoms: O_35  and  C_36
REMARK   12  A    between atoms: C_36  and  C_37
REMARK                            x       y       z     vdW  Elec       q    Type
REMARK                         _______ _______ _______ _____ _____    ______ ____
ROOT
ATOM      1  N   UNL     1       3.163  -3.820  -1.556  0.00  0.00    -0.284 N 
ATOM      2  C   UNL     1       2.652  -4.124  -2.903  0.00  0.00    +0.145 C 
ATOM      3  C   UNL     1       3.857  -4.261  -3.774  0.00  0.00    +0.072 A 
ATOM      4  C   UNL     1       3.991  -4.569  -5.201  0.00  0.00    +0.199 A 
ATOM      5  O   UNL     1       3.045  -4.594  -5.969  0.00  0.00    -0.287 OA
ATOM      6  C   UNL     1       5.386  -4.845  -5.622  0.00  0.00    +0.065 A 
ATOM      7  C   UNL     1       5.644  -5.355  -6.907  0.00  0.00    +0.016 A 
ATOM      8  C   UNL     1       6.911  -5.621  -7.305  0.00  0.00    +0.009 A 
ATOM      9  C   UNL     1       7.992  -5.386  -6.428  0.00  0.00    -0.014 A 
ATOM     10  C   UNL     1       9.311  -5.662  -6.824  0.00  0.00    +0.008 A 
ATOM     11  C   UNL     1      10.339  -5.425  -5.962  0.00  0.00    +0.001 A 
ATOM     12  C   UNL     1      10.103  -4.912  -4.690  0.00  0.00    +0.001 A 
ATOM     13  C   UNL     1       8.835  -4.635  -4.272  0.00  0.00    +0.012 A 
ATOM     14  C   UNL     1       7.754  -4.868  -5.135  0.00  0.00    +0.025 A 
ATOM     15  C   UNL     1       6.426  -4.593  -4.724  0.00  0.00    +0.147 A 
ATOM     16  O   UNL     1       6.213  -4.095  -3.488  0.00  0.00    -0.449 OA
ATOM     17  C   UNL     1       4.960  -4.048  -2.995  0.00  0.00    +0.199 A 
ATOM     18  C   UNL     1       4.509  -3.772  -1.621  0.00  0.00    +0.283 C 
ATOM     19  O   UNL     1       5.243  -3.539  -0.681  0.00  0.00    -0.267 OA
ENDROOT
BRANCH   2  20
ATOM     20  C   UNL     1       1.779  -2.998  -3.394  0.00  0.00    -0.019 A 
ATOM     21  C   UNL     1       2.141  -1.686  -3.151  0.00  0.00    +0.006 A 
ATOM     22  C   UNL     1       1.343  -0.651  -3.600  0.00  0.00    +0.004 A 
ATOM     23  C   UNL     1       0.179  -0.925  -4.294  0.00  0.00    +0.045 A 
ATOM     24  C   UNL     1      -0.186  -2.240  -4.539  0.00  0.00    +0.121 A 
ATOM     25  C   UNL     1       0.620  -3.277  -4.093  0.00  0.00    +0.051 A 
BRANCH  24  26
ATOM     26  O   UNL     1      -1.330  -2.513  -5.221  0.00  0.00    -0.488 OA
BRANCH  26  27
ATOM     27  C   UNL     1      -2.108  -1.396  -5.656  0.00  0.00    +0.256 C 
BRANCH  27  28
ATOM     28  C   UNL     1      -3.329  -1.889  -6.389  0.00  0.00    +0.006 C 
ATOM     29  C   UNL     1      -4.501  -1.361  -6.138  0.00  0.00    +0.007 C 
ENDBRANCH  27  28
ENDBRANCH  26  27
ENDBRANCH  24  26
ENDBRANCH   2  20
BRANCH   1  30
ATOM     30  C   UNL     1       2.350  -3.601  -0.357  0.00  0.00    +0.107 C 
BRANCH  30  31
ATOM     31  C   UNL     1       2.004  -2.115  -0.240  0.00  0.00    +0.000 C 
BRANCH  31  32
ATOM     32  C   UNL     1       1.155  -1.887   1.013  0.00  0.00    -0.077 C 
BRANCH  32  33
ATOM     33  N   UNL     1       0.823  -0.461   1.126  0.00  0.00    +0.379 N 
ATOM     34  H   UNL     1       1.671   0.085   1.109  0.00  0.00    -0.082 HD
BRANCH  33  36
ATOM     35  C   UNL     1      -0.264   1.445   0.037  0.00  0.00    -0.017 C 
ATOM     36  C   UNL     1      -0.034  -0.067  -0.001  0.00  0.00    -0.082 C 
ENDBRANCH  33  36
BRANCH  33  37
ATOM     37  C   UNL     1       0.111  -0.222   2.389  0.00  0.00    -0.082 C 
ATOM     38  C   UNL     1       1.053  -0.495   3.563  0.00  0.00    -0.017 C 
ENDBRANCH  33  37
ENDBRANCH  32  33
ENDBRANCH  31  32
ENDBRANCH  30  31
ENDBRANCH   1  30
TORSDOF 10
