REMARK  Name = ZINC44784647
REMARK  5 active torsions:
REMARK  status: ('A' for Active; 'I' for Inactive)
REMARK    1  A    between atoms: C_1  and  C_2
REMARK    2  A    between atoms: C_7  and  C_23
REMARK    3  A    between atoms: C_10  and  C_12
REMARK    4  A    between atoms: C_12  and  C_19
REMARK    5  A    between atoms: N_20  and  O_21
REMARK                            x       y       z     vdW  Elec       q    Type
REMARK                         _______ _______ _______ _____ _____    ______ ____
ROOT
ATOM      1  C   UNL     1       1.760  -0.493   3.221  0.00  0.00    +0.105 C 
ATOM      2  C   UNL     1       2.878  -1.465   2.792  0.00  0.00    +0.024 C 
ATOM      3  C   UNL     1       3.697  -0.805   1.716  0.00  0.00    +0.001 C 
ATOM      4  C   UNL     1       4.935  -0.080   2.278  0.00  0.00    +0.000 C 
ATOM      5  C   UNL     1       4.636   0.694   3.576  0.00  0.00    +0.000 C 
ATOM      6  C   UNL     1       3.321   1.425   3.520  0.00  0.00    +0.001 C 
ATOM      7  C   UNL     1       2.235   0.526   4.145  0.00  0.00    +0.024 C 
ENDROOT
BRANCH   1  15
ATOM      8  C   UNL     1       0.747   1.615  -0.232  0.00  0.00    +0.028 C 
ATOM      9  C   UNL     1      -0.153   1.939   0.962  0.00  0.00    +0.073 C 
ATOM     10  C   UNL     1      -0.023   3.424   1.315  0.00  0.00    +0.022 C 
ATOM     11  C   UNL     1      -0.815   3.712   2.593  0.00  0.00    +0.004 C 
ATOM     12  C   UNL     1      -0.241   2.888   3.748  0.00  0.00    +0.022 C 
ATOM     13  C   UNL     1      -0.374   1.397   3.422  0.00  0.00    +0.073 C 
ATOM     14  N   UNL     1       0.259   1.136   2.121  0.00  0.00    -0.295 N 
ATOM     15  C   UNL     1       1.201   0.181   1.995  0.00  0.00    +0.229 C 
ATOM     16  O   UNL     1       1.601  -0.135   0.894  0.00  0.00    -0.275 OA
ATOM     17  C   UNL     1      -1.855   1.016   3.357  0.00  0.00    +0.028 C 
ENDBRANCH   1  15
BRANCH   1  18
ATOM     18  C   UNL     1       0.661  -1.281   3.887  0.00  0.00    +0.147 C 
ATOM     19  N   UNL     1       0.395  -1.090   5.137  0.00  0.00    -0.076 NA
ATOM     20  N   UNL     1      -0.060  -2.204   3.163  0.00  0.00    -0.343 N 
ATOM     21  H   UNL     1       0.186  -2.401   2.246  0.00  0.00    +0.144 HD
ATOM     22  H   UNL     1      -0.815  -2.658   3.571  0.00  0.00    +0.144 HD
BRANCH  19  23
ATOM     23  O   UNL     1      -0.637  -1.831   5.762  0.00  0.00    -0.408 OA
ATOM     24  H   UNL     1      -0.762  -1.619   6.698  0.00  0.00    +0.328 HD
ENDBRANCH  19  23
ENDBRANCH   1  18
TORSDOF 3
