REMARK  Name = ZINC29253800
REMARK  7 active torsions:
REMARK  status: ('A' for Active; 'I' for Inactive)
REMARK    1  A    between atoms: C_1  and  C_2
REMARK    2  A    between atoms: C_2  and  C_3
REMARK    3  A    between atoms: C_3  and  C_4
REMARK    4  A    between atoms: C_4  and  C_6
REMARK    5  A    between atoms: C_4  and  O_24
REMARK    6  A    between atoms: C_8  and  O_23
REMARK    7  A    between atoms: C_11  and  O_12
REMARK                            x       y       z     vdW  Elec       q    Type
REMARK                         _______ _______ _______ _____ _____    ______ ____
ROOT
ATOM      1  C   UNL     1      -0.621   1.658   3.743  0.00  0.00    +0.026 A 
ATOM      2  C   UNL     1      -1.579   0.943   4.425  0.00  0.00    +0.056 A 
ATOM      3  C   UNL     1      -2.172   1.470   5.571  0.00  0.00    +0.129 A 
ATOM      4  C   UNL     1      -1.794   2.732   6.033  0.00  0.00    +0.078 A 
ATOM      5  C   UNL     1      -0.813   3.465   5.334  0.00  0.00    +0.078 A 
ATOM      6  C   UNL     1      -0.226   2.918   4.191  0.00  0.00    +0.134 A 
ATOM      7  C   UNL     1      -0.407   4.798   5.813  0.00  0.00    +0.198 C 
ATOM      8  O   UNL     1       0.439   5.429   5.210  0.00  0.00    -0.286 OA
ATOM      9  C   UNL     1      -1.030   5.366   7.027  0.00  0.00    +0.033 A 
ATOM     10  C   UNL     1      -0.653   6.625   7.486  0.00  0.00    +0.012 A 
ATOM     11  C   UNL     1      -1.241   7.149   8.623  0.00  0.00    +0.001 A 
ATOM     12  C   UNL     1      -2.204   6.430   9.309  0.00  0.00    +0.001 A 
ATOM     13  C   UNL     1      -2.591   5.178   8.866  0.00  0.00    +0.012 A 
ATOM     14  C   UNL     1      -2.009   4.635   7.724  0.00  0.00    +0.033 A 
ATOM     15  C   UNL     1      -2.415   3.298   7.243  0.00  0.00    +0.198 C 
ATOM     16  O   UNL     1      -3.261   2.665   7.846  0.00  0.00    -0.286 OA
ENDROOT
BRANCH   6  17
ATOM     17  O   UNL     1       0.723   3.613   3.516  0.00  0.00    -0.506 OA
ATOM     18  H   UNL     1       1.034   4.606   3.871  0.00  0.00    +0.292 HD
ENDBRANCH   6  17
BRANCH   3  19
ATOM     19  O   UNL     1      -3.115   0.757   6.237  0.00  0.00    -0.506 OA
ATOM     20  H   UNL     1      -3.583   1.174   7.141  0.00  0.00    +0.292 HD
ENDBRANCH   3  19
BRANCH   1  21
ATOM     21  C   UNL     1       0.011   1.072   2.506  0.00  0.00    +0.148 C 
BRANCH  21  22
ATOM     22  O   UNL     1      -0.070  -0.353   2.560  0.00  0.00    -0.387 OA
ATOM     23  H   UNL     1       0.407  -0.901   3.386  0.00  0.00    +0.210 HD
ENDBRANCH  21  22
BRANCH  21  24
ATOM     24  C   UNL     1      -0.729   1.579   1.267  0.00  0.00    +0.036 C 
BRANCH  24  26
ATOM     25  C   UNL     1      -0.753   1.593  -1.232  0.00  0.00    +0.004 C 
ATOM     26  C   UNL     1      -0.013   1.086   0.008  0.00  0.00    -0.001 C 
ENDBRANCH  24  26
ENDBRANCH  21  24
ENDBRANCH   1  21
TORSDOF 6
