REMARK  Name = ZINC40266950
REMARK  4 active torsions:
REMARK  status: ('A' for Active; 'I' for Inactive)
REMARK    1  A    between atoms: C_1  and  O_2
REMARK    2  A    between atoms: O_2  and  C_3
REMARK    3  A    between atoms: C_8  and  C_9
REMARK    4  A    between atoms: C_14  and  C_19
REMARK                            x       y       z     vdW  Elec       q    Type
REMARK                         _______ _______ _______ _____ _____    ______ ____
ROOT
ATOM      1  C   UNL     1       0.018  -2.829  -0.013  0.00  0.00    +0.141 C 
ATOM      2  C   UNL     1       0.512  -2.908  -1.443  0.00  0.00    +0.037 C 
ATOM      3  C   UNL     1       0.530  -3.942  -2.296  0.00  0.00    +0.019 C 
ATOM      4  C   UNL     1       1.054  -3.782  -3.714  0.00  0.00    +0.059 C 
ATOM      5  C   UNL     1       0.769  -2.369  -4.219  0.00  0.00    +0.032 C 
ATOM      6  C   UNL     1       1.491  -1.399  -3.275  0.00  0.00    +0.088 C 
ATOM      7  C   UNL     1       1.020  -1.651  -1.878  0.00  0.00    +0.163 C 
ATOM      8  O   UNL     1       1.072  -0.739  -1.077  0.00  0.00    -0.292 OA
ATOM      9  N   UNL     1       0.124  -5.210  -2.001  0.00  0.00    -0.297 N 
ATOM     10  C   UNL     1      -1.031  -5.483  -1.282  0.00  0.00    +0.208 A 
ATOM     11  C   UNL     1      -1.181  -4.968   0.072  0.00  0.00    +0.205 A 
ATOM     12  N   UNL     1      -2.298  -5.406   0.563  0.00  0.00    -0.032 NA
ATOM     13  O   UNL     1      -2.932  -6.176  -0.450  0.00  0.00    -0.239 OA
ATOM     14  N   UNL     1      -2.084  -6.167  -1.591  0.00  0.00    -0.032 NA
ATOM     15  N   UNL     1      -0.242  -4.105   0.628  0.00  0.00    -0.312 N 
ATOM     16  H   UNL     1       0.666  -5.954  -2.307  0.00  0.00    +0.153 HD
ATOM     17  H   UNL     1       0.231  -4.354   1.437  0.00  0.00    +0.149 HD
ENDROOT
BRANCH   5  18
ATOM     18  C   UNL     1       1.294  -2.209  -5.622  0.00  0.00    -0.043 A 
ATOM     19  C   UNL     1       2.640  -2.389  -5.881  0.00  0.00    +0.007 A 
ATOM     20  C   UNL     1       3.123  -2.243  -7.168  0.00  0.00    +0.038 A 
ATOM     21  C   UNL     1       2.257  -1.917  -8.198  0.00  0.00    +0.123 A 
ATOM     22  C   UNL     1       0.909  -1.737  -7.938  0.00  0.00    +0.038 A 
ATOM     23  C   UNL     1       0.428  -1.888  -6.651  0.00  0.00    +0.007 A 
ATOM     24  F   UNL     1       2.728  -1.773  -9.457  0.00  0.00    -0.205 F 
ENDBRANCH   5  18
BRANCH   1  30
ATOM     25  C   UNL     1      -1.671  -1.405   1.173  0.00  0.00    +0.125 A 
ATOM     26  C   UNL     1      -2.841  -0.659   1.183  0.00  0.00    +0.046 A 
ATOM     27  C   UNL     1      -3.592  -0.540   0.030  0.00  0.00    +0.004 A 
ATOM     28  C   UNL     1      -3.179  -1.162  -1.133  0.00  0.00    +0.001 A 
ATOM     29  C   UNL     1      -2.014  -1.906  -1.146  0.00  0.00    +0.009 A 
ATOM     30  C   UNL     1      -1.255  -2.023   0.003  0.00  0.00    +0.019 A 
BRANCH  25  32
ATOM     31  C   UNL     1      -1.418  -0.859   3.473  0.00  0.00    +0.277 C 
ATOM     32  O   UNL     1      -0.929  -1.523   2.306  0.00  0.00    -0.495 OA
ENDBRANCH  25  32
ENDBRANCH   1  30
TORSDOF 3
