REMARK  Name = ZINC61715947
REMARK  10 active torsions:
REMARK  status: ('A' for Active; 'I' for Inactive)
REMARK    1  A    between atoms: C_1  and  C_2
REMARK    2  A    between atoms: C_5  and  O_9
REMARK    3  A    between atoms: C_6  and  C_8
REMARK    4  A    between atoms: O_9  and  C_10
REMARK    5  A    between atoms: C_10  and  C_11
REMARK    6  A    between atoms: C_11  and  C_12
REMARK    7  A    between atoms: C_11  and  O_26
REMARK    8  A    between atoms: C_12  and  S_13
REMARK    9  A    between atoms: S_13  and  C_14
REMARK   10  A    between atoms: C_17  and  C_19
REMARK                            x       y       z     vdW  Elec       q    Type
REMARK                         _______ _______ _______ _____ _____    ______ ____
ROOT
ATOM      1  C   UNL     1       0.207  -6.973  -2.468  0.00  0.00    +0.113 C 
ENDROOT
BRANCH   1   2
ATOM      2  C   UNL     1       0.079  -6.289  -1.105  0.00  0.00    +0.162 C 
BRANCH   2   3
ATOM      3  O   UNL     1      -1.133  -6.705  -0.474  0.00  0.00    -0.388 OA
ATOM      4  H   UNL     1      -1.932  -6.492  -0.977  0.00  0.00    +0.210 HD
ENDBRANCH   2   3
BRANCH   2   5
ATOM      5  C   UNL     1       0.058  -4.771  -1.298  0.00  0.00    +0.261 C 
BRANCH   5   6
ATOM      6  O   UNL     1       0.057  -4.129  -0.021  0.00  0.00    -0.489 OA
BRANCH   6  11
ATOM      7  C   UNL     1      -0.018   1.503   0.010  0.00  0.00    +0.044 C 
ATOM      8  C   UNL     1       0.002  -0.004   0.002  0.00  0.00    -0.050 A 
ATOM      9  C   UNL     1       0.006  -0.688  -1.200  0.00  0.00    +0.007 A 
ATOM     10  C   UNL     1       0.024  -2.069  -1.210  0.00  0.00    +0.046 A 
ATOM     11  C   UNL     1       0.039  -2.770  -0.013  0.00  0.00    +0.124 A 
ATOM     12  C   UNL     1       0.036  -2.082   1.191  0.00  0.00    -0.009 A 
ATOM     13  C   UNL     1       0.023  -0.701   1.196  0.00  0.00    +0.010 A 
ATOM     14  C   UNL     1       0.052  -2.841   2.493  0.00  0.00    +0.047 C 
ENDBRANCH   6  11
ENDBRANCH   5   6
ENDBRANCH   2   5
ENDBRANCH   1   2
BRANCH   1  15
ATOM     15  S   UNL     1       0.231  -8.773  -2.240  0.00  0.00    -0.063 S 
BRANCH  15  16
ATOM     16  C   UNL     1       0.380  -9.408  -3.877  0.00  0.00    +0.278 A 
ATOM     17  N   UNL     1       0.459  -8.701  -4.980  0.00  0.00    -0.101 NA
ATOM     18  N   UNL     1       0.559  -9.492  -5.990  0.00  0.00    -0.106 NA
ATOM     19  C   UNL     1       0.548 -10.734  -5.572  0.00  0.00    +0.249 A 
ATOM     20  O   UNL     1       0.440 -10.707  -4.225  0.00  0.00    -0.411 OA
BRANCH  19  21
ATOM     21  C   UNL     1       0.641 -11.942  -6.418  0.00  0.00    +0.039 A 
ATOM     22  C   UNL     1       0.610 -13.210  -5.835  0.00  0.00    +0.014 A 
ATOM     23  C   UNL     1       0.698 -14.334  -6.630  0.00  0.00    +0.021 A 
ATOM     24  C   UNL     1       0.816 -14.206  -8.003  0.00  0.00    +0.041 A 
ATOM     25  C   UNL     1       0.848 -12.951  -8.588  0.00  0.00    +0.021 A 
ATOM     26  C   UNL     1       0.755 -11.820  -7.804  0.00  0.00    +0.014 A 
ATOM     27 CL   UNL     1       0.927 -15.626  -8.997  0.00  0.00    -0.084 Cl
ENDBRANCH  19  21
ENDBRANCH  15  16
ENDBRANCH   1  15
TORSDOF 8
