REMARK  Name = ZINC39449453
REMARK  4 active torsions:
REMARK  status: ('A' for Active; 'I' for Inactive)
REMARK    1  A    between atoms: C_4  and  O_32
REMARK    2  A    between atoms: C_5  and  C_7
REMARK    3  A    between atoms: C_20  and  C_23
REMARK    4  A    between atoms: C_28  and  O_29
REMARK                            x       y       z     vdW  Elec       q    Type
REMARK                         _______ _______ _______ _____ _____    ______ ____
ROOT
ATOM      1  C   UNL     1       1.039  -2.241   0.160  0.00  0.00    +0.004 A 
ATOM      2  C   UNL     1       0.309  -3.017   1.063  0.00  0.00    +0.025 A 
ATOM      3  C   UNL     1       0.418  -4.403   0.969  0.00  0.00    +0.068 A 
ATOM      4  C   UNL     1       1.252  -4.966  -0.024  0.00  0.00    +0.099 A 
ATOM      5  C   UNL     1       1.348  -6.429  -0.099  0.00  0.00    +0.082 A 
ATOM      6  C   UNL     1       0.629  -7.212   0.787  0.00  0.00    +0.122 A 
ATOM      7  N   UNL     1      -0.182  -6.633   1.755  0.00  0.00    -0.237 N 
ATOM      8  C   UNL     1      -0.312  -5.299   1.876  0.00  0.00    +0.271 A 
ATOM      9  O   UNL     1      -1.035  -4.835   2.739  0.00  0.00    -0.266 OA
ATOM     10 BR   UNL     1      -1.114  -7.732   2.914  0.00  0.00    +0.058 Br
ATOM     11  C   UNL     1       0.713  -8.620   0.707  0.00  0.00    +0.184 C 
ATOM     12  O   UNL     1       0.120  -9.305   1.516  0.00  0.00    -0.290 OA
ATOM     13  C   UNL     1       1.531  -9.281  -0.372  0.00  0.00    +0.108 C 
ATOM     14  C   UNL     1       2.697  -8.364  -0.758  0.00  0.00    +0.112 C 
ATOM     15  N   UNL     1       2.156  -7.027  -1.047  0.00  0.00    -0.333 N 
ATOM     16  N   UNL     1       1.926  -4.184  -0.859  0.00  0.00    -0.252 NA
ATOM     17  C   UNL     1       1.839  -2.874  -0.798  0.00  0.00    +0.120 A 
ATOM     18  H   UNL     1       2.361  -6.577  -1.881  0.00  0.00    +0.147 HD
ENDROOT
BRANCH   1  23
ATOM     19  C   UNL     1      -0.342   1.252   0.298  0.00  0.00    +0.001 A 
ATOM     20  C   UNL     1       0.820   2.005   0.309  0.00  0.00    +0.004 A 
ATOM     21  C   UNL     1       2.054   1.384   0.272  0.00  0.00    +0.046 A 
ATOM     22  C   UNL     1       2.135   0.002   0.224  0.00  0.00    +0.125 A 
ATOM     23  C   UNL     1       0.963  -0.762   0.212  0.00  0.00    +0.025 A 
ATOM     24  C   UNL     1      -0.277  -0.126   0.250  0.00  0.00    +0.012 A 
BRANCH  22  25
ATOM     25  O   UNL     1       3.347  -0.609   0.187  0.00  0.00    -0.506 OA
ATOM     26  H   UNL     1       3.710  -0.817   1.059  0.00  0.00    +0.292 HD
ENDBRANCH  22  25
ENDBRANCH   1  23
BRANCH  14  27
ATOM     27  C   UNL     1       3.678  -8.282   0.383  0.00  0.00    +0.014 A 
ATOM     28  C   UNL     1       3.699  -7.166   1.197  0.00  0.00    +0.009 A 
ATOM     29  C   UNL     1       4.599  -7.089   2.244  0.00  0.00    +0.001 A 
ATOM     30  C   UNL     1       5.480  -8.129   2.479  0.00  0.00    +0.004 A 
ATOM     31  C   UNL     1       5.462  -9.247   1.668  0.00  0.00    +0.046 A 
ATOM     32  C   UNL     1       4.556  -9.329   0.620  0.00  0.00    +0.122 A 
BRANCH  32  33
ATOM     33  O   UNL     1       4.534 -10.430  -0.175  0.00  0.00    -0.506 OA
ATOM     34  H   UNL     1       5.120 -10.374  -0.942  0.00  0.00    +0.292 HD
ENDBRANCH  32  33
ENDBRANCH  14  27
TORSDOF 4
