REMARK  Name = ZINC67059607
REMARK  8 active torsions:
REMARK  status: ('A' for Active; 'I' for Inactive)
REMARK    1  A    between atoms: C_1  and  C_2
REMARK    2  A    between atoms: C_6  and  C_7
REMARK    3  A    between atoms: N_9  and  N_10
REMARK    4  A    between atoms: N_13  and  C_14
REMARK    5  A    between atoms: C_14  and  C_15
REMARK    6  A    between atoms: C_20  and  N_21
REMARK    7  A    between atoms: N_21  and  C_22
REMARK    8  A    between atoms: N_21  and  C_23
REMARK                            x       y       z     vdW  Elec       q    Type
REMARK                         _______ _______ _______ _____ _____    ______ ____
ROOT
ATOM      1  N   UNL     1      -0.076  -0.693   5.485  0.00  0.00    -0.218 N 
ATOM      2  C   UNL     1       0.058  -1.678   6.395  0.00  0.00    +0.316 C 
ATOM      3  O   UNL     1       0.177  -1.404   7.574  0.00  0.00    -0.251 OA
ATOM      4  N   UNL     1       0.059  -2.966   5.999  0.00  0.00    -0.294 N 
ATOM      5  H   UNL     1      -0.077   0.234   5.770  0.00  0.00    +0.174 HD
ATOM      6  H   UNL     1      -0.036  -3.184   5.058  0.00  0.00    +0.151 HD
ENDROOT
BRANCH   1   9
ATOM      7  C   UNL     1      -0.347  -0.023   3.217  0.00  0.00    +0.267 C 
ATOM      8  O   UNL     1      -0.348   1.140   3.574  0.00  0.00    -0.268 OA
ATOM      9  N   UNL     1      -0.213  -1.008   4.127  0.00  0.00    -0.229 N 
ATOM     10  H   UNL     1      -0.212  -1.935   3.841  0.00  0.00    +0.173 HD
BRANCH   7  16
ATOM     11  C   UNL     1      -0.673   1.997   0.868  0.00  0.00    +0.045 C 
ATOM     12  C   UNL     1      -0.638   0.499   0.711  0.00  0.00    -0.031 A 
ATOM     13  C   UNL     1      -0.745  -0.110  -0.516  0.00  0.00    +0.011 A 
ATOM     14  C   UNL     1      -0.706  -1.464  -0.586  0.00  0.00    +0.046 A 
ATOM     15  S   UNL     1      -0.522  -1.953   1.011  0.00  0.00    -0.092 S 
ATOM     16  C   UNL     1      -0.490  -0.353   1.796  0.00  0.00    +0.078 A 
ENDBRANCH   7  16
ENDBRANCH   1   9
BRANCH   4  17
ATOM     17  C   UNL     1       0.204  -4.037   6.988  0.00  0.00    +0.144 C 
BRANCH  17  18
ATOM     18  C   UNL     1       0.175  -5.372   6.291  0.00  0.00    +0.008 A 
ATOM     19  C   UNL     1      -0.968  -6.152   6.317  0.00  0.00    +0.010 A 
ATOM     20  C   UNL     1      -0.951  -7.375   5.662  0.00  0.00    +0.018 A 
ATOM     21  C   UNL     1       0.197  -7.776   5.007  0.00  0.00    +0.084 A 
ATOM     22  N   UNL     1       1.273  -7.012   4.999  0.00  0.00    -0.349 N 
ATOM     23  C   UNL     1       1.294  -5.836   5.607  0.00  0.00    +0.103 A 
ATOM     24  H   UNL     1       2.066  -7.317   4.532  0.00  0.00    +0.167 HD
BRANCH  23  25
ATOM     25  N   UNL     1       2.447  -5.060   5.567  0.00  0.00    -0.323 N 
ATOM     26  C   UNL     1       3.451  -5.186   6.626  0.00  0.00    +0.130 C 
ATOM     27  C   UNL     1       2.657  -4.116   4.467  0.00  0.00    +0.130 C 
ENDBRANCH  23  25
ENDBRANCH  17  18
ENDBRANCH   4  17
TORSDOF 5
