REMARK  Name = ZINC20238878
REMARK  9 active torsions:
REMARK  status: ('A' for Active; 'I' for Inactive)
REMARK    1  A    between atoms: C_1  and  C_2
REMARK    2  A    between atoms: C_6  and  O_8
REMARK    3  A    between atoms: O_8  and  C_9
REMARK    4  A    between atoms: C_9  and  C_10
REMARK    5  A    between atoms: C_16  and  C_17
REMARK    6  A    between atoms: C_20  and  C_22
REMARK    7  A    between atoms: C_25  and  O_31
REMARK    8  A    between atoms: C_27  and  N_28
REMARK    9  A    between atoms: O_31  and  C_32
REMARK                            x       y       z     vdW  Elec       q    Type
REMARK                         _______ _______ _______ _____ _____    ______ ____
ROOT
ATOM      1  C   UNL     1       1.780  -4.959   3.605  0.00  0.00    +0.137 C 
ATOM      2  N   UNL     1       1.431  -4.317   4.683  0.00  0.00    -0.166 NA
ATOM      3  N   UNL     1       1.121  -4.988   5.846  0.00  0.00    -0.152 N 
ATOM      4  C   UNL     1       0.648  -4.399   7.038  0.00  0.00    +0.153 C 
ATOM      5  N   UNL     1       0.051  -3.235   7.077  0.00  0.00    -0.283 NA
ATOM      6  C   UNL     1       0.893  -5.231   8.246  0.00  0.00    +0.084 C 
ATOM      7  C   UNL     1       1.151  -4.662   9.485  0.00  0.00    +0.063 C 
ATOM      8  C   UNL     1       0.848  -6.698   8.057  0.00  0.00    +0.273 C 
ATOM      9  O   UNL     1       0.582  -7.443   8.987  0.00  0.00    -0.268 OA
ATOM     10  N   UNL     1       1.109  -7.189   6.828  0.00  0.00    -0.152 NA
ATOM     11  C   UNL     1       1.263  -6.359   5.828  0.00  0.00    +0.181 C 
ATOM     12  S   UNL     1       1.710  -6.663   4.139  0.00  0.00    -0.035 S 
ATOM     13  H   UNL     1      -0.084  -2.732   6.258  0.00  0.00    +0.188 HD
ENDROOT
BRANCH   7  14
ATOM     14  C   UNL     1       1.364  -3.279   9.591  0.00  0.00    +0.129 A 
ATOM     15  C   UNL     1       1.498  -2.564  10.774  0.00  0.00    +0.050 A 
ATOM     16  C   UNL     1       1.695  -1.231  10.418  0.00  0.00    +0.050 A 
ATOM     17  C   UNL     1       1.677  -1.173   9.040  0.00  0.00    +0.138 A 
ATOM     18  O   UNL     1       1.482  -2.413   8.561  0.00  0.00    -0.455 OA
BRANCH  17  19
ATOM     19  C   UNL     1       1.847   0.046   8.228  0.00  0.00    +0.048 A 
ATOM     20  C   UNL     1       1.094   1.189   8.512  0.00  0.00    +0.017 A 
ATOM     21  C   UNL     1       1.257   2.325   7.751  0.00  0.00    +0.046 A 
ATOM     22  C   UNL     1       2.168   2.337   6.702  0.00  0.00    +0.122 A 
ATOM     23  C   UNL     1       2.918   1.203   6.415  0.00  0.00    +0.079 A 
ATOM     24  C   UNL     1       2.767   0.064   7.175  0.00  0.00    +0.140 A 
BRANCH  24  25
ATOM     25  N   UNL     1       3.572  -1.142   6.873  0.00  0.00    +0.057 N 
ATOM     26  O   UNL     1       4.367  -1.125   5.962  0.00  0.00    -0.126 OA
ATOM     27  O   UNL     1       3.435  -2.142   7.537  0.00  0.00    -0.126 OA
ENDBRANCH  24  25
BRANCH  22  28
ATOM     28  O   UNL     1       2.325   3.459   5.954  0.00  0.00    -0.495 OA
ATOM     29  C   UNL     1       1.522   4.589   6.302  0.00  0.00    +0.277 C 
ENDBRANCH  22  28
ENDBRANCH  17  19
ENDBRANCH   7  14
BRANCH   1  30
ATOM     30  C   UNL     1       2.144  -4.406   2.251  0.00  0.00    +0.293 C 
BRANCH  30  31
ATOM     31  O   UNL     1       2.064  -2.980   2.281  0.00  0.00    -0.485 OA
BRANCH  31  37
ATOM     32  C   UNL     1       2.550   1.238  -0.126  0.00  0.00    +0.044 C 
ATOM     33  C   UNL     1       2.612  -0.267  -0.080  0.00  0.00    -0.047 A 
ATOM     34  C   UNL     1       2.974  -0.978  -1.209  0.00  0.00    +0.003 A 
ATOM     35  C   UNL     1       3.033  -2.359  -1.170  0.00  0.00    +0.004 A 
ATOM     36  C   UNL     1       2.728  -3.032  -0.003  0.00  0.00    +0.045 A 
ATOM     37  C   UNL     1       2.364  -2.321   1.131  0.00  0.00    +0.121 A 
ATOM     38  C   UNL     1       2.313  -0.934   1.091  0.00  0.00    +0.049 A 
ENDBRANCH  31  37
ENDBRANCH  30  31
ENDBRANCH   1  30
TORSDOF 7
