REMARK  Name = ZINC63617037
REMARK  12 active torsions:
REMARK  status: ('A' for Active; 'I' for Inactive)
REMARK    1  A    between atoms: C_1  and  C_2
REMARK    2  A    between atoms: C_2  and  C_3
REMARK    3  A    between atoms: C_2  and  C_4
REMARK    4  A    between atoms: C_7  and  N_10
REMARK    5  A    between atoms: C_11  and  C_13
REMARK    6  A    between atoms: C_13  and  C_15
REMARK    7  A    between atoms: C_13  and  N_23
REMARK    8  A    between atoms: C_18  and  O_21
REMARK    9  A    between atoms: O_21  and  C_22
REMARK   10  A    between atoms: N_23  and  C_24
REMARK   11  A    between atoms: C_25  and  C_27
REMARK   12  A    between atoms: C_27  and  C_28
REMARK                            x       y       z     vdW  Elec       q    Type
REMARK                         _______ _______ _______ _____ _____    ______ ____
ROOT
ATOM      1  C   UNL     1       2.754  -3.065   6.803  0.00  0.00    +0.192 C 
ENDROOT
BRANCH   1   2
ATOM      2  C   UNL     1       3.847  -4.019   6.398  0.00  0.00    -0.018 A 
ATOM      3  C   UNL     1       5.153  -3.776   6.781  0.00  0.00    +0.009 A 
ATOM      4  C   UNL     1       6.157  -4.649   6.410  0.00  0.00    +0.046 A 
ATOM      5  C   UNL     1       5.854  -5.771   5.653  0.00  0.00    +0.120 A 
ATOM      6  C   UNL     1       4.543  -6.013   5.270  0.00  0.00    +0.046 A 
ATOM      7  C   UNL     1       3.542  -5.140   5.647  0.00  0.00    +0.009 A 
BRANCH   5   8
ATOM      8  O   UNL     1       6.840  -6.632   5.286  0.00  0.00    -0.495 OA
ATOM      9  C   UNL     1       6.455  -7.766   4.507  0.00  0.00    +0.277 C 
ENDBRANCH   5   8
ENDBRANCH   1   2
BRANCH   1  11
ATOM     10  N   UNL     1       2.988  -1.658   4.782  0.00  0.00    -0.284 N 
ATOM     11  C   UNL     1       2.188  -2.397   5.576  0.00  0.00    +0.242 C 
ATOM     12  O   UNL     1       1.014  -2.526   5.302  0.00  0.00    -0.273 OA
ATOM     13  H   UNL     1       3.941  -1.616   4.958  0.00  0.00    +0.155 HD
BRANCH  10  17
ATOM     14  C   UNL     1       1.368   0.447   1.573  0.00  0.00    -0.045 A 
ATOM     15  C   UNL     1       0.644   0.309   2.743  0.00  0.00    +0.006 A 
ATOM     16  C   UNL     1       1.179  -0.389   3.809  0.00  0.00    +0.023 A 
ATOM     17  C   UNL     1       2.444  -0.952   3.704  0.00  0.00    +0.033 A 
ATOM     18  C   UNL     1       3.168  -0.811   2.527  0.00  0.00    +0.023 A 
ATOM     19  C   UNL     1       2.626  -0.116   1.464  0.00  0.00    +0.006 A 
BRANCH  14  21
ATOM     20  C   UNL     1      -0.522   0.542  -0.029  0.00  0.00    +0.012 C 
ATOM     21  C   UNL     1       0.782   1.209   0.412  0.00  0.00    +0.013 C 
ATOM     22  C   UNL     1       0.498   2.650   0.839  0.00  0.00    +0.012 C 
ENDBRANCH  14  21
ENDBRANCH  10  17
ENDBRANCH   1  11
BRANCH   1  23
ATOM     23  N   UNL     1       1.691  -3.803   7.491  0.00  0.00    -0.289 N 
ATOM     24  C   UNL     1       0.918  -4.816   6.769  0.00  0.00    +0.133 C 
ATOM     25  C   UNL     1       1.425  -3.549   8.788  0.00  0.00    +0.220 C 
ATOM     26  O   UNL     1       2.065  -2.710   9.385  0.00  0.00    -0.275 OA
BRANCH  25  27
ATOM     27  C   UNL     1       0.332  -4.308   9.495  0.00  0.00    +0.129 C 
BRANCH  27  28
ATOM     28  C   UNL     1       0.239  -3.839  10.924  0.00  0.00    -0.033 C 
ATOM     29  C   UNL     1      -0.598  -2.898  11.418  0.00  0.00    -0.001 A 
ATOM     30  C   UNL     1      -1.631  -2.062  10.797  0.00  0.00    +0.010 A 
ATOM     31  C   UNL     1      -2.321  -1.190  11.567  0.00  0.00    +0.001 A 
ATOM     32  C   UNL     1      -2.073  -1.065  12.941  0.00  0.00    +0.002 A 
ATOM     33  C   UNL     1      -1.140  -1.799  13.584  0.00  0.00    +0.026 A 
ATOM     34  C   UNL     1      -0.356  -2.748  12.871  0.00  0.00    +0.043 A 
ATOM     35  N   UNL     1       0.593  -3.564  13.260  0.00  0.00    -0.380 N 
ATOM     36  C   UNL     1       1.057  -4.330  12.097  0.00  0.00    +0.145 C 
ATOM     37  H   UNL     1       0.930  -3.651  14.165  0.00  0.00    +0.160 HD
ENDBRANCH  27  28
ENDBRANCH  25  27
ENDBRANCH   1  23
TORSDOF 8
