REMARK  Name = ZINC10408616
REMARK  11 active torsions:
REMARK  status: ('A' for Active; 'I' for Inactive)
REMARK    1  A    between atoms: C_1  and  C_2
REMARK    2  A    between atoms: C_2  and  N_3
REMARK    3  A    between atoms: C_4  and  C_26
REMARK    4  A    between atoms: C_7  and  S_8
REMARK    5  A    between atoms: S_8  and  C_9
REMARK    6  A    between atoms: C_9  and  C_10
REMARK    7  A    between atoms: C_23  and  C_25
REMARK    8  A    between atoms: C_29  and  C_32
REMARK    9  A    between atoms: C_32  and  C_33
REMARK   10  A    between atoms: C_32  and  C_34
REMARK   11  A    between atoms: C_32  and  C_35
REMARK                            x       y       z     vdW  Elec       q    Type
REMARK                         _______ _______ _______ _____ _____    ______ ____
ROOT
ATOM      1  S   UNL     1      -4.452   3.642  -1.774  0.00  0.00    -0.077 S 
ENDROOT
BRANCH   1   6
ATOM      2  N   UNL     1      -6.306   4.325  -3.754  0.00  0.00    -0.302 N 
ATOM      3  C   UNL     1      -6.264   4.590  -5.104  0.00  0.00    +0.165 A 
ATOM      4  N   UNL     1      -5.013   4.463  -5.482  0.00  0.00    -0.128 NA
ATOM      5  N   UNL     1      -4.280   4.147  -4.476  0.00  0.00    -0.122 NA
ATOM      6  C   UNL     1      -5.018   4.052  -3.392  0.00  0.00    +0.192 A 
BRANCH   3   7
ATOM      7  C   UNL     1      -7.411   4.945  -5.966  0.00  0.00    +0.019 A 
ATOM      8  C   UNL     1      -7.317   4.803  -7.351  0.00  0.00    +0.012 A 
ATOM      9  C   UNL     1      -8.393   5.133  -8.149  0.00  0.00    +0.005 A 
ATOM     10  C   UNL     1      -9.560   5.611  -7.580  0.00  0.00    -0.042 A 
ATOM     11  C   UNL     1      -9.658   5.758  -6.208  0.00  0.00    +0.005 A 
ATOM     12  C   UNL     1      -8.591   5.428  -5.398  0.00  0.00    +0.012 A 
BRANCH  10  13
ATOM     13  C   UNL     1     -10.729   5.974  -8.459  0.00  0.00    -0.013 C 
ATOM     14  C   UNL     1     -11.072   7.453  -8.267  0.00  0.00    +0.015 C 
ATOM     15  C   UNL     1     -10.365   5.721  -9.923  0.00  0.00    +0.015 C 
ATOM     16  C   UNL     1     -11.938   5.117  -8.079  0.00  0.00    +0.015 C 
ENDBRANCH  10  13
ENDBRANCH   3   7
BRANCH   2  18
ATOM     17  C   UNL     1      -7.627   5.713  -2.234  0.00  0.00    +0.027 C 
ATOM     18  C   UNL     1      -7.486   4.336  -2.886  0.00  0.00    +0.122 C 
ENDBRANCH   2  18
ENDBRANCH   1   6
BRANCH   1  19
ATOM     19  C   UNL     1      -2.686   3.423  -2.106  0.00  0.00    +0.173 C 
BRANCH  19  20
ATOM     20  C   UNL     1      -1.977   3.057  -0.828  0.00  0.00    +0.230 C 
ATOM     21  O   UNL     1      -2.603   2.954   0.206  0.00  0.00    -0.274 OA
ATOM     22  N   UNL     1      -0.646   2.844  -0.833  0.00  0.00    -0.266 N 
ATOM     23  C   UNL     1       0.091   2.959  -2.018  0.00  0.00    +0.058 A 
ATOM     24  C   UNL     1      -0.007   1.992  -3.006  0.00  0.00    +0.025 A 
ATOM     25  C   UNL     1       0.758   2.101  -4.152  0.00  0.00    +0.002 A 
ATOM     26  C   UNL     1       1.620   3.170  -4.318  0.00  0.00    +0.002 A 
ATOM     27  C   UNL     1       1.714   4.146  -3.342  0.00  0.00    +0.025 A 
ATOM     28  C   UNL     1       0.944   4.049  -2.196  0.00  0.00    +0.055 A 
ATOM     29  N   UNL     1       1.001   5.036  -1.205  0.00  0.00    -0.284 N 
ATOM     30  C   UNL     1       1.160   4.698   0.094  0.00  0.00    +0.219 C 
ATOM     31  O   UNL     1       1.129   5.558   0.948  0.00  0.00    -0.275 OA
ATOM     32  C   UNL     1       1.375   3.260   0.488  0.00  0.00    +0.118 C 
ATOM     33  C   UNL     1       0.058   2.488   0.401  0.00  0.00    +0.087 C 
ATOM     34  C   UNL     1       0.348   0.986   0.404  0.00  0.00    +0.029 C 
ATOM     35  H   UNL     1       0.925   5.971  -1.452  0.00  0.00    +0.155 HD
ENDBRANCH  19  20
ENDBRANCH   1  19
TORSDOF 6
