REMARK  Name = ZINC46728934
REMARK  10 active torsions:
REMARK  status: ('A' for Active; 'I' for Inactive)
REMARK    1  A    between atoms: C_1  and  C_2
REMARK    2  A    between atoms: C_2  and  O_3
REMARK    3  A    between atoms: O_3  and  C_4
REMARK    4  A    between atoms: C_7  and  C_24
REMARK    5  A    between atoms: C_9  and  C_10
REMARK    6  A    between atoms: N_12  and  C_13
REMARK    7  A    between atoms: C_13  and  C_14
REMARK    8  A    between atoms: N_16  and  C_17
REMARK    9  A    between atoms: C_17  and  C_18
REMARK   10  A    between atoms: C_24  and  N_25
REMARK                            x       y       z     vdW  Elec       q    Type
REMARK                         _______ _______ _______ _____ _____    ______ ____
ROOT
ATOM      1  C   UNL     1      -1.498  -1.846   0.006  0.00  0.00    +0.133 A 
ATOM      2  C   UNL     1      -0.389  -2.679  -0.003  0.00  0.00    +0.047 A 
ATOM      3  C   UNL     1      -0.553  -4.049  -0.009  0.00  0.00    +0.009 A 
ATOM      4  C   UNL     1      -1.823  -4.604  -0.006  0.00  0.00    -0.029 A 
ATOM      5  C   UNL     1      -2.936  -3.791   0.003  0.00  0.00    +0.022 A 
ATOM      6  C   UNL     1      -2.784  -2.402   0.016  0.00  0.00    +0.079 A 
ENDROOT
BRANCH   6   7
ATOM      7  C   UNL     1      -3.971  -1.527   0.032  0.00  0.00    +0.248 C 
ATOM      8  O   UNL     1      -3.836  -0.319   0.037  0.00  0.00    -0.270 OA
ATOM      9  N   UNL     1      -5.207  -2.066   0.041  0.00  0.00    -0.303 N 
ATOM     10  H   UNL     1      -5.315  -3.030   0.036  0.00  0.00    +0.150 HD
BRANCH   9  11
ATOM     11  C   UNL     1      -6.385  -1.197   0.057  0.00  0.00    +0.200 C 
BRANCH  11  12
ATOM     12  C   UNL     1      -7.633  -2.042   0.064  0.00  0.00    +0.230 C 
ATOM     13  O   UNL     1      -7.546  -3.252   0.057  0.00  0.00    -0.274 OA
ATOM     14  N   UNL     1      -8.845  -1.454   0.079  0.00  0.00    -0.310 N 
ATOM     15  H   UNL     1      -8.915  -0.486   0.085  0.00  0.00    +0.149 HD
BRANCH  14  16
ATOM     16  C   UNL     1     -10.058  -2.276   0.086  0.00  0.00    +0.139 C 
BRANCH  16  17
ATOM     17  C   UNL     1     -11.271  -1.381   0.102  0.00  0.00    -0.030 A 
ATOM     18  C   UNL     1     -11.812  -0.973   1.307  0.00  0.00    +0.005 A 
ATOM     19  C   UNL     1     -12.925  -0.152   1.322  0.00  0.00    +0.000 A 
ATOM     20  C   UNL     1     -13.496   0.260   0.133  0.00  0.00    +0.000 A 
ATOM     21  C   UNL     1     -12.954  -0.147  -1.072  0.00  0.00    +0.000 A 
ATOM     22  C   UNL     1     -11.839  -0.964  -1.087  0.00  0.00    +0.005 A 
ENDBRANCH  16  17
ENDBRANCH  14  16
ENDBRANCH  11  12
ENDBRANCH   9  11
ENDBRANCH   6   7
BRANCH   1  23
ATOM     23  O   UNL     1      -1.339  -0.499   0.012  0.00  0.00    -0.491 OA
BRANCH  23  25
ATOM     24  C   UNL     1      -0.019   1.526   0.010  0.00  0.00    +0.048 C 
ATOM     25  C   UNL     1       0.002  -0.004   0.002  0.00  0.00    +0.226 C 
ENDBRANCH  23  25
ENDBRANCH   1  23
BRANCH   4  26
ATOM     26  C   UNL     1      -1.987  -6.101  -0.014  0.00  0.00    +0.152 C 
BRANCH  26  27
ATOM     27  N   UNL     1      -2.034  -6.595   1.364  0.00  0.00    -0.230 N 
ATOM     28  C   UNL     1      -0.955  -6.967   2.077  0.00  0.00    +0.254 C 
ATOM     29  O   UNL     1       0.194  -6.948   1.685  0.00  0.00    -0.270 OA
ATOM     30  C   UNL     1      -1.403  -7.403   3.416  0.00  0.00    +0.049 A 
ATOM     31  C   UNL     1      -0.755  -7.880   4.545  0.00  0.00    +0.014 A 
ATOM     32  C   UNL     1      -1.492  -8.208   5.672  0.00  0.00    +0.001 A 
ATOM     33  C   UNL     1      -2.867  -8.063   5.678  0.00  0.00    +0.001 A 
ATOM     34  C   UNL     1      -3.528  -7.588   4.556  0.00  0.00    +0.014 A 
ATOM     35  C   UNL     1      -2.804  -7.255   3.422  0.00  0.00    +0.049 A 
ATOM     36  C   UNL     1      -3.161  -6.730   2.087  0.00  0.00    +0.254 C 
ATOM     37  O   UNL     1      -4.283  -6.466   1.705  0.00  0.00    -0.270 OA
ENDBRANCH  26  27
ENDBRANCH   4  26
TORSDOF 9
