REMARK  Name = ZINC16212698
REMARK  3 active torsions:
REMARK  status: ('A' for Active; 'I' for Inactive)
REMARK    1  A    between atoms: C_6  and  C_7
REMARK    2  A    between atoms: C_7  and  N_8
REMARK    3  A    between atoms: C_12  and  C_13
REMARK                            x       y       z     vdW  Elec       q    Type
REMARK                         _______ _______ _______ _____ _____    ______ ____
ROOT
ATOM      1  N   UNL     1       5.048   2.716  -2.017  0.00  0.00    -0.217 N 
ATOM      2  C   UNL     1       5.293   4.029  -2.204  0.00  0.00    +0.259 C 
ATOM      3  O   UNL     1       4.825   4.864  -1.452  0.00  0.00    -0.269 OA
ATOM      4  C   UNL     1       6.141   4.425  -3.341  0.00  0.00    +0.100 C 
ATOM      5  C   UNL     1       6.436   5.758  -3.595  0.00  0.00    +0.028 C 
ATOM      6  C   UNL     1       6.662   3.346  -4.197  0.00  0.00    +0.257 C 
ATOM      7  O   UNL     1       7.370   3.595  -5.155  0.00  0.00    -0.270 OA
ATOM      8  N   UNL     1       6.335   2.074  -3.890  0.00  0.00    -0.236 N 
ATOM      9  C   UNL     1       5.562   1.785  -2.834  0.00  0.00    +0.316 C 
ATOM     10  O   UNL     1       5.308   0.618  -2.609  0.00  0.00    -0.252 OA
ATOM     11  H   UNL     1       6.671   1.351  -4.444  0.00  0.00    +0.159 HD
ENDROOT
BRANCH   5  12
ATOM     12  C   UNL     1       6.086   6.749  -2.656  0.00  0.00    +0.001 A 
ATOM     13  C   UNL     1       6.273   6.699  -1.285  0.00  0.00    +0.091 A 
ATOM     14  N   UNL     1       5.812   7.832  -0.726  0.00  0.00    -0.360 N 
ATOM     15  H   UNL     1       5.835   8.027   0.224  0.00  0.00    +0.165 HD
ATOM     16  C   UNL     1       5.302   8.681  -1.688  0.00  0.00    +0.047 A 
ATOM     17  C   UNL     1       5.452   8.053  -2.935  0.00  0.00    +0.008 A 
ATOM     18  C   UNL     1       5.012   8.685  -4.093  0.00  0.00    +0.025 A 
ATOM     19  C   UNL     1       4.439   9.938  -4.013  0.00  0.00    +0.019 A 
ATOM     20  C   UNL     1       4.295  10.562  -2.783  0.00  0.00    +0.017 A 
ATOM     21  C   UNL     1       4.721   9.944  -1.627  0.00  0.00    +0.027 A 
ATOM     22 BR   UNL     1       3.846  10.805  -5.585  0.00  0.00    -0.050 Br
ENDBRANCH   5  12
BRANCH   1  23
ATOM     23  C   UNL     1       4.208   2.296  -0.893  0.00  0.00    +0.153 C 
BRANCH  23  29
ATOM     24  C   UNL     1       1.972   3.373  -1.209  0.00  0.00    +0.009 A 
ATOM     25  C   UNL     1       0.649   3.335  -1.611  0.00  0.00    +0.050 A 
ATOM     26  C   UNL     1       0.119   2.170  -2.139  0.00  0.00    +0.166 A 
ATOM     27  C   UNL     1       0.920   1.038  -2.264  0.00  0.00    +0.167 A 
ATOM     28  C   UNL     1       2.244   1.083  -1.859  0.00  0.00    +0.054 A 
ATOM     29  C   UNL     1       2.768   2.249  -1.333  0.00  0.00    -0.026 A 
ATOM     30  O   UNL     1       0.173   0.032  -2.805  0.00  0.00    -0.453 OA
ATOM     31  C   UNL     1      -1.198   0.435  -2.631  0.00  0.00    +0.466 C 
ATOM     32  O   UNL     1      -1.131   1.873  -2.603  0.00  0.00    -0.453 OA
ENDBRANCH  23  29
ENDBRANCH   1  23
TORSDOF 3
