REMARK  Name = ZINC39227631
REMARK  6 active torsions:
REMARK  status: ('A' for Active; 'I' for Inactive)
REMARK    1  A    between atoms: C_1  and  C_2
REMARK    2  A    between atoms: C_2  and  C_3
REMARK    3  A    between atoms: C_2  and  N_4
REMARK    4  A    between atoms: C_15  and  C_20
REMARK    5  A    between atoms: C_24  and  C_26
REMARK    6  A    between atoms: N_28  and  C_29
REMARK                            x       y       z     vdW  Elec       q    Type
REMARK                         _______ _______ _______ _____ _____    ______ ____
ROOT
ATOM      1  N   UNL     1      -1.393  -0.560   0.022  0.00  0.00    +0.381 N 
ATOM      2  C   UNL     1      -1.365  -2.028   0.016  0.00  0.00    -0.075 C 
ATOM      3  C   UNL     1      -2.794  -2.569   0.104  0.00  0.00    +0.030 C 
ATOM      4  C   UNL     1      -3.601  -2.064  -1.093  0.00  0.00    +0.114 C 
ATOM      5  C   UNL     1      -3.559  -0.534  -1.122  0.00  0.00    +0.030 C 
ATOM      6  C   UNL     1      -2.102  -0.070  -1.166  0.00  0.00    -0.075 C 
ATOM      7  C   UNL     1      -5.058  -2.529  -0.959  0.00  0.00    +0.127 C 
ATOM      8  C   UNL     1      -5.803  -2.021  -2.180  0.00  0.00    +0.170 C 
ATOM      9  O   UNL     1      -6.931  -1.582  -2.102  0.00  0.00    -0.292 OA
ATOM     10  C   UNL     1      -5.085  -2.089  -3.465  0.00  0.00    +0.060 A 
ATOM     11  C   UNL     1      -5.759  -1.879  -4.668  0.00  0.00    +0.023 A 
ATOM     12  C   UNL     1      -5.058  -1.943  -5.866  0.00  0.00    -0.017 A 
ATOM     13  C   UNL     1      -3.688  -2.216  -5.858  0.00  0.00    +0.012 A 
ATOM     14  C   UNL     1      -3.021  -2.425  -4.670  0.00  0.00    +0.047 A 
ATOM     15  C   UNL     1      -3.707  -2.367  -3.463  0.00  0.00    +0.132 A 
ATOM     16  O   UNL     1      -3.047  -2.582  -2.301  0.00  0.00    -0.485 OA
ATOM     17  H   UNL     1      -1.867  -0.238   0.852  0.00  0.00    -0.081 HD
ENDROOT
BRANCH  12  18
ATOM     18  C   UNL     1      -5.763  -1.722  -7.152  0.00  0.00    -0.017 A 
ATOM     19  C   UNL     1      -7.130  -1.445  -7.160  0.00  0.00    +0.008 A 
ATOM     20  C   UNL     1      -7.790  -1.239  -8.356  0.00  0.00    +0.001 A 
ATOM     21  C   UNL     1      -7.102  -1.307  -9.551  0.00  0.00    +0.013 A 
ATOM     22  C   UNL     1      -5.733  -1.584  -9.557  0.00  0.00    +0.038 A 
ATOM     23  C   UNL     1      -5.062  -1.786  -8.352  0.00  0.00    +0.021 A 
BRANCH  22  24
ATOM     24  C   UNL     1      -4.997  -1.656 -10.836  0.00  0.00    +0.248 C 
ATOM     25  O   UNL     1      -3.805  -1.897 -10.839  0.00  0.00    -0.270 OA
ATOM     26  N   UNL     1      -5.646  -1.455 -12.000  0.00  0.00    -0.281 N 
ATOM     27  H   UNL     1      -6.608  -1.328 -12.003  0.00  0.00    +0.155 HD
BRANCH  26  28
ATOM     28  C   UNL     1      -4.934  -1.429 -13.203  0.00  0.00    +0.037 A 
ATOM     29  C   UNL     1      -3.832  -2.254 -13.369  0.00  0.00    +0.023 A 
ATOM     30  C   UNL     1      -3.130  -2.226 -14.558  0.00  0.00    +0.002 A 
ATOM     31  C   UNL     1      -3.527  -1.376 -15.571  0.00  0.00    +0.004 A 
ATOM     32  C   UNL     1      -4.630  -0.547 -15.409  0.00  0.00    -0.042 A 
ATOM     33  C   UNL     1      -5.340  -0.578 -14.231  0.00  0.00    -0.023 A 
ATOM     34  C   UNL     1      -6.557   0.277 -13.995  0.00  0.00    +0.037 C 
ATOM     35  C   UNL     1      -6.610   1.426 -15.000  0.00  0.00    +0.005 C 
ATOM     36  C   UNL     1      -6.443   0.845 -16.409  0.00  0.00    +0.005 C 
ATOM     37  C   UNL     1      -4.999   0.359 -16.555  0.00  0.00    +0.035 C 
ENDBRANCH  26  28
ENDBRANCH  22  24
ENDBRANCH  12  18
BRANCH   1  39
ATOM     38  C   UNL     1      -0.043   1.483   0.032  0.00  0.00    -0.014 C 
ATOM     39  C   UNL     1      -0.017  -0.046   0.016  0.00  0.00    -0.075 C 
ATOM     40  C   UNL     1       0.724  -0.557   1.253  0.00  0.00    -0.014 C 
ENDBRANCH   1  39
TORSDOF 4
