REMARK  Name = ZINC35745956
REMARK  15 active torsions:
REMARK  status: ('A' for Active; 'I' for Inactive)
REMARK    1  A    between atoms: C_1  and  C_2
REMARK    2  A    between atoms: C_2  and  C_3
REMARK    3  A    between atoms: C_2  and  C_4
REMARK    4  A    between atoms: C_4  and  O_5
REMARK    5  A    between atoms: O_5  and  C_6
REMARK    6  A    between atoms: C_6  and  C_7
REMARK    7  A    between atoms: C_7  and  C_9
REMARK    8  A    between atoms: C_7  and  O_38
REMARK    9  A    between atoms: C_9  and  N_10
REMARK   10  A    between atoms: N_10  and  C_11
REMARK   11  A    between atoms: N_10  and  C_19
REMARK   12  A    between atoms: C_11  and  C_12
REMARK   13  A    between atoms: C_12  and  N_13
REMARK   14  A    between atoms: C_19  and  C_20
REMARK   15  A    between atoms: C_26  and  C_31
REMARK                            x       y       z     vdW  Elec       q    Type
REMARK                         _______ _______ _______ _____ _____    ______ ____
ROOT
ATOM      1  N   UNL     1      -3.599  -5.871  -0.249  0.00  0.00    +0.387 N 
ATOM      2  H   UNL     1      -2.942  -6.071  -0.988  0.00  0.00    -0.081 HD
ENDROOT
BRANCH   1   3
ATOM      3  C   UNL     1      -3.982  -4.454  -0.303  0.00  0.00    -0.044 C 
BRANCH   3   4
ATOM      4  C   UNL     1      -2.724  -3.584  -0.252  0.00  0.00    +0.124 C 
BRANCH   4   5
ATOM      5  O   UNL     1      -1.942  -3.809  -1.426  0.00  0.00    -0.391 OA
ATOM      6  H   UNL     1      -2.401  -3.600  -2.251  0.00  0.00    +0.210 HD
ENDBRANCH   4   5
BRANCH   4   7
ATOM      7  C   UNL     1      -3.127  -2.110  -0.183  0.00  0.00    +0.189 C 
BRANCH   7   8
ATOM      8  O   UNL     1      -1.958  -1.304  -0.018  0.00  0.00    -0.377 OA
BRANCH   8   9
ATOM      9  C   UNL     1      -2.224   0.098   0.058  0.00  0.00    +0.163 C 
BRANCH   9  11
ATOM     10  C   UNL     1      -1.179   2.364   0.190  0.00  0.00    +0.009 C 
ATOM     11  C   UNL     1      -0.908   0.858   0.233  0.00  0.00    +0.009 C 
ATOM     12  C   UNL     1      -0.282   0.491   1.579  0.00  0.00    +0.009 C 
ENDBRANCH   9  11
ENDBRANCH   8   9
ENDBRANCH   7   8
ENDBRANCH   4   7
ENDBRANCH   3   4
ENDBRANCH   1   3
BRANCH   1  13
ATOM     13  C   UNL     1      -2.978  -6.162   1.050  0.00  0.00    -0.063 C 
BRANCH  13  14
ATOM     14  C   UNL     1      -2.464  -7.603   1.060  0.00  0.00    +0.066 C 
BRANCH  14  15
ATOM     15  N   UNL     1      -1.737  -7.856   2.311  0.00  0.00    -0.300 NA
ATOM     16  C   UNL     1      -0.507  -7.053   2.377  0.00  0.00    +0.112 C 
ATOM     17  C   UNL     1       0.186  -7.301   3.719  0.00  0.00    +0.175 C 
ATOM     18  O   UNL     1       0.445  -8.700   3.864  0.00  0.00    -0.377 OA
ATOM     19  C   UNL     1      -0.731  -9.512   3.805  0.00  0.00    +0.175 C 
ATOM     20  C   UNL     1      -1.434  -9.286   2.464  0.00  0.00    +0.112 C 
ENDBRANCH  14  15
ENDBRANCH  13  14
ENDBRANCH   1  13
BRANCH   1  21
ATOM     21  C   UNL     1      -4.794  -6.708  -0.417  0.00  0.00    -0.003 C 
BRANCH  21  22
ATOM     22  C   UNL     1      -5.335  -6.536  -1.814  0.00  0.00    +0.094 A 
ATOM     23  N   UNL     1      -6.511  -7.124  -2.151  0.00  0.00    -0.312 N 
ATOM     24  H   UNL     1      -6.989  -7.647  -1.488  0.00  0.00    +0.170 HD
ATOM     25  C   UNL     1      -7.029  -6.995  -3.386  0.00  0.00    +0.260 A 
ATOM     26  O   UNL     1      -8.087  -7.529  -3.673  0.00  0.00    -0.267 OA
ATOM     27  C   UNL     1      -6.319  -6.221  -4.359  0.00  0.00    +0.080 A 
ATOM     28  C   UNL     1      -6.668  -5.936  -5.745  0.00  0.00    +0.004 A 
ATOM     29  C   UNL     1      -5.830  -5.168  -6.483  0.00  0.00    +0.056 A 
ATOM     30  S   UNL     1      -4.514  -4.782  -5.345  0.00  0.00    -0.076 S 
ATOM     31  C   UNL     1      -5.112  -5.651  -3.919  0.00  0.00    +0.116 A 
ATOM     32  N   UNL     1      -4.666  -5.820  -2.677  0.00  0.00    -0.229 NA
BRANCH  28  33
ATOM     33  C   UNL     1      -7.915  -6.476  -6.336  0.00  0.00    -0.016 A 
ATOM     34  C   UNL     1      -8.221  -7.830  -6.207  0.00  0.00    +0.010 A 
ATOM     35  C   UNL     1      -9.383  -8.328  -6.759  0.00  0.00    +0.020 A 
ATOM     36  C   UNL     1     -10.245  -7.485  -7.440  0.00  0.00    +0.041 A 
ATOM     37  C   UNL     1      -9.946  -6.140  -7.572  0.00  0.00    +0.020 A 
ATOM     38  C   UNL     1      -8.789  -5.631  -7.019  0.00  0.00    +0.010 A 
ATOM     39 CL   UNL     1     -11.706  -8.118  -8.132  0.00  0.00    -0.084 Cl
ENDBRANCH  28  33
ENDBRANCH  21  22
ENDBRANCH   1  21
TORSDOF 13
