REMARK  Name = ZINC62014164
REMARK  6 active torsions:
REMARK  status: ('A' for Active; 'I' for Inactive)
REMARK    1  A    between atoms: C_1  and  C_2
REMARK    2  A    between atoms: C_2  and  C_4
REMARK    3  A    between atoms: C_2  and  N_11
REMARK    4  A    between atoms: N_11  and  C_12
REMARK    5  A    between atoms: N_11  and  C_13
REMARK    6  A    between atoms: C_16  and  N_22
REMARK                            x       y       z     vdW  Elec       q    Type
REMARK                         _______ _______ _______ _____ _____    ______ ____
ROOT
ATOM      1  C   UNL     1       2.019  -1.129   0.902  0.00  0.00    +0.061 A 
ATOM      2  C   UNL     1       3.178  -0.423   0.815  0.00  0.00    +0.027 A 
ATOM      3  C   UNL     1       4.412  -1.034   0.586  0.00  0.00    +0.027 A 
ATOM      4  C   UNL     1       4.543  -2.379   0.434  0.00  0.00    +0.056 A 
ATOM      5  C   UNL     1       3.354  -3.234   0.510  0.00  0.00    +0.157 A 
ATOM      6  C   UNL     1       2.050  -2.588   0.758  0.00  0.00    +0.157 A 
ATOM      7  N   UNL     1       1.132  -3.523   0.795  0.00  0.00    -0.047 NA
ATOM      8  O   UNL     1       1.772  -4.771   0.587  0.00  0.00    -0.241 OA
ATOM      9  N   UNL     1       3.157  -4.525   0.407  0.00  0.00    -0.047 NA
ENDROOT
BRANCH   4  10
ATOM     10  N   UNL     1       5.801  -2.942   0.206  0.00  0.00    -0.356 N 
ATOM     11  H   UNL     1       6.585  -2.373   0.155  0.00  0.00    +0.142 HD
ATOM     12  H   UNL     1       5.890  -3.902   0.097  0.00  0.00    +0.142 HD
ENDBRANCH   4  10
BRANCH   1  13
ATOM     13  N   UNL     1       0.809  -0.470   1.132  0.00  0.00    -0.324 N 
ATOM     14  C   UNL     1       0.347  -0.244   2.504  0.00  0.00    +0.130 C 
BRANCH  13  16
ATOM     15  C   UNL     1      -0.051   1.525   0.008  0.00  0.00    +0.033 C 
ATOM     16  C   UNL     1       0.002  -0.004   0.001  0.00  0.00    +0.103 C 
BRANCH  16  17
ATOM     17  C   UNL     1      -1.395  -0.556   0.121  0.00  0.00    +0.008 A 
ATOM     18  C   UNL     1      -2.418   0.248   0.588  0.00  0.00    +0.008 A 
ATOM     19  C   UNL     1      -3.700  -0.258   0.698  0.00  0.00    +0.000 A 
ATOM     20  C   UNL     1      -3.960  -1.568   0.340  0.00  0.00    +0.003 A 
ATOM     21  C   UNL     1      -2.939  -2.373  -0.127  0.00  0.00    +0.039 A 
ATOM     22  C   UNL     1      -1.656  -1.866  -0.243  0.00  0.00    +0.128 A 
ATOM     23  F   UNL     1      -0.658  -2.651  -0.704  0.00  0.00    -0.205 F 
ENDBRANCH  16  17
ENDBRANCH  13  16
ENDBRANCH   1  13
TORSDOF 4
