REMARK  Name = ZINC28121231
REMARK  9 active torsions:
REMARK  status: ('A' for Active; 'I' for Inactive)
REMARK    1  A    between atoms: C_1  and  C_2
REMARK    2  A    between atoms: C_2  and  C_3
REMARK    3  A    between atoms: N_9  and  C_10
REMARK    4  A    between atoms: C_10  and  C_11
REMARK    5  A    between atoms: C_12  and  O_34
REMARK    6  A    between atoms: C_18  and  C_31
REMARK    7  A    between atoms: C_19  and  C_22
REMARK    8  A    between atoms: C_31  and  C_32
REMARK    9  A    between atoms: C_31  and  C_33
REMARK                            x       y       z     vdW  Elec       q    Type
REMARK                         _______ _______ _______ _____ _____    ______ ____
ROOT
ATOM      1  C   UNL     1       0.677  -0.691   0.011  0.00  0.00    +0.020 A 
ATOM      2  C   UNL     1      -0.547  -0.140   0.352  0.00  0.00    +0.122 A 
ATOM      3  C   UNL     1      -0.653   1.214   0.666  0.00  0.00    +0.046 A 
ATOM      4  C   UNL     1       0.453   2.015   0.641  0.00  0.00    +0.019 A 
ATOM      5  C   UNL     1       1.692   1.475   0.299  0.00  0.00    +0.065 A 
ATOM      6  C   UNL     1       1.810   0.110  -0.019  0.00  0.00    +0.144 A 
ATOM      7  O   UNL     1       3.009  -0.411  -0.349  0.00  0.00    -0.458 OA
ATOM      8  C   UNL     1       4.132   0.305  -0.396  0.00  0.00    +0.122 A 
ATOM      9  C   UNL     1       4.164   1.637  -0.112  0.00  0.00    +0.093 A 
ATOM     10  C   UNL     1       2.906   2.310   0.262  0.00  0.00    +0.202 A 
ATOM     11  O   UNL     1       2.873   3.499   0.527  0.00  0.00    -0.286 OA
ENDROOT
BRANCH   9  12
ATOM     12  C   UNL     1       5.431   2.391  -0.177  0.00  0.00    +0.116 A 
ATOM     13  N   UNL     1       6.649   1.942  -0.393  0.00  0.00    -0.239 NA
ATOM     14  C   UNL     1       7.725   2.754  -0.431  0.00  0.00    +0.079 A 
ATOM     15  C   UNL     1       9.077   2.403  -0.656  0.00  0.00    +0.029 A 
ATOM     16  C   UNL     1      10.052   3.351  -0.656  0.00  0.00    +0.002 A 
ATOM     17  C   UNL     1       9.765   4.691  -0.437  0.00  0.00    +0.001 A 
ATOM     18  C   UNL     1       8.456   5.076  -0.212  0.00  0.00    +0.017 A 
ATOM     19  C   UNL     1       7.464   4.127  -0.210  0.00  0.00    +0.040 A 
ATOM     20  S   UNL     1       5.704   4.146   0.025  0.00  0.00    -0.067 S 
ENDBRANCH   9  12
BRANCH   8  21
ATOM     21  C   UNL     1       5.416  -0.385  -0.778  0.00  0.00    +0.050 C 
ATOM     22  C   UNL     1       6.094  -0.934   0.478  0.00  0.00    +0.015 C 
ATOM     23  C   UNL     1       5.110  -1.536  -1.738  0.00  0.00    +0.015 C 
ENDBRANCH   8  21
BRANCH   2  24
ATOM     24  O   UNL     1      -1.654  -0.925   0.382  0.00  0.00    -0.506 OA
ATOM     25  H   UNL     1      -2.628  -0.493   0.652  0.00  0.00    +0.292 HD
ENDBRANCH   2  24
BRANCH   1  26
ATOM     26  C   UNL     1       0.777  -2.156  -0.327  0.00  0.00    -0.035 C 
BRANCH  26  32
ATOM     27  C   UNL     1       0.763  -3.745  -2.152  0.00  0.00    -0.068 C 
ATOM     28  C   UNL     1       0.683  -3.876  -3.675  0.00  0.00    -0.015 C 
ATOM     29  C   UNL     1      -0.685  -3.380  -4.154  0.00  0.00    -0.003 C 
ATOM     30  C   UNL     1      -0.881  -1.931  -3.700  0.00  0.00    -0.019 C 
ATOM     31  C   UNL     1      -0.756  -1.857  -2.176  0.00  0.00    -0.078 C 
ATOM     32  N   UNL     1       0.570  -2.341  -1.769  0.00  0.00    +0.384 N 
ATOM     33  H   UNL     1       1.323  -1.742  -2.301  0.00  0.00    -0.081 HD
BRANCH  27  35
ATOM     34  C   UNL     1       2.309  -5.703  -2.009  0.00  0.00    +0.002 C 
ATOM     35  C   UNL     1       2.135  -4.221  -1.672  0.00  0.00    -0.019 C 
ENDBRANCH  27  35
ENDBRANCH  26  32
ENDBRANCH   1  26
TORSDOF 6
