REMARK  Name = ZINC23637375
REMARK  9 active torsions:
REMARK  status: ('A' for Active; 'I' for Inactive)
REMARK    1  A    between atoms: C_1  and  C_2
REMARK    2  A    between atoms: C_2  and  C_4
REMARK    3  A    between atoms: C_2  and  O_16
REMARK    4  A    between atoms: N_9  and  C_10
REMARK    5  A    between atoms: O_16  and  C_17
REMARK    6  A    between atoms: C_17  and  C_19
REMARK    7  A    between atoms: C_23  and  S_25
REMARK    8  A    between atoms: S_25  and  N_28
REMARK    9  A    between atoms: N_28  and  C_29
REMARK                            x       y       z     vdW  Elec       q    Type
REMARK                         _______ _______ _______ _____ _____    ______ ____
ROOT
ATOM      1  C   UNL     1       8.688   1.051   1.050  0.00  0.00    +0.340 C 
ATOM      2  O   UNL     1       9.248   1.663   0.163  0.00  0.00    -0.245 OA
ENDROOT
BRANCH   1   3
ATOM      3  C   UNL     1       9.410  -0.006   1.787  0.00  0.00    +0.061 A 
ATOM      4  C   UNL     1       8.770  -0.712   2.808  0.00  0.00    +0.015 A 
ATOM      5  C   UNL     1       9.450  -1.698   3.492  0.00  0.00    +0.003 A 
ATOM      6  C   UNL     1      10.763  -1.989   3.168  0.00  0.00    +0.029 A 
ATOM      7  C   UNL     1      11.404  -1.294   2.158  0.00  0.00    +0.109 A 
ATOM      8  C   UNL     1      10.734  -0.308   1.462  0.00  0.00    +0.043 A 
BRANCH   7   9
ATOM      9  S   UNL     1      13.076  -1.673   1.754  0.00  0.00    +0.072 S 
ATOM     10  O   UNL     1      13.582  -0.559   1.031  0.00  0.00    -0.150 OA
ATOM     11  O   UNL     1      13.685  -2.147   2.947  0.00  0.00    -0.150 OA
BRANCH   9  12
ATOM     12  N   UNL     1      13.048  -2.949   0.698  0.00  0.00    -0.216 N 
ATOM     13  H   UNL     1      13.500  -3.910   0.985  0.00  0.00    +0.174 HD
BRANCH  12  14
ATOM     14  C   UNL     1      12.450  -2.804  -0.557  0.00  0.00    +0.048 A 
ATOM     15  C   UNL     1      11.218  -3.393  -0.813  0.00  0.00    +0.027 A 
ATOM     16  C   UNL     1      10.627  -3.244  -2.052  0.00  0.00    +0.040 A 
ATOM     17  C   UNL     1      11.266  -2.519  -3.043  0.00  0.00    +0.124 A 
ATOM     18  C   UNL     1      12.497  -1.936  -2.793  0.00  0.00    +0.040 A 
ATOM     19  C   UNL     1      13.090  -2.077  -1.553  0.00  0.00    +0.027 A 
ATOM     20  F   UNL     1      10.688  -2.380  -4.256  0.00  0.00    -0.205 F 
ENDBRANCH  12  14
ENDBRANCH   9  12
ENDBRANCH   7   9
ENDBRANCH   1   3
BRANCH   1  21
ATOM     21  O   UNL     1       7.409   1.337   1.362  0.00  0.00    -0.449 OA
BRANCH  21  23
ATOM     22  C   UNL     1       6.988   3.734   1.287  0.00  0.00    +0.062 C 
ATOM     23  C   UNL     1       6.763   2.387   0.597  0.00  0.00    +0.259 C 
BRANCH  23  24
ATOM     24  C   UNL     1       5.284   2.108   0.510  0.00  0.00    +0.261 C 
ATOM     25  O   UNL     1       4.808   1.173   1.115  0.00  0.00    -0.271 OA
ATOM     26  N   UNL     1       4.492   2.899  -0.241  0.00  0.00    -0.237 N 
ATOM     27  C   UNL     1       3.170   2.649  -0.319  0.00  0.00    +0.306 C 
ATOM     28  O   UNL     1       2.692   1.711   0.288  0.00  0.00    -0.252 OA
ATOM     29  N   UNL     1       2.378   3.440  -1.070  0.00  0.00    -0.296 N 
ATOM     30  H   UNL     1       4.925   3.748  -0.791  0.00  0.00    +0.159 HD
ATOM     31  H   UNL     1       2.811   4.289  -1.619  0.00  0.00    +0.151 HD
BRANCH  29  32
ATOM     32  C   UNL     1       0.941   3.169  -1.154  0.00  0.00    +0.074 C 
ATOM     33  C   UNL     1       0.227   3.827   0.029  0.00  0.00    +0.022 C 
ATOM     34  C   UNL     1      -1.274   3.543  -0.060  0.00  0.00    +0.002 C 
ATOM     35  C   UNL     1      -1.824   4.113  -1.368  0.00  0.00    +0.000 C 
ATOM     36  C   UNL     1      -1.111   3.455  -2.551  0.00  0.00    +0.002 C 
ATOM     37  C   UNL     1       0.390   3.739  -2.463  0.00  0.00    +0.022 C 
ENDBRANCH  29  32
ENDBRANCH  23  24
ENDBRANCH  21  23
ENDBRANCH   1  21
TORSDOF 8
