REMARK  Name = ZINC47147314
REMARK  7 active torsions:
REMARK  status: ('A' for Active; 'I' for Inactive)
REMARK    1  A    between atoms: C_1  and  O_2
REMARK    2  A    between atoms: O_2  and  C_3
REMARK    3  A    between atoms: C_5  and  C_12
REMARK    4  A    between atoms: C_7  and  O_10
REMARK    5  A    between atoms: C_8  and  O_9
REMARK    6  A    between atoms: O_10  and  C_11
REMARK    7  A    between atoms: N_28  and  C_31
REMARK                            x       y       z     vdW  Elec       q    Type
REMARK                         _______ _______ _______ _____ _____    ______ ____
ROOT
ATOM      1  C   UNL     1       2.462   0.340   4.203  0.00  0.00    +0.072 C 
ATOM      2  C   UNL     1       1.682   0.128   5.450  0.00  0.00    +0.033 A 
ATOM      3  C   UNL     1       2.132  -0.135   6.691  0.00  0.00    +0.088 A 
ATOM      4  N   UNL     1       1.152  -0.248   7.651  0.00  0.00    -0.311 N 
ATOM      5  H   UNL     1       1.396  -0.417   8.574  0.00  0.00    +0.170 HD
ATOM      6  C   UNL     1      -0.143  -0.124   7.309  0.00  0.00    +0.289 A 
ATOM      7  O   UNL     1      -1.125  -0.202   8.027  0.00  0.00    -0.260 OA
ATOM      8  S   UNL     1      -0.081   0.166   5.654  0.00  0.00    -0.030 S 
ATOM      9  S   UNL     1       3.864  -0.338   7.018  0.00  0.00    -0.093 S 
ATOM     10  C   UNL     1       4.671   0.378   5.551  0.00  0.00    +0.152 C 
ATOM     11  C   UNL     1       3.900  -0.008   4.284  0.00  0.00    +0.110 C 
ATOM     12  C   UNL     1       4.326  -1.420   4.030  0.00  0.00    +0.232 C 
ATOM     13  O   UNL     1       3.697  -2.280   3.454  0.00  0.00    -0.274 OA
ATOM     14  N   UNL     1       5.559  -1.539   4.577  0.00  0.00    -0.209 N 
ATOM     15  C   UNL     1       5.931  -0.476   5.322  0.00  0.00    +0.240 C 
ATOM     16  O   UNL     1       7.044  -0.242   5.740  0.00  0.00    -0.274 OA
ENDROOT
BRANCH  14  17
ATOM     17  C   UNL     1       6.380  -2.660   4.378  0.00  0.00    +0.044 A 
ATOM     18  C   UNL     1       5.940  -3.712   3.586  0.00  0.00    +0.027 A 
ATOM     19  C   UNL     1       6.748  -4.814   3.392  0.00  0.00    +0.040 A 
ATOM     20  C   UNL     1       7.997  -4.871   3.987  0.00  0.00    +0.124 A 
ATOM     21  C   UNL     1       8.438  -3.823   4.777  0.00  0.00    +0.040 A 
ATOM     22  C   UNL     1       7.634  -2.716   4.969  0.00  0.00    +0.027 A 
ATOM     23  F   UNL     1       8.787  -5.950   3.796  0.00  0.00    -0.205 F 
ENDBRANCH  14  17
BRANCH   1  26
ATOM     24  C   UNL     1       0.666  -2.460   2.409  0.00  0.00    +0.165 A 
ATOM     25  C   UNL     1       1.243  -1.697   3.413  0.00  0.00    +0.054 A 
ATOM     26  C   UNL     1       1.837  -0.486   3.109  0.00  0.00    -0.031 A 
ATOM     27  C   UNL     1       1.859  -0.031   1.804  0.00  0.00    +0.054 A 
ATOM     28  C   UNL     1       1.284  -0.788   0.794  0.00  0.00    +0.165 A 
ATOM     29  C   UNL     1       0.691  -2.009   1.095  0.00  0.00    +0.201 A 
BRANCH  24  31
ATOM     30  C   UNL     1       0.094  -4.051   4.081  0.00  0.00    +0.277 C 
ATOM     31  O   UNL     1       0.083  -3.651   2.709  0.00  0.00    -0.491 OA
ENDBRANCH  24  31
BRANCH  29  32
ATOM     32  O   UNL     1       0.131  -2.757   0.106  0.00  0.00    -0.501 OA
ATOM     33  H   UNL     1      -0.803  -2.563  -0.053  0.00  0.00    +0.292 HD
ENDBRANCH  29  32
BRANCH  28  34
ATOM     34  O   UNL     1       1.305  -0.339  -0.489  0.00  0.00    -0.491 OA
ATOM     35  C   UNL     1       1.936   0.921  -0.726  0.00  0.00    +0.277 C 
ENDBRANCH  28  34
ENDBRANCH   1  26
TORSDOF 5
