REMARK  Name = ZINC50122053
REMARK  5 active torsions:
REMARK  status: ('A' for Active; 'I' for Inactive)
REMARK    1  A    between atoms: C_1  and  C_2
REMARK    2  A    between atoms: C_2  and  C_3
REMARK    3  A    between atoms: C_2  and  N_4
REMARK    4  A    between atoms: C_7  and  C_10
REMARK    5  A    between atoms: C_13  and  C_16
REMARK                            x       y       z     vdW  Elec       q    Type
REMARK                         _______ _______ _______ _____ _____    ______ ____
ROOT
ATOM      1  N   UNL     1      -1.372  -0.511   0.012  0.00  0.00    -0.279 N 
ATOM      2  C   UNL     1      -2.291  -0.262   0.992  0.00  0.00    +0.160 C 
ATOM      3  N   UNL     1      -3.430  -0.818   0.776  0.00  0.00    -0.366 N 
ATOM      4  C   UNL     1      -3.348  -1.556  -0.494  0.00  0.00    +0.172 C 
ATOM      5  C   UNL     1      -1.929  -1.305  -0.968  0.00  0.00    +0.101 C 
ATOM      6  N   UNL     1      -1.367  -1.740  -2.047  0.00  0.00    -0.388 N 
ATOM      7  H   UNL     1      -0.444  -1.511  -2.240  0.00  0.00    +0.157 HD
ATOM      8  H   UNL     1      -1.867  -2.295  -2.664  0.00  0.00    +0.157 HD
ATOM      9  H   UNL     1      -4.210  -0.761   1.351  0.00  0.00    +0.161 HD
ENDROOT
BRANCH   4  10
ATOM     10  C   UNL     1      -4.337  -1.007  -1.490  0.00  0.00    -0.018 A 
ATOM     11  C   UNL     1      -4.557   0.357  -1.562  0.00  0.00    +0.007 A 
ATOM     12  C   UNL     1      -5.462   0.866  -2.471  0.00  0.00    +0.019 A 
ATOM     13  C   UNL     1      -6.155   0.000  -3.320  0.00  0.00    +0.052 A 
ATOM     14  C   UNL     1      -5.928  -1.375  -3.241  0.00  0.00    +0.019 A 
ATOM     15  C   UNL     1      -5.017  -1.870  -2.331  0.00  0.00    +0.007 A 
BRANCH  13  16
ATOM     16  C   UNL     1      -7.096   0.521  -4.265  0.00  0.00    +0.099 C 
ATOM     17  N   UNL     1      -7.842   0.935  -5.016  0.00  0.00    -0.191 NA
ENDBRANCH  13  16
ENDBRANCH   4  10
BRANCH   1  19
ATOM     18  C   UNL     1      -0.019   1.526   0.010  0.00  0.00    +0.028 C 
ATOM     19  C   UNL     1       0.002  -0.004   0.002  0.00  0.00    +0.075 C 
ATOM     20  C   UNL     1       0.742  -0.511   1.242  0.00  0.00    +0.028 C 
ENDBRANCH   1  19
TORSDOF 3
