REMARK  Name = ZINC63134395
REMARK  11 active torsions:
REMARK  status: ('A' for Active; 'I' for Inactive)
REMARK    1  A    between atoms: C_1  and  C_2
REMARK    2  A    between atoms: C_7  and  O_16
REMARK    3  A    between atoms: C_13  and  C_15
REMARK    4  A    between atoms: O_16  and  C_17
REMARK    5  A    between atoms: C_17  and  C_19
REMARK    6  A    between atoms: C_19  and  C_21
REMARK    7  A    between atoms: C_19  and  N_31
REMARK    8  A    between atoms: C_21  and  C_22
REMARK    9  A    between atoms: C_32  and  O_34
REMARK   10  A    between atoms: O_34  and  C_35
REMARK   11  A    between atoms: C_35  and  C_36
REMARK                            x       y       z     vdW  Elec       q    Type
REMARK                         _______ _______ _______ _____ _____    ______ ____
ROOT
ATOM      1  C   UNL     1      -7.436  -2.189  -1.326  0.00  0.00    +0.189 C 
ENDROOT
BRANCH   1   2
ATOM      2  N   UNL     1      -7.931  -1.999  -2.692  0.00  0.00    -0.268 N 
ATOM      3  C   UNL     1      -9.243  -1.780  -2.908  0.00  0.00    +0.401 C 
ATOM      4  O   UNL     1     -10.015  -1.740  -1.970  0.00  0.00    -0.226 OA
ATOM      5  H   UNL     1      -7.315  -2.031  -3.440  0.00  0.00    +0.153 HD
BRANCH   3   6
ATOM      6  O   UNL     1      -9.699  -1.605  -4.162  0.00  0.00    -0.446 OA
BRANCH   6   7
ATOM      7  C   UNL     1     -11.101  -1.377  -4.318  0.00  0.00    +0.269 C 
BRANCH   7   8
ATOM      8  C   UNL     1     -11.423  -1.205  -5.780  0.00  0.00    -0.010 A 
ATOM      9  C   UNL     1     -11.385   0.052  -6.353  0.00  0.00    +0.007 A 
ATOM     10  C   UNL     1     -11.680   0.210  -7.694  0.00  0.00    +0.000 A 
ATOM     11  C   UNL     1     -12.014  -0.890  -8.462  0.00  0.00    +0.000 A 
ATOM     12  C   UNL     1     -12.052  -2.148  -7.889  0.00  0.00    +0.000 A 
ATOM     13  C   UNL     1     -11.752  -2.306  -6.549  0.00  0.00    +0.007 A 
ENDBRANCH   7   8
ENDBRANCH   6   7
ENDBRANCH   3   6
ENDBRANCH   1   2
BRANCH   1  14
ATOM     14  C   UNL     1      -5.979  -1.809  -1.263  0.00  0.00    +0.333 C 
ATOM     15  O   UNL     1      -5.413  -1.418  -2.257  0.00  0.00    -0.248 OA
BRANCH  14  16
ATOM     16  O   UNL     1      -5.310  -1.903  -0.103  0.00  0.00    -0.424 OA
BRANCH  16  22
ATOM     17  C   UNL     1       0.638  -0.206  -1.332  0.00  0.00    +0.013 C 
ATOM     18  C   UNL     1       0.007  -0.021   0.049  0.00  0.00    +0.033 C 
ATOM     19  C   UNL     1      -1.426  -0.488   0.012  0.00  0.00    -0.001 A 
ATOM     20  C   UNL     1      -1.679  -1.849   0.104  0.00  0.00    +0.011 A 
ATOM     21  C   UNL     1      -2.973  -2.324   0.068  0.00  0.00    +0.047 A 
ATOM     22  C   UNL     1      -4.033  -1.438  -0.062  0.00  0.00    +0.135 A 
ATOM     23  C   UNL     1      -3.786  -0.078  -0.151  0.00  0.00    +0.093 A 
ATOM     24  C   UNL     1      -2.481   0.399  -0.111  0.00  0.00    +0.139 A 
ATOM     25  O   UNL     1      -2.283   1.744  -0.182  0.00  0.00    -0.425 OA
ATOM     26  C   UNL     1      -1.018   2.179  -0.346  0.00  0.00    +0.316 C 
ATOM     27  O   UNL     1      -0.757   3.100  -1.083  0.00  0.00    -0.250 OA
ATOM     28  C   UNL     1       0.059   1.460   0.438  0.00  0.00    +0.102 C 
ATOM     29  C   UNL     1      -0.201   1.613   1.938  0.00  0.00    +0.020 C 
ENDBRANCH  16  22
ENDBRANCH  14  16
ENDBRANCH   1  14
BRANCH   1  30
ATOM     30  C   UNL     1      -7.597  -3.657  -0.925  0.00  0.00    +0.067 C 
BRANCH  30  31
ATOM     31  C   UNL     1      -9.062  -4.004  -0.869  0.00  0.00    -0.039 C 
ATOM     32  C   UNL     1      -9.802  -4.572  -1.849  0.00  0.00    -0.001 A 
ATOM     33  C   UNL     1      -9.475  -5.017  -3.209  0.00  0.00    +0.010 A 
ATOM     34  C   UNL     1     -10.451  -5.559  -3.973  0.00  0.00    +0.001 A 
ATOM     35  C   UNL     1     -11.762  -5.705  -3.501  0.00  0.00    +0.002 A 
ATOM     36  C   UNL     1     -12.138  -5.320  -2.263  0.00  0.00    +0.026 A 
ATOM     37  C   UNL     1     -11.194  -4.738  -1.373  0.00  0.00    +0.043 A 
ATOM     38  N   UNL     1     -11.310  -4.290  -0.146  0.00  0.00    -0.380 N 
ATOM     39  C   UNL     1     -10.003  -3.795   0.297  0.00  0.00    +0.144 C 
ATOM     40  H   UNL     1     -12.124  -4.290   0.381  0.00  0.00    +0.160 HD
ENDBRANCH  30  31
ENDBRANCH   1  30
TORSDOF 9
