REMARK  Name = ZINC12758598
REMARK  11 active torsions:
REMARK  status: ('A' for Active; 'I' for Inactive)
REMARK    1  A    between atoms: C_1  and  C_2
REMARK    2  A    between atoms: C_2  and  C_4
REMARK    3  A    between atoms: C_2  and  S_17
REMARK    4  A    between atoms: N_6  and  C_7
REMARK    5  A    between atoms: N_10  and  C_13
REMARK    6  A    between atoms: C_13  and  C_14
REMARK    7  A    between atoms: C_14  and  C_15
REMARK    8  A    between atoms: C_14  and  C_16
REMARK    9  A    between atoms: S_17  and  C_18
REMARK   10  A    between atoms: C_18  and  C_19
REMARK   11  A    between atoms: C_25  and  C_30
REMARK                            x       y       z     vdW  Elec       q    Type
REMARK                         _______ _______ _______ _____ _____    ______ ____
ROOT
ATOM      1  S   UNL     1       1.136  -0.672   1.102  0.00  0.00    -0.141 S 
ENDROOT
BRANCH   1   3
ATOM      2  C   UNL     1       0.380   1.364  -0.560  0.00  0.00    +0.029 C 
ATOM      3  C   UNL     1       0.271  -0.154  -0.405  0.00  0.00    +0.129 C 
BRANCH   3   4
ATOM      4  C   UNL     1      -1.181  -0.547  -0.311  0.00  0.00    +0.226 C 
ATOM      5  O   UNL     1      -1.701  -0.690   0.775  0.00  0.00    -0.275 OA
ATOM      6  N   UNL     1      -1.901  -0.739  -1.434  0.00  0.00    -0.312 N 
ATOM      7  H   UNL     1      -1.485  -0.625  -2.303  0.00  0.00    +0.149 HD
BRANCH   6   8
ATOM      8  C   UNL     1      -3.313  -1.121  -1.343  0.00  0.00    +0.069 C 
ATOM      9  C   UNL     1      -3.424  -2.641  -1.198  0.00  0.00    +0.003 C 
ATOM     10  C   UNL     1      -4.901  -3.040  -1.183  0.00  0.00    -0.077 C 
ATOM     11  N   UNL     1      -5.538  -2.619  -2.436  0.00  0.00    +0.380 N 
ATOM     12  C   UNL     1      -5.499  -1.156  -2.547  0.00  0.00    -0.077 C 
ATOM     13  C   UNL     1      -4.045  -0.684  -2.615  0.00  0.00    +0.003 C 
ATOM     14  H   UNL     1      -5.046  -3.027  -3.217  0.00  0.00    -0.082 HD
BRANCH  11  15
ATOM     15  C   UNL     1      -6.935  -3.072  -2.450  0.00  0.00    -0.076 C 
BRANCH  15  16
ATOM     16  C   UNL     1      -7.556  -2.768  -3.815  0.00  0.00    -0.034 C 
ATOM     17  C   UNL     1      -6.834  -3.574  -4.896  0.00  0.00    +0.005 C 
ATOM     18  C   UNL     1      -9.038  -3.150  -3.797  0.00  0.00    +0.005 C 
ENDBRANCH  15  16
ENDBRANCH  11  15
ENDBRANCH   6   8
ENDBRANCH   3   4
ENDBRANCH   1   3
BRANCH   1  19
ATOM     19  C   UNL     1       2.874  -0.271   0.771  0.00  0.00    +0.144 C 
BRANCH  19  20
ATOM     20  C   UNL     1       3.715  -0.657   1.961  0.00  0.00    +0.121 A 
ATOM     21  N   UNL     1       5.054  -0.438   1.931  0.00  0.00    -0.310 N 
ATOM     22  H   UNL     1       5.453  -0.036   1.143  0.00  0.00    +0.170 HD
ATOM     23  C   UNL     1       5.840  -0.767   2.972  0.00  0.00    +0.260 A 
ATOM     24  O   UNL     1       7.041  -0.564   2.930  0.00  0.00    -0.267 OA
ATOM     25  C   UNL     1       5.244  -1.359   4.131  0.00  0.00    +0.080 A 
ATOM     26  C   UNL     1       5.874  -1.798   5.371  0.00  0.00    +0.004 A 
ATOM     27  C   UNL     1       5.097  -2.336   6.342  0.00  0.00    +0.056 A 
ATOM     28  S   UNL     1       3.461  -2.284   5.637  0.00  0.00    -0.076 S 
ATOM     29  C   UNL     1       3.854  -1.547   4.071  0.00  0.00    +0.116 A 
ATOM     30  N   UNL     1       3.141  -1.190   3.006  0.00  0.00    -0.226 NA
BRANCH  26  31
ATOM     31  C   UNL     1       7.337  -1.657   5.565  0.00  0.00    -0.017 A 
ATOM     32  C   UNL     1       8.220  -2.111   4.587  0.00  0.00    +0.008 A 
ATOM     33  C   UNL     1       9.580  -1.978   4.773  0.00  0.00    +0.001 A 
ATOM     34  C   UNL     1      10.069  -1.394   5.928  0.00  0.00    +0.000 A 
ATOM     35  C   UNL     1       9.198  -0.942   6.903  0.00  0.00    +0.001 A 
ATOM     36  C   UNL     1       7.835  -1.065   6.725  0.00  0.00    +0.008 A 
ENDBRANCH  26  31
ENDBRANCH  19  20
ENDBRANCH   1  19
TORSDOF 8
