REMARK  Name = ZINC22278457
REMARK  3 active torsions:
REMARK  status: ('A' for Active; 'I' for Inactive)
REMARK    1  A    between atoms: C_11  and  C_29
REMARK    2  A    between atoms: C_14  and  C_16
REMARK    3  A    between atoms: C_16  and  N_17
REMARK                            x       y       z     vdW  Elec       q    Type
REMARK                         _______ _______ _______ _____ _____    ______ ____
ROOT
ATOM      1  C   UNL     1       2.548   3.846  -0.851  0.00  0.00    +0.002 A 
ATOM      2  C   UNL     1       3.532   3.531   0.068  0.00  0.00    +0.002 A 
ATOM      3  C   UNL     1       3.353   2.480   0.949  0.00  0.00    +0.025 A 
ATOM      4  C   UNL     1       2.182   1.741   0.912  0.00  0.00    +0.058 A 
ATOM      5  C   UNL     1       1.179   2.076   0.002  0.00  0.00    +0.055 A 
ATOM      6  C   UNL     1       1.371   3.121  -0.887  0.00  0.00    +0.025 A 
ATOM      7  N   UNL     1      -0.016   1.348   0.009  0.00  0.00    -0.284 N 
ATOM      8  C   UNL     1       0.002  -0.004   0.002  0.00  0.00    +0.219 C 
ATOM      9  O   UNL     1      -1.039  -0.621   0.086  0.00  0.00    -0.275 OA
ATOM     10  C   UNL     1       1.305  -0.750  -0.109  0.00  0.00    +0.128 C 
ATOM     11  C   UNL     1       2.056  -0.700   1.224  0.00  0.00    +0.194 C 
ATOM     12  N   UNL     1       1.996   0.654   1.776  0.00  0.00    -0.256 N 
ATOM     13  C   UNL     1       1.767   0.851   3.089  0.00  0.00    +0.240 C 
ATOM     14  O   UNL     1       1.608  -0.099   3.826  0.00  0.00    -0.273 OA
ATOM     15  H   UNL     1      -0.982   1.875   0.022  0.00  0.00    +0.155 HD
ENDROOT
BRANCH  11  16
ATOM     16  C   UNL     1       3.517  -1.094   0.999  0.00  0.00    +0.409 C 
ATOM     17  F   UNL     1       4.107  -0.202   0.097  0.00  0.00    -0.169 F 
ATOM     18  F   UNL     1       4.205  -1.048   2.217  0.00  0.00    -0.169 F 
ATOM     19  F   UNL     1       3.576  -2.391   0.479  0.00  0.00    -0.169 F 
ENDBRANCH  11  16
BRANCH  13  20
ATOM     20  C   UNL     1       1.709   2.252   3.642  0.00  0.00    +0.222 C 
BRANCH  20  21
ATOM     21  N   UNL     1       1.450   2.197   5.083  0.00  0.00    -0.290 N 
ATOM     22  C   UNL     1       2.492   2.139   5.953  0.00  0.00    +0.203 A 
ATOM     23  N   UNL     1       2.344   2.089   7.242  0.00  0.00    -0.237 NA
ATOM     24  C   UNL     1       1.116   2.091   7.817  0.00  0.00    +0.078 A 
ATOM     25  C   UNL     1       0.957   2.037   9.204  0.00  0.00    +0.029 A 
ATOM     26  C   UNL     1      -0.308   2.041   9.746  0.00  0.00    +0.017 A 
ATOM     27  C   UNL     1      -1.432   2.099   8.930  0.00  0.00    +0.019 A 
ATOM     28  C   UNL     1      -1.300   2.154   7.559  0.00  0.00    +0.030 A 
ATOM     29  C   UNL     1      -0.028   2.150   6.991  0.00  0.00    +0.066 A 
ATOM     30  C   UNL     1       0.174   2.212   5.536  0.00  0.00    +0.262 A 
ATOM     31  O   UNL     1      -0.769   2.269   4.768  0.00  0.00    -0.267 OA
ATOM     32 BR   UNL     1      -3.156   2.103   9.707  0.00  0.00    -0.050 Br
ENDBRANCH  20  21
ENDBRANCH  13  20
TORSDOF 3
