REMARK  Name = ZINC35446820
REMARK  7 active torsions:
REMARK  status: ('A' for Active; 'I' for Inactive)
REMARK    1  A    between atoms: C_1  and  C_2
REMARK    2  A    between atoms: C_2  and  O_3
REMARK    3  A    between atoms: O_3  and  C_4
REMARK    4  A    between atoms: C_4  and  C_6
REMARK    5  A    between atoms: C_9  and  C_12
REMARK    6  A    between atoms: C_12  and  N_13
REMARK    7  A    between atoms: C_30  and  C_34
REMARK                            x       y       z     vdW  Elec       q    Type
REMARK                         _______ _______ _______ _____ _____    ______ ____
ROOT
ATOM      1  N   UNL     1       3.373  -6.196   8.090  0.00  0.00    -0.299 N 
ATOM      2  C   UNL     1       2.691  -6.808   7.102  0.00  0.00    +0.302 C 
ATOM      3  O   UNL     1       2.100  -6.146   6.270  0.00  0.00    -0.253 OA
ATOM      4  N   UNL     1       2.663  -8.153   7.035  0.00  0.00    -0.285 N 
ATOM      5  C   UNL     1       2.027  -8.834   5.899  0.00  0.00    +0.112 C 
ATOM      6  C   UNL     1       0.995  -9.831   6.436  0.00  0.00    +0.051 C 
ATOM      7  C   UNL     1       1.669 -10.767   7.439  0.00  0.00    +0.075 C 
ATOM      8  C   UNL     1       2.224  -9.962   8.613  0.00  0.00    +0.051 C 
ATOM      9  C   UNL     1       3.275  -8.968   8.095  0.00  0.00    +0.112 C 
ATOM     10  C   UNL     1       0.671 -11.780   7.942  0.00  0.00    +0.047 A 
ATOM     11  C   UNL     1      -0.221 -11.678   8.934  0.00  0.00    +0.025 A 
ATOM     12  C   UNL     1      -0.933 -12.896   8.988  0.00  0.00    +0.020 A 
ATOM     13  C   UNL     1      -0.437 -13.701   8.022  0.00  0.00    +0.092 A 
ATOM     14  N   UNL     1       0.555 -13.035   7.385  0.00  0.00    -0.316 N 
ATOM     15  C   UNL     1       1.400 -13.451   6.345  0.00  0.00    +0.067 A 
ATOM     16  C   UNL     1       1.169 -14.620   5.646  0.00  0.00    +0.028 A 
ATOM     17  C   UNL     1       2.016 -14.981   4.613  0.00  0.00    +0.005 A 
ATOM     18  C   UNL     1       3.088 -14.174   4.280  0.00  0.00    -0.049 A 
ATOM     19  C   UNL     1       3.330 -13.007   4.981  0.00  0.00    +0.028 A 
ATOM     20  C   UNL     1       2.495 -12.642   6.025  0.00  0.00    +0.052 A 
ATOM     21  N   UNL     1       2.763 -11.493   6.778  0.00  0.00    -0.331 N 
ATOM     22  C   UNL     1       3.999 -14.569   3.146  0.00  0.00    +0.044 C 
ATOM     23  H   UNL     1       3.783  -6.722   8.794  0.00  0.00    +0.150 HD
ATOM     24  H   UNL     1       3.675 -11.174   6.865  0.00  0.00    +0.147 HD
ENDROOT
BRANCH   1  25
ATOM     25  C   UNL     1       3.494  -4.736   8.101  0.00  0.00    +0.109 C 
BRANCH  25  29
ATOM     26  C   UNL     1       4.595  -2.707  11.762  0.00  0.00    +0.098 C 
ATOM     27  C   UNL     1       5.359  -2.355  10.484  0.00  0.00    +0.015 C 
ATOM     28  C   UNL     1       4.543  -2.790   9.265  0.00  0.00    +0.006 C 
ATOM     29  C   UNL     1       4.310  -4.301   9.320  0.00  0.00    +0.006 C 
ATOM     30  C   UNL     1       3.546  -4.653  10.598  0.00  0.00    +0.006 C 
ATOM     31  C   UNL     1       4.362  -4.218  11.816  0.00  0.00    +0.015 C 
BRANCH  26  32
ATOM     32  C   UNL     1       5.398  -2.279  12.962  0.00  0.00    +0.310 C 
ATOM     33  O   UNL     1       5.749  -3.098  13.778  0.00  0.00    -0.251 OA
BRANCH  32  34
ATOM     34  O   UNL     1       5.725  -0.987  13.126  0.00  0.00    -0.465 OA
BRANCH  34  36
ATOM     35  C   UNL     1       6.761   0.853  14.300  0.00  0.00    +0.048 C 
ATOM     36  C   UNL     1       6.488  -0.652  14.286  0.00  0.00    +0.229 C 
ENDBRANCH  34  36
ENDBRANCH  32  34
ENDBRANCH  26  32
ENDBRANCH  25  29
ENDBRANCH   1  25
TORSDOF 5
