REMARK  Name = ZINC38592365
REMARK  8 active torsions:
REMARK  status: ('A' for Active; 'I' for Inactive)
REMARK    1  A    between atoms: C_1  and  C_2
REMARK    2  A    between atoms: C_2  and  C_3
REMARK    3  A    between atoms: N_9  and  C_10
REMARK    4  A    between atoms: C_10  and  C_11
REMARK    5  A    between atoms: N_13  and  C_14
REMARK    6  A    between atoms: C_22  and  C_24
REMARK    7  A    between atoms: C_24  and  O_26
REMARK    8  A    between atoms: O_26  and  C_27
REMARK                            x       y       z     vdW  Elec       q    Type
REMARK                         _______ _______ _______ _____ _____    ______ ____
ROOT
ATOM      1  C   UNL     1      -1.039   2.267  -3.340  0.00  0.00    +0.200 C 
ATOM      2  O   UNL     1      -1.274   1.450  -4.204  0.00  0.00    -0.278 OA
ATOM      3  N   UNL     1      -1.553   3.510  -3.429  0.00  0.00    -0.288 N 
ATOM      4  H   UNL     1      -1.403   4.149  -2.715  0.00  0.00    +0.155 HD
ENDROOT
BRANCH   3   5
ATOM      5  C   UNL     1      -2.283   3.868  -4.522  0.00  0.00    +0.053 C 
ATOM      6  C   UNL     1      -2.651   5.148  -4.898  0.00  0.00    +0.018 A 
ATOM      7  C   UNL     1      -2.415   6.418  -4.320  0.00  0.00    +0.011 A 
ATOM      8  C   UNL     1      -2.908   7.531  -4.918  0.00  0.00    +0.001 A 
ATOM      9  C   UNL     1      -3.651   7.460  -6.100  0.00  0.00    +0.002 A 
ATOM     10  C   UNL     1      -3.916   6.279  -6.709  0.00  0.00    +0.026 A 
ATOM     11  C   UNL     1      -3.433   5.069  -6.144  0.00  0.00    +0.045 A 
ATOM     12  N   UNL     1      -3.553   3.816  -6.534  0.00  0.00    -0.367 N 
ATOM     13  C   UNL     1      -2.852   2.950  -5.581  0.00  0.00    +0.234 C 
ATOM     14  H   UNL     1      -4.025   3.516  -7.326  0.00  0.00    +0.161 HD
BRANCH  13  15
ATOM     15  C   UNL     1      -3.821   1.978  -4.958  0.00  0.00    +0.335 C 
ATOM     16  O   UNL     1      -5.010   2.178  -5.035  0.00  0.00    -0.248 OA
BRANCH  15  17
ATOM     17  O   UNL     1      -3.363   0.890  -4.319  0.00  0.00    -0.466 OA
ATOM     18  C   UNL     1      -4.338   0.012  -3.752  0.00  0.00    +0.280 C 
ENDBRANCH  15  17
ENDBRANCH  13  15
ENDBRANCH   3   5
BRANCH   1  19
ATOM     19  C   UNL     1      -0.171   1.893  -2.166  0.00  0.00    +0.019 C 
BRANCH  19  25
ATOM     20  C   UNL     1       0.946   0.076  -1.073  0.00  0.00    -0.068 C 
ATOM     21  C   UNL     1       1.326  -1.403  -1.177  0.00  0.00    -0.015 C 
ATOM     22  C   UNL     1       2.256  -1.602  -2.377  0.00  0.00    -0.003 C 
ATOM     23  C   UNL     1       1.560  -1.091  -3.641  0.00  0.00    -0.019 C 
ATOM     24  C   UNL     1       1.171   0.376  -3.446  0.00  0.00    -0.078 C 
ATOM     25  N   UNL     1       0.261   0.496  -2.301  0.00  0.00    +0.387 N 
ATOM     26  H   UNL     1      -0.547  -0.090  -2.451  0.00  0.00    -0.081 HD
BRANCH  20  28
ATOM     27  C   UNL     1       0.756  -0.085   1.413  0.00  0.00    +0.002 C 
ATOM     28  C   UNL     1       0.016   0.280   0.125  0.00  0.00    -0.019 C 
ENDBRANCH  20  28
ENDBRANCH  19  25
ENDBRANCH   1  19
TORSDOF 6
