REMARK  Name = ZINC43620076
REMARK  7 active torsions:
REMARK  status: ('A' for Active; 'I' for Inactive)
REMARK    1  A    between atoms: C_4  and  C_7
REMARK    2  A    between atoms: C_7  and  O_41
REMARK    3  A    between atoms: N_10  and  C_19
REMARK    4  A    between atoms: C_19  and  C_20
REMARK    5  A    between atoms: C_23  and  C_28
REMARK    6  A    between atoms: N_30  and  C_31
REMARK    7  A    between atoms: C_31  and  C_32
REMARK                            x       y       z     vdW  Elec       q    Type
REMARK                         _______ _______ _______ _____ _____    ______ ____
ROOT
ATOM      1  C   UNL     1       6.823  -4.135   2.174  0.00  0.00    +0.003 A 
ATOM      2  C   UNL     1       7.936  -3.551   2.688  0.00  0.00    +0.020 A 
ATOM      3  C   UNL     1       8.299  -3.784   4.015  0.00  0.00    +0.020 A 
ATOM      4  C   UNL     1       7.503  -4.620   4.795  0.00  0.00    +0.101 A 
ATOM      5  C   UNL     1       6.350  -5.206   4.213  0.00  0.00    +0.261 A 
ATOM      6  O   UNL     1       5.637  -5.941   4.875  0.00  0.00    -0.267 OA
ATOM      7  N   UNL     1       6.042  -4.944   2.929  0.00  0.00    -0.327 N 
ATOM      8  H   UNL     1       5.251  -5.345   2.536  0.00  0.00    +0.169 HD
ENDROOT
BRANCH   4   9
ATOM      9  C   UNL     1       7.853  -4.890   6.198  0.00  0.00    +0.250 C 
ATOM     10  O   UNL     1       8.781  -4.300   6.718  0.00  0.00    -0.270 OA
ATOM     11  N   UNL     1       7.145  -5.791   6.908  0.00  0.00    -0.307 N 
ATOM     12  H   UNL     1       6.361  -6.208   6.517  0.00  0.00    +0.149 HD
BRANCH  11  13
ATOM     13  C   UNL     1       7.559  -6.139   8.269  0.00  0.00    +0.140 C 
BRANCH  13  14
ATOM     14  C   UNL     1       6.607  -7.160   8.838  0.00  0.00    -0.027 A 
ATOM     15  C   UNL     1       5.482  -6.746   9.527  0.00  0.00    +0.009 A 
ATOM     16  C   UNL     1       4.606  -7.679  10.050  0.00  0.00    +0.050 A 
ATOM     17  C   UNL     1       4.853  -9.032   9.884  0.00  0.00    +0.166 A 
ATOM     18  C   UNL     1       5.986  -9.449   9.190  0.00  0.00    +0.167 A 
ATOM     19  C   UNL     1       6.857  -8.509   8.664  0.00  0.00    +0.054 A 
ATOM     20  O   UNL     1       6.004 -10.814   9.164  0.00  0.00    -0.453 OA
ATOM     21  C   UNL     1       5.092 -11.230  10.197  0.00  0.00    +0.466 C 
ATOM     22  O   UNL     1       4.162 -10.135  10.293  0.00  0.00    -0.453 OA
ENDBRANCH  13  14
ENDBRANCH  11  13
ENDBRANCH   4   9
BRANCH   1  23
ATOM     23  C   UNL     1       6.447  -3.873   0.738  0.00  0.00    -0.024 C 
BRANCH  23  27
ATOM     24  C   UNL     1       3.508  -0.904  -0.101  0.00  0.00    +0.091 C 
ATOM     25  C   UNL     1       4.023  -1.070   1.332  0.00  0.00    +0.021 C 
ATOM     26  C   UNL     1       5.360  -1.813   1.305  0.00  0.00    -0.075 C 
ATOM     27  N   UNL     1       5.178  -3.134   0.692  0.00  0.00    +0.386 N 
ATOM     28  C   UNL     1       4.753  -2.981  -0.705  0.00  0.00    -0.062 C 
ATOM     29  C   UNL     1       3.392  -2.284  -0.754  0.00  0.00    +0.012 C 
ATOM     30  C   UNL     1       2.955  -2.121  -2.212  0.00  0.00    +0.005 C 
ATOM     31  C   UNL     1       2.846  -3.499  -2.868  0.00  0.00    +0.000 C 
ATOM     32  C   UNL     1       4.207  -4.197  -2.818  0.00  0.00    -0.002 C 
ATOM     33  C   UNL     1       4.644  -4.359  -1.360  0.00  0.00    -0.015 C 
ATOM     34  H   UNL     1       4.474  -3.646   1.202  0.00  0.00    -0.081 HD
BRANCH  24  38
ATOM     35  C   UNL     1      -0.330   0.970  -0.034  0.00  0.00    +0.000 A 
ATOM     36  C   UNL     1       0.814   1.742  -0.115  0.00  0.00    +0.000 A 
ATOM     37  C   UNL     1       2.056   1.135  -0.137  0.00  0.00    +0.006 A 
ATOM     38  C   UNL     1       2.154  -0.242  -0.076  0.00  0.00    -0.016 A 
ATOM     39  C   UNL     1       1.010  -1.014   0.006  0.00  0.00    +0.006 A 
ATOM     40  C   UNL     1      -0.232  -0.407   0.026  0.00  0.00    +0.000 A 
ENDBRANCH  24  38
BRANCH  24  41
ATOM     41  O   UNL     1       4.421  -0.096  -0.847  0.00  0.00    -0.384 OA
ATOM     42  H   UNL     1       4.544   0.793  -0.487  0.00  0.00    +0.211 HD
ENDBRANCH  24  41
ENDBRANCH  23  27
ENDBRANCH   1  23
TORSDOF 7
