REMARK  Name = ZINC36206024
REMARK  17 active torsions:
REMARK  status: ('A' for Active; 'I' for Inactive)
REMARK    1  A    between atoms: C_1  and  C_2
REMARK    2  A    between atoms: C_2  and  C_3
REMARK    3  A    between atoms: C_2  and  C_4
REMARK    4  A    between atoms: C_4  and  C_5
REMARK    5  A    between atoms: C_5  and  N_6
REMARK    6  A    between atoms: N_6  and  C_7
REMARK    7  A    between atoms: N_6  and  C_29
REMARK    8  A    between atoms: C_7  and  C_8
REMARK    9  A    between atoms: C_14  and  C_19
REMARK   10  A    between atoms: C_22  and  O_27
REMARK   11  A    between atoms: C_23  and  O_25
REMARK   12  A    between atoms: O_25  and  C_26
REMARK   13  A    between atoms: O_27  and  C_28
REMARK   14  A    between atoms: C_29  and  C_30
REMARK   15  A    between atoms: C_30  and  C_31
REMARK   16  A    between atoms: C_30  and  C_32
REMARK   17  A    between atoms: C_30  and  O_33
REMARK                            x       y       z     vdW  Elec       q    Type
REMARK                         _______ _______ _______ _____ _____    ______ ____
ROOT
ATOM      1  C   UNL     1      -2.157  -5.703   0.570  0.00  0.00    +0.094 A 
ATOM      2  N   UNL     1      -1.248  -6.676   0.835  0.00  0.00    -0.312 N 
ATOM      3  H   UNL     1      -0.302  -6.471   0.776  0.00  0.00    +0.170 HD
ATOM      4  C   UNL     1      -1.634  -7.918   1.180  0.00  0.00    +0.260 A 
ATOM      5  O   UNL     1      -0.805  -8.780   1.415  0.00  0.00    -0.267 OA
ATOM      6  C   UNL     1      -3.032  -8.212   1.265  0.00  0.00    +0.080 A 
ATOM      7  C   UNL     1      -3.692  -9.464   1.614  0.00  0.00    +0.004 A 
ATOM      8  C   UNL     1      -5.046  -9.505   1.630  0.00  0.00    +0.056 A 
ATOM      9  S   UNL     1      -5.514  -7.846   1.173  0.00  0.00    -0.076 S 
ATOM     10  C   UNL     1      -3.897  -7.144   0.974  0.00  0.00    +0.116 A 
ATOM     11  N   UNL     1      -3.440  -5.939   0.644  0.00  0.00    -0.229 NA
ENDROOT
BRANCH   7  12
ATOM     12  C   UNL     1      -2.896 -10.671   1.944  0.00  0.00    -0.013 A 
ATOM     13  C   UNL     1      -1.867 -11.081   1.098  0.00  0.00    +0.012 A 
ATOM     14  C   UNL     1      -1.127 -12.205   1.406  0.00  0.00    +0.050 A 
ATOM     15  C   UNL     1      -1.405 -12.927   2.557  0.00  0.00    +0.162 A 
ATOM     16  C   UNL     1      -2.431 -12.522   3.405  0.00  0.00    +0.162 A 
ATOM     17  C   UNL     1      -3.173 -11.393   3.104  0.00  0.00    +0.058 A 
BRANCH  16  18
ATOM     18  O   UNL     1      -2.702 -13.232   4.533  0.00  0.00    -0.491 OA
ATOM     19  C   UNL     1      -3.769 -12.759   5.357  0.00  0.00    +0.277 C 
ENDBRANCH  16  18
BRANCH  15  20
ATOM     20  O   UNL     1      -0.673 -14.034   2.856  0.00  0.00    -0.491 OA
ATOM     21  C   UNL     1       0.364 -14.394   1.941  0.00  0.00    +0.277 C 
ENDBRANCH  15  20
ENDBRANCH   7  12
BRANCH   1  22
ATOM     22  C   UNL     1      -1.679  -4.326   0.188  0.00  0.00    -0.003 C 
BRANCH  22  23
ATOM     23  N   UNL     1      -2.823  -3.406   0.138  0.00  0.00    +0.386 N 
ATOM     24  H   UNL     1      -3.650  -3.913  -0.139  0.00  0.00    -0.081 HD
BRANCH  23  25
ATOM     25  C   UNL     1      -2.553  -2.341  -0.837  0.00  0.00    -0.078 C 
BRANCH  25  26
ATOM     26  C   UNL     1      -3.803  -1.476  -1.007  0.00  0.00    -0.016 C 
BRANCH  26  28
ATOM     27  C   UNL     1      -4.770   0.490  -2.209  0.00  0.00    +0.007 C 
ATOM     28  C   UNL     1      -3.490  -0.304  -1.939  0.00  0.00    -0.019 C 
ATOM     29  C   UNL     1      -2.454   0.609  -1.280  0.00  0.00    +0.007 C 
ENDBRANCH  26  28
ENDBRANCH  25  26
ENDBRANCH  23  25
BRANCH  23  30
ATOM     30  C   UNL     1      -3.034  -2.813   1.465  0.00  0.00    -0.044 C 
BRANCH  30  31
ATOM     31  C   UNL     1      -4.469  -3.083   1.922  0.00  0.00    +0.046 C 
ATOM     32  C   UNL     1      -4.679  -2.495   3.319  0.00  0.00    +0.039 C 
ATOM     33  C   UNL     1      -5.447  -2.432   0.943  0.00  0.00    +0.039 C 
BRANCH  31  34
ATOM     34  O   UNL     1      -4.700  -4.493   1.959  0.00  0.00    -0.391 OA
ATOM     35  H   UNL     1      -5.608  -4.737   2.186  0.00  0.00    +0.210 HD
ENDBRANCH  31  34
ENDBRANCH  30  31
ENDBRANCH  23  30
ENDBRANCH  22  23
ENDBRANCH   1  22
TORSDOF 11
