REMARK  Name = ZINC34686422
REMARK  12 active torsions:
REMARK  status: ('A' for Active; 'I' for Inactive)
REMARK    1  A    between atoms: C_1  and  C_2
REMARK    2  A    between atoms: C_2  and  C_4
REMARK    3  A    between atoms: C_2  and  O_14
REMARK    4  A    between atoms: N_6  and  C_7
REMARK    5  A    between atoms: C_7  and  C_8
REMARK    6  A    between atoms: C_8  and  N_9
REMARK    7  A    between atoms: O_14  and  C_15
REMARK    8  A    between atoms: C_21  and  C_32
REMARK    9  A    between atoms: C_26  and  C_28
REMARK   10  A    between atoms: C_28  and  C_29
REMARK   11  A    between atoms: C_28  and  C_30
REMARK   12  A    between atoms: C_28  and  C_31
REMARK                            x       y       z     vdW  Elec       q    Type
REMARK                         _______ _______ _______ _____ _____    ______ ____
ROOT
ATOM      1  C   UNL     1       3.490   0.585   0.081  0.00  0.00    +0.122 A 
ATOM      2  C   UNL     1       4.551   0.569   0.976  0.00  0.00    +0.046 A 
ATOM      3  C   UNL     1       5.766   0.048   0.588  0.00  0.00    +0.007 A 
ATOM      4  C   UNL     1       5.940  -0.468  -0.692  0.00  0.00    -0.040 A 
ATOM      5  C   UNL     1       4.885  -0.462  -1.577  0.00  0.00    -0.016 A 
ATOM      6  C   UNL     1       3.661   0.065  -1.190  0.00  0.00    +0.051 A 
ATOM      7  C   UNL     1       4.997  -1.031  -2.969  0.00  0.00    +0.137 C 
ATOM      8  N   UNL     1       6.405  -1.296  -3.283  0.00  0.00    -0.290 N 
ATOM      9  C   UNL     1       7.217  -1.952  -2.244  0.00  0.00    +0.113 C 
ATOM     10  C   UNL     1       7.301  -1.006  -1.047  0.00  0.00    +0.054 C 
ATOM     11  C   UNL     1       6.934  -0.953  -4.474  0.00  0.00    +0.222 C 
ATOM     12  O   UNL     1       6.226  -0.486  -5.341  0.00  0.00    -0.275 OA
ENDROOT
BRANCH   7  13
ATOM     13  C   UNL     1       4.441  -0.042  -3.961  0.00  0.00    -0.020 A 
ATOM     14  C   UNL     1       5.119   1.136  -4.217  0.00  0.00    +0.006 A 
ATOM     15  C   UNL     1       4.610   2.043  -5.127  0.00  0.00    +0.003 A 
ATOM     16  C   UNL     1       3.422   1.775  -5.781  0.00  0.00    +0.038 A 
ATOM     17  C   UNL     1       2.742   0.597  -5.525  0.00  0.00    +0.124 A 
ATOM     18  C   UNL     1       3.256  -0.315  -4.619  0.00  0.00    +0.044 A 
ATOM     19  F   UNL     1       1.581   0.333  -6.164  0.00  0.00    -0.205 F 
ENDBRANCH   7  13
BRANCH  11  20
ATOM     20  C   UNL     1       8.406  -1.151  -4.730  0.00  0.00    +0.039 C 
ATOM     21  C   UNL     1       8.769  -0.572  -6.099  0.00  0.00    +0.020 C 
ATOM     22  C   UNL     1       9.213  -0.436  -3.644  0.00  0.00    +0.020 C 
ATOM     23  C   UNL     1       8.732  -2.646  -4.706  0.00  0.00    +0.020 C 
ENDBRANCH  11  20
BRANCH   1  24
ATOM     24  O   UNL     1       2.290   1.102   0.453  0.00  0.00    -0.480 OA
BRANCH  24  26
ATOM     25  C   UNL     1       2.693   3.103   1.747  0.00  0.00    +0.062 C 
ATOM     26  C   UNL     1       2.201   1.655   1.768  0.00  0.00    +0.255 C 
BRANCH  26  27
ATOM     27  C   UNL     1       0.768   1.618   2.232  0.00  0.00    +0.253 C 
ATOM     28  O   UNL     1      -0.105   1.248   1.476  0.00  0.00    -0.272 OA
ATOM     29  N   UNL     1       0.456   1.996   3.488  0.00  0.00    -0.314 N 
ATOM     30  H   UNL     1       1.154   2.292   4.092  0.00  0.00    +0.149 HD
BRANCH  29  31
ATOM     31  C   UNL     1      -0.937   1.961   3.939  0.00  0.00    +0.086 C 
BRANCH  31  32
ATOM     32  C   UNL     1      -1.015   2.437   5.391  0.00  0.00    -0.060 C 
BRANCH  32  33
ATOM     33  N   UNL     1      -2.413   2.401   5.843  0.00  0.00    +0.381 N 
ATOM     34  C   UNL     1      -2.880   0.996   5.953  0.00  0.00    -0.079 C 
ATOM     35  C   UNL     1      -4.077   1.095   6.932  0.00  0.00    -0.020 C 
ATOM     36  C   UNL     1      -3.608   2.166   7.944  0.00  0.00    -0.020 C 
ATOM     37  C   UNL     1      -2.522   2.970   7.204  0.00  0.00    -0.079 C 
ATOM     38  H   UNL     1      -2.999   2.915   5.203  0.00  0.00    -0.082 HD
ENDBRANCH  32  33
ENDBRANCH  31  32
ENDBRANCH  29  31
ENDBRANCH  26  27
ENDBRANCH  24  26
ENDBRANCH   1  24
TORSDOF 8
