REMARK  Name = ZINC11854594
REMARK  6 active torsions:
REMARK  status: ('A' for Active; 'I' for Inactive)
REMARK    1  A    between atoms: C_1  and  C_2
REMARK    2  A    between atoms: C_2  and  C_3
REMARK    3  A    between atoms: C_12  and  N_21
REMARK    4  A    between atoms: C_14  and  C_16
REMARK    5  A    between atoms: C_22  and  C_24
REMARK    6  A    between atoms: C_25  and  C_26
REMARK                            x       y       z     vdW  Elec       q    Type
REMARK                         _______ _______ _______ _____ _____    ______ ____
ROOT
ATOM      1  C   UNL     1      -7.468  -0.777  -0.956  0.00  0.00    +0.050 A 
ATOM      2  C   UNL     1      -8.489  -1.663  -1.138  0.00  0.00    +0.093 A 
ATOM      3  C   UNL     1      -8.207  -3.041  -1.099  0.00  0.00    +0.253 A 
ATOM      4  O   UNL     1      -9.095  -3.862  -1.257  0.00  0.00    -0.268 OA
ATOM      5  N   UNL     1      -6.934  -3.437  -0.888  0.00  0.00    -0.291 N 
ATOM      6  H   UNL     1      -6.715  -4.381  -0.861  0.00  0.00    +0.172 HD
ATOM      7  C   UNL     1      -5.959  -2.506  -0.708  0.00  0.00    +0.234 A 
ATOM      8  N   UNL     1      -6.229  -1.219  -0.746  0.00  0.00    -0.217 NA
ATOM      9  N   UNL     1      -4.659  -2.919  -0.488  0.00  0.00    -0.185 N 
ATOM     10  C   UNL     1      -3.579  -2.105  -0.297  0.00  0.00    +0.132 A 
ATOM     11  C   UNL     1      -2.491  -2.898  -0.123  0.00  0.00    +0.074 A 
ATOM     12  C   UNL     1      -2.919  -4.240  -0.199  0.00  0.00    +0.102 A 
ATOM     13  N   UNL     1      -4.217  -4.247  -0.422  0.00  0.00    -0.162 NA
ENDROOT
BRANCH  12  14
ATOM     14  C   UNL     1      -2.057  -5.433  -0.060  0.00  0.00    +0.039 A 
ATOM     15  C   UNL     1      -2.400  -6.757  -0.128  0.00  0.00    +0.018 A 
ATOM     16  C   UNL     1      -1.413  -7.706   0.034  0.00  0.00    +0.008 A 
ATOM     17  C   UNL     1      -0.136  -7.301   0.255  0.00  0.00    +0.046 A 
ATOM     18  S   UNL     1      -0.298  -5.523   0.232  0.00  0.00    -0.095 S 
ENDBRANCH  12  14
BRANCH  10  19
ATOM     19  N   UNL     1      -3.591  -0.713  -0.290  0.00  0.00    -0.267 N 
ATOM     20  C   UNL     1      -2.446  -0.031  -0.089  0.00  0.00    +0.242 C 
ATOM     21  O   UNL     1      -1.401  -0.632   0.086  0.00  0.00    -0.270 OA
ATOM     22  H   UNL     1      -4.423  -0.234  -0.429  0.00  0.00    +0.157 HD
BRANCH  20  23
ATOM     23  C   UNL     1      -2.458   1.431  -0.080  0.00  0.00    +0.068 C 
ATOM     24  C   UNL     1      -1.342   2.114   0.254  0.00  0.00    +0.013 C 
BRANCH  24  25
ATOM     25  C   UNL     1      -0.197   1.406   0.845  0.00  0.00    -0.021 A 
ATOM     26  C   UNL     1       1.094   1.623   0.349  0.00  0.00    +0.012 A 
ATOM     27  C   UNL     1       2.166   0.963   0.908  0.00  0.00    +0.050 A 
ATOM     28  C   UNL     1       1.971   0.081   1.963  0.00  0.00    +0.166 A 
ATOM     29  C   UNL     1       0.687  -0.141   2.462  0.00  0.00    +0.167 A 
ATOM     30  C   UNL     1      -0.393   0.517   1.908  0.00  0.00    +0.057 A 
ATOM     31  O   UNL     1       0.767  -1.041   3.486  0.00  0.00    -0.453 OA
ATOM     32  C   UNL     1       2.153  -1.056   3.876  0.00  0.00    +0.466 C 
ATOM     33  O   UNL     1       2.851  -0.681   2.674  0.00  0.00    -0.453 OA
ENDBRANCH  24  25
ENDBRANCH  20  23
ENDBRANCH  10  19
BRANCH   1  35
ATOM     34  C   UNL     1      -7.956   1.220   0.431  0.00  0.00    +0.010 C 
ATOM     35  C   UNL     1      -7.742   0.705  -0.994  0.00  0.00    +0.052 C 
ENDBRANCH   1  35
TORSDOF 5
