REMARK  Name = ZINC39597270
REMARK  9 active torsions:
REMARK  status: ('A' for Active; 'I' for Inactive)
REMARK    1  A    between atoms: C_1  and  C_2
REMARK    2  A    between atoms: C_2  and  C_4
REMARK    3  A    between atoms: C_2  and  O_29
REMARK    4  A    between atoms: C_8  and  C_17
REMARK    5  A    between atoms: N_19  and  C_20
REMARK    6  A    between atoms: C_20  and  C_21
REMARK    7  A    between atoms: C_26  and  O_27
REMARK    8  A    between atoms: O_27  and  C_28
REMARK    9  A    between atoms: O_29  and  C_30
REMARK                            x       y       z     vdW  Elec       q    Type
REMARK                         _______ _______ _______ _____ _____    ______ ____
ROOT
ATOM      1  C   UNL     1      -1.204  -0.485  -0.143  0.00  0.00    +0.256 C 
ATOM      2  O   UNL     1      -1.601  -0.912  -1.207  0.00  0.00    -0.272 OA
ATOM      3  N   UNL     1      -2.010  -0.513   0.937  0.00  0.00    -0.297 N 
ATOM      4  C   UNL     1      -1.681  -0.113   2.325  0.00  0.00    +0.121 C 
ATOM      5  C   UNL     1      -2.950   0.605   2.836  0.00  0.00    +0.100 C 
ATOM      6  C   UNL     1      -4.091   0.051   1.966  0.00  0.00    -0.004 C 
ATOM      7  C   UNL     1      -3.427  -0.943   1.003  0.00  0.00    +0.115 C 
ATOM      8  C   UNL     1      -5.120  -0.663   2.837  0.00  0.00    -0.010 C 
ATOM      9  C   UNL     1      -6.274  -1.154   1.958  0.00  0.00    -0.082 C 
ATOM     10  N   UNL     1      -6.891  -0.011   1.273  0.00  0.00    +0.379 N 
ATOM     11  C   UNL     1      -5.919   0.613   0.367  0.00  0.00    -0.082 C 
ATOM     12  C   UNL     1      -4.751   1.179   1.179  0.00  0.00    -0.010 C 
ATOM     13  H   UNL     1      -7.688  -0.329   0.742  0.00  0.00    -0.086 HD
ATOM     14  H   UNL     1      -7.194   0.665   1.958  0.00  0.00    -0.086 HD
ENDROOT
BRANCH   5  15
ATOM     15  C   UNL     1      -3.188   0.281   4.288  0.00  0.00    +0.218 C 
ATOM     16  O   UNL     1      -2.843  -0.793   4.734  0.00  0.00    -0.275 OA
ATOM     17  N   UNL     1      -3.785   1.183   5.091  0.00  0.00    -0.311 N 
ATOM     18  H   UNL     1      -4.062   2.042   4.734  0.00  0.00    +0.149 HD
BRANCH  17  19
ATOM     19  C   UNL     1      -4.017   0.868   6.503  0.00  0.00    +0.143 C 
BRANCH  19  20
ATOM     20  C   UNL     1      -4.694   2.035   7.174  0.00  0.00    +0.011 A 
ATOM     21  C   UNL     1      -3.952   2.922   7.931  0.00  0.00    +0.009 A 
ATOM     22  C   UNL     1      -4.572   3.993   8.547  0.00  0.00    +0.001 A 
ATOM     23  C   UNL     1      -5.935   4.180   8.408  0.00  0.00    +0.004 A 
ATOM     24  C   UNL     1      -6.681   3.296   7.652  0.00  0.00    +0.046 A 
ATOM     25  C   UNL     1      -6.060   2.224   7.028  0.00  0.00    +0.125 A 
BRANCH  25  26
ATOM     26  O   UNL     1      -6.791   1.356   6.279  0.00  0.00    -0.495 OA
ATOM     27  C   UNL     1      -8.192   1.612   6.172  0.00  0.00    +0.277 C 
ENDBRANCH  25  26
ENDBRANCH  19  20
ENDBRANCH  17  19
ENDBRANCH   5  15
BRANCH   1  29
ATOM     28  C   UNL     1       0.115   1.584   0.213  0.00  0.00    +0.062 C 
ATOM     29  C   UNL     1       0.190   0.075  -0.030  0.00  0.00    +0.256 C 
BRANCH  29  30
ATOM     30  O   UNL     1       0.905  -0.177  -1.241  0.00  0.00    -0.480 OA
BRANCH  30  31
ATOM     31  C   UNL     1       2.261  -0.231  -1.157  0.00  0.00    +0.122 A 
ATOM     32  C   UNL     1       2.894   0.055   0.043  0.00  0.00    +0.045 A 
ATOM     33  C   UNL     1       4.272  -0.001   0.126  0.00  0.00    +0.004 A 
ATOM     34  C   UNL     1       5.020  -0.340  -0.987  0.00  0.00    +0.000 A 
ATOM     35  C   UNL     1       4.390  -0.624  -2.185  0.00  0.00    +0.004 A 
ATOM     36  C   UNL     1       3.012  -0.576  -2.271  0.00  0.00    +0.045 A 
ENDBRANCH  30  31
ENDBRANCH  29  30
ENDBRANCH   1  29
TORSDOF 7
