REMARK  Name = ZINC16008899
REMARK  3 active torsions:
REMARK  status: ('A' for Active; 'I' for Inactive)
REMARK    1  A    between atoms: N_11  and  C_15
REMARK    2  A    between atoms: C_15  and  C_16
REMARK    3  A    between atoms: N_18  and  C_19
REMARK                            x       y       z     vdW  Elec       q    Type
REMARK                         _______ _______ _______ _____ _____    ______ ____
ROOT
ATOM      1  C   UNL     1      -5.030   1.739   0.062  0.00  0.00    +0.227 C 
ENDROOT
BRANCH   1  12
ATOM      2  C   UNL     1      -1.182  -0.650  -0.010  0.00  0.00    +0.002 A 
ATOM      3  C   UNL     1       0.002   0.027  -0.015  0.00  0.00    +0.009 A 
ATOM      4  C   UNL     1      -0.021   1.432   0.002  0.00  0.00    -0.014 A 
ATOM      5  C   UNL     1       1.142   2.221  -0.001  0.00  0.00    +0.009 A 
ATOM      6  C   UNL     1       1.038   3.580   0.017  0.00  0.00    +0.003 A 
ATOM      7  C   UNL     1      -0.211   4.215   0.040  0.00  0.00    +0.029 A 
ATOM      8  C   UNL     1      -1.337   3.478   0.043  0.00  0.00    +0.118 A 
ATOM      9  C   UNL     1      -1.273   2.080   0.030  0.00  0.00    +0.031 A 
ATOM     10  C   UNL     1      -2.483   1.389   0.030  0.00  0.00    +0.061 A 
ATOM     11  C   UNL     1      -2.410  -0.003   0.012  0.00  0.00    +0.025 A 
ATOM     12  N   UNL     1      -3.637   2.191   0.053  0.00  0.00    -0.194 N 
ATOM     13  S   UNL     1      -3.082   3.773   0.067  0.00  0.00    +0.076 S 
ATOM     14  O   UNL     1      -3.438   4.369  -1.173  0.00  0.00    -0.150 OA
ATOM     15  O   UNL     1      -3.410   4.336   1.330  0.00  0.00    -0.150 OA
ENDBRANCH   1  12
BRANCH   1  16
ATOM     16  C   UNL     1      -5.455   1.448   1.478  0.00  0.00    +0.236 C 
ATOM     17  O   UNL     1      -4.670   1.603   2.390  0.00  0.00    -0.274 OA
ATOM     18  N   UNL     1      -6.706   1.016   1.732  0.00  0.00    -0.283 N 
ATOM     19  H   UNL     1      -7.353   0.955   1.012  0.00  0.00    +0.155 HD
BRANCH  18  20
ATOM     20  C   UNL     1      -7.072   0.655   3.035  0.00  0.00    +0.051 A 
ATOM     21  C   UNL     1      -6.541   1.339   4.120  0.00  0.00    +0.073 A 
ATOM     22  C   UNL     1      -6.905   0.984   5.410  0.00  0.00    +0.164 A 
ATOM     23  C   UNL     1      -7.802  -0.058   5.615  0.00  0.00    +0.163 A 
ATOM     24  C   UNL     1      -8.329  -0.741   4.529  0.00  0.00    +0.066 A 
ATOM     25  C   UNL     1      -7.971  -0.383   3.243  0.00  0.00    +0.043 A 
ATOM     26 BR   UNL     1      -8.700  -1.311   1.765  0.00  0.00    -0.048 Br
ATOM     27  O   UNL     1      -8.174  -0.419   6.874  0.00  0.00    -0.485 OA
ATOM     28  C   UNL     1      -7.342   0.036   7.946  0.00  0.00    +0.270 C 
ATOM     29  C   UNL     1      -7.041   1.524   7.722  0.00  0.00    +0.270 C 
ATOM     30  O   UNL     1      -6.372   1.662   6.463  0.00  0.00    -0.485 OA
ENDBRANCH  18  20
ENDBRANCH   1  16
TORSDOF 3
