REMARK  Name = ZINC66149252
REMARK  8 active torsions:
REMARK  status: ('A' for Active; 'I' for Inactive)
REMARK    1  A    between atoms: C_1  and  C_2
REMARK    2  A    between atoms: N_8  and  C_9
REMARK    3  A    between atoms: C_9  and  C_10
REMARK    4  A    between atoms: C_10  and  C_11
REMARK    5  A    between atoms: C_11  and  N_12
REMARK    6  A    between atoms: N_15  and  C_16
REMARK    7  A    between atoms: N_15  and  C_17
REMARK    8  A    between atoms: N_20  and  C_23
REMARK                            x       y       z     vdW  Elec       q    Type
REMARK                         _______ _______ _______ _____ _____    ______ ____
ROOT
ATOM      1  N   UNL     1       4.842  -0.112   3.791  0.00  0.00    -0.299 N 
ATOM      2  C   UNL     1       6.101   0.302   4.036  0.00  0.00    +0.302 C 
ATOM      3  O   UNL     1       6.682   0.997   3.225  0.00  0.00    -0.253 OA
ATOM      4  N   UNL     1       6.717  -0.054   5.181  0.00  0.00    -0.286 N 
ATOM      5  C   UNL     1       6.017  -0.891   6.159  0.00  0.00    +0.134 C 
ATOM      6  H   UNL     1       4.379  -0.666   4.439  0.00  0.00    +0.150 HD
ENDROOT
BRANCH   4   7
ATOM      7  C   UNL     1       8.085   0.396   5.448  0.00  0.00    +0.074 C 
ATOM      8  C   UNL     1       8.999  -0.821   5.624  0.00  0.00    +0.004 C 
ATOM      9  C   UNL     1      10.409  -0.345   5.980  0.00  0.00    -0.077 C 
ATOM     10  N   UNL     1      10.369   0.423   7.230  0.00  0.00    +0.382 N 
ATOM     11  C   UNL     1       9.552   1.629   7.047  0.00  0.00    -0.077 C 
ATOM     12  C   UNL     1       8.109   1.230   6.732  0.00  0.00    +0.004 C 
ATOM     13  H   UNL     1       9.968  -0.145   7.961  0.00  0.00    -0.081 HD
BRANCH  10  14
ATOM     14  C   UNL     1      11.734   0.811   7.609  0.00  0.00    -0.064 C 
ATOM     15  C   UNL     1      12.584  -0.446   7.821  0.00  0.00    +0.013 C 
ATOM     16  C   UNL     1      13.981  -0.034   8.291  0.00  0.00    +0.158 C 
ATOM     17  O   UNL     1      13.871   0.735   9.491  0.00  0.00    -0.380 OA
ATOM     18  C   UNL     1      13.127   1.946   9.341  0.00  0.00    +0.158 C 
ATOM     19  C   UNL     1      11.695   1.614   8.913  0.00  0.00    +0.013 C 
ENDBRANCH  10  14
ENDBRANCH   4   7
BRANCH   1  20
ATOM     20  C   UNL     1       4.173   0.276   2.547  0.00  0.00    +0.104 C 
BRANCH  20  21
ATOM     21  C   UNL     1       2.764  -0.321   2.518  0.00  0.00    +0.000 C 
BRANCH  21  22
ATOM     22  C   UNL     1       2.066   0.083   1.218  0.00  0.00    -0.077 C 
BRANCH  22  29
ATOM     23  C   UNL     1      -0.019   1.526   0.010  0.00  0.00    -0.013 C 
ATOM     24  C   UNL     1       0.002  -0.004   0.002  0.00  0.00    -0.072 C 
ATOM     25  C   UNL     1      -1.434  -0.533   0.011  0.00  0.00    -0.016 C 
ATOM     26  C   UNL     1      -1.408  -2.064   0.003  0.00  0.00    -0.003 C 
ATOM     27  C   UNL     1      -0.600  -2.558   1.206  0.00  0.00    -0.019 C 
ATOM     28  C   UNL     1       0.805  -1.954   1.152  0.00  0.00    -0.078 C 
ATOM     29  N   UNL     1       0.713  -0.490   1.191  0.00  0.00    +0.381 N 
ATOM     30  H   UNL     1       0.213  -0.206   2.020  0.00  0.00    -0.081 HD
ENDBRANCH  22  29
ENDBRANCH  21  22
ENDBRANCH  20  21
ENDBRANCH   1  20
TORSDOF 6
