REMARK  Name = ZINC15841578
REMARK  7 active torsions:
REMARK  status: ('A' for Active; 'I' for Inactive)
REMARK    1  A    between atoms: C_1  and  C_2
REMARK    2  A    between atoms: C_2  and  C_3
REMARK    3  A    between atoms: C_3  and  C_23
REMARK    4  A    between atoms: N_15  and  C_20
REMARK    5  A    between atoms: C_20  and  C_21
REMARK    6  A    between atoms: C_20  and  C_22
REMARK    7  A    between atoms: C_23  and  C_24
REMARK                            x       y       z     vdW  Elec       q    Type
REMARK                         _______ _______ _______ _____ _____    ______ ____
ROOT
ATOM      1  C   UNL     1      -1.198  -2.740   2.371  0.00  0.00    +0.006 C 
ATOM      2  C   UNL     1      -1.607  -3.996   1.605  0.00  0.00    +0.047 C 
ATOM      3  C   UNL     1      -0.513  -4.411   0.658  0.00  0.00    -0.037 A 
ATOM      4  C   UNL     1      -0.277  -5.745   0.404  0.00  0.00    +0.004 A 
ATOM      5  C   UNL     1       0.705  -6.115  -0.499  0.00  0.00    +0.000 A 
ATOM      6  C   UNL     1       1.454  -5.153  -1.152  0.00  0.00    +0.001 A 
ATOM      7  C   UNL     1       1.234  -3.814  -0.900  0.00  0.00    +0.010 A 
ATOM      8  C   UNL     1       0.251  -3.436   0.014  0.00  0.00    +0.002 A 
ATOM      9  C   UNL     1       0.007  -2.013   0.315  0.00  0.00    +0.060 A 
ATOM     10  C   UNL     1      -0.703  -1.678   1.431  0.00  0.00    +0.048 A 
ATOM     11  C   UNL     1      -0.957  -0.316   1.695  0.00  0.00    +0.261 A 
ATOM     12  O   UNL     1      -1.605   0.010   2.673  0.00  0.00    -0.267 OA
ATOM     13  N   UNL     1      -0.479   0.622   0.852  0.00  0.00    -0.258 N 
ATOM     14  C   UNL     1       0.245   0.272  -0.226  0.00  0.00    +0.330 A 
ATOM     15  O   UNL     1       0.680   1.137  -0.962  0.00  0.00    -0.246 OA
ATOM     16  N   UNL     1       0.494  -1.022  -0.504  0.00  0.00    -0.307 N 
ATOM     17  H   UNL     1       1.020  -1.255  -1.285  0.00  0.00    +0.170 HD
ENDROOT
BRANCH  13  18
ATOM     18  C   UNL     1      -0.747   2.038   1.117  0.00  0.00    +0.089 C 
ATOM     19  C   UNL     1       0.578   2.782   1.298  0.00  0.00    +0.031 C 
ATOM     20  C   UNL     1      -1.514   2.641  -0.061  0.00  0.00    +0.031 C 
ENDBRANCH  13  18
BRANCH   1  22
ATOM     21  C   UNL     1      -3.480  -1.746   2.156  0.00  0.00    +0.005 C 
ATOM     22  C   UNL     1      -2.406  -2.206   3.143  0.00  0.00    +0.009 C 
ENDBRANCH   1  22
BRANCH   1  23
ATOM     23  C   UNL     1      -0.085  -3.095   3.360  0.00  0.00    +0.009 C 
ATOM     24  C   UNL     1      -0.615  -4.098   4.386  0.00  0.00    +0.005 C 
ENDBRANCH   1  23
TORSDOF 3
