REMARK  Name = ZINC03146091
REMARK  7 active torsions:
REMARK  status: ('A' for Active; 'I' for Inactive)
REMARK    1  A    between atoms: C_8  and  C_10
REMARK    2  A    between atoms: C_12  and  N_17
REMARK    3  A    between atoms: C_15  and  O_16
REMARK    4  A    between atoms: C_18  and  C_19
REMARK    5  A    between atoms: C_22  and  O_25
REMARK    6  A    between atoms: O_25  and  C_26
REMARK    7  A    between atoms: C_26  and  C_28
REMARK                            x       y       z     vdW  Elec       q    Type
REMARK                         _______ _______ _______ _____ _____    ______ ____
ROOT
ATOM      1  N   UNL     1       4.611   5.348  -0.027  0.00  0.00    -0.255 NA
ATOM      2  C   UNL     1       5.056   6.230  -0.876  0.00  0.00    +0.119 C 
ENDROOT
BRANCH   1   5
ATOM      3  C   UNL     1       1.567   3.313   0.046  0.00  0.00    +0.080 A 
ATOM      4  C   UNL     1       2.917   3.660   0.057  0.00  0.00    +0.044 A 
ATOM      5  C   UNL     1       3.287   5.001  -0.031  0.00  0.00    +0.065 A 
ATOM      6  C   UNL     1       2.304   5.992  -0.117  0.00  0.00    +0.031 A 
ATOM      7  C   UNL     1       0.969   5.648  -0.122  0.00  0.00    +0.048 A 
ATOM      8  C   UNL     1       0.591   4.315  -0.041  0.00  0.00    +0.129 A 
BRANCH   3  16
ATOM      9  C   UNL     1      -0.717  -2.196   0.362  0.00  0.00    +0.002 A 
ATOM     10  C   UNL     1       0.616  -2.575   0.415  0.00  0.00    +0.004 A 
ATOM     11  C   UNL     1       1.617  -1.626   0.374  0.00  0.00    +0.048 A 
ATOM     12  C   UNL     1       1.291  -0.282   0.278  0.00  0.00    +0.156 A 
ATOM     13  C   UNL     1      -0.058   0.107   0.224  0.00  0.00    +0.110 A 
ATOM     14  C   UNL     1      -1.060  -0.866   0.268  0.00  0.00    +0.031 A 
ATOM     15  N   UNL     1      -0.069   1.462   0.135  0.00  0.00    -0.209 NA
ATOM     16  C   UNL     1       1.167   1.894   0.132  0.00  0.00    +0.232 A 
ATOM     17  O   UNL     1       2.019   0.855   0.218  0.00  0.00    -0.435 OA
ENDBRANCH   3  16
BRANCH   8  18
ATOM     18  O   UNL     1      -0.725   3.982  -0.047  0.00  0.00    -0.506 OA
ATOM     19  H   UNL     1      -1.125   3.944   0.833  0.00  0.00    +0.292 HD
ENDBRANCH   8  18
ENDBRANCH   1   5
BRANCH   2  20
ATOM     20  C   UNL     1       6.479   6.603  -0.871  0.00  0.00    -0.007 A 
ATOM     21  C   UNL     1       7.355   6.016   0.047  0.00  0.00    +0.013 A 
ATOM     22  C   UNL     1       8.688   6.364   0.044  0.00  0.00    +0.047 A 
ATOM     23  C   UNL     1       9.160   7.305  -0.863  0.00  0.00    +0.132 A 
ATOM     24  C   UNL     1       8.292   7.896  -1.774  0.00  0.00    +0.047 A 
ATOM     25  C   UNL     1       6.959   7.551  -1.782  0.00  0.00    +0.013 A 
BRANCH  23  26
ATOM     26  O   UNL     1      10.474   7.649  -0.859  0.00  0.00    -0.422 OA
BRANCH  26  27
ATOM     27  C   UNL     1      10.779   8.894  -0.445  0.00  0.00    +0.346 C 
ATOM     28  O   UNL     1       9.910   9.616   0.002  0.00  0.00    -0.244 OA
BRANCH  27  29
ATOM     29  C   UNL     1      12.169   9.381  -0.534  0.00  0.00    +0.078 A 
ATOM     30  C   UNL     1      13.171   8.554  -1.047  0.00  0.00    +0.018 A 
ATOM     31  C   UNL     1      14.467   9.015  -1.128  0.00  0.00    +0.021 A 
ATOM     32  C   UNL     1      14.779  10.296  -0.701  0.00  0.00    +0.042 A 
ATOM     33  C   UNL     1      13.792  11.122  -0.191  0.00  0.00    +0.040 A 
ATOM     34  C   UNL     1      12.488  10.675  -0.110  0.00  0.00    +0.056 A 
ATOM     35 CL   UNL     1      11.250  11.714   0.523  0.00  0.00    -0.083 Cl
ATOM     36 CL   UNL     1      16.415  10.868  -0.805  0.00  0.00    -0.083 Cl
ENDBRANCH  27  29
ENDBRANCH  26  27
ENDBRANCH  23  26
ENDBRANCH   2  20
TORSDOF 7
