REMARK  Name = ZINC13032368
REMARK  13 active torsions:
REMARK  status: ('A' for Active; 'I' for Inactive)
REMARK    1  A    between atoms: C_1  and  C_2
REMARK    2  A    between atoms: C_2  and  C_3
REMARK    3  A    between atoms: C_3  and  C_4
REMARK    4  A    between atoms: C_3  and  C_5
REMARK    5  A    between atoms: C_3  and  N_6
REMARK    6  A    between atoms: C_7  and  C_9
REMARK    7  A    between atoms: C_9  and  C_11
REMARK    8  A    between atoms: C_9  and  N_18
REMARK    9  A    between atoms: C_14  and  O_17
REMARK   10  A    between atoms: N_18  and  C_19
REMARK   11  A    between atoms: C_23  and  C_25
REMARK   12  A    between atoms: C_26  and  C_28
REMARK   13  A    between atoms: C_28  and  N_29
REMARK                            x       y       z     vdW  Elec       q    Type
REMARK                         _______ _______ _______ _____ _____    ______ ____
ROOT
ATOM      1  N   UNL     1      -5.170   3.272  -1.841  0.00  0.00    -0.254 N 
ATOM      2  C   UNL     1      -4.162   4.096  -1.491  0.00  0.00    +0.242 C 
ATOM      3  O   UNL     1      -4.015   5.153  -2.067  0.00  0.00    -0.273 OA
ENDROOT
BRANCH   1   4
ATOM      4  C   UNL     1      -5.405   2.104  -1.108  0.00  0.00    +0.038 A 
ATOM      5  C   UNL     1      -5.152   0.863  -1.676  0.00  0.00    +0.023 A 
ATOM      6  C   UNL     1      -5.386  -0.288  -0.949  0.00  0.00    +0.002 A 
ATOM      7  C   UNL     1      -5.872  -0.205   0.343  0.00  0.00    +0.003 A 
ATOM      8  C   UNL     1      -6.125   1.029   0.911  0.00  0.00    -0.049 A 
ATOM      9  C   UNL     1      -5.888   2.184   0.192  0.00  0.00    +0.027 A 
ATOM     10  C   UNL     1      -6.655   1.115   2.319  0.00  0.00    +0.044 C 
ENDBRANCH   1   4
BRANCH   1  11
ATOM     11  C   UNL     1      -6.018   3.600  -2.990  0.00  0.00    +0.197 C 
BRANCH  11  12
ATOM     12  C   UNL     1      -6.968   2.460  -3.254  0.00  0.00    -0.018 A 
ATOM     13  C   UNL     1      -7.873   2.077  -2.282  0.00  0.00    +0.009 A 
ATOM     14  C   UNL     1      -8.749   1.036  -2.523  0.00  0.00    +0.046 A 
ATOM     15  C   UNL     1      -8.712   0.368  -3.738  0.00  0.00    +0.117 A 
ATOM     16  C   UNL     1      -7.799   0.751  -4.710  0.00  0.00    +0.046 A 
ATOM     17  C   UNL     1      -6.929   1.796  -4.466  0.00  0.00    +0.009 A 
BRANCH  15  18
ATOM     18  O   UNL     1      -9.568  -0.660  -3.976  0.00  0.00    -0.507 OA
ATOM     19  H   UNL     1      -9.226  -1.526  -3.714  0.00  0.00    +0.292 HD
ENDBRANCH  15  18
ENDBRANCH  11  12
BRANCH  11  21
ATOM     20  N   UNL     1      -7.657   5.344  -3.613  0.00  0.00    -0.308 N 
ATOM     21  C   UNL     1      -6.804   4.851  -2.694  0.00  0.00    +0.239 C 
ATOM     22  O   UNL     1      -6.669   5.414  -1.628  0.00  0.00    -0.273 OA
ATOM     23  H   UNL     1      -7.764   4.894  -4.466  0.00  0.00    +0.149 HD
BRANCH  20  24
ATOM     24  C   UNL     1      -8.421   6.561  -3.325  0.00  0.00    +0.029 C 
ATOM     25  C   UNL     1      -9.298   6.332  -2.093  0.00  0.00    +0.031 C 
ATOM     26  C   UNL     1      -7.456   7.718  -3.057  0.00  0.00    +0.031 C 
BRANCH  24  28
ATOM     27  C   UNL     1     -10.105   8.173  -4.224  0.00  0.00    +0.006 C 
ATOM     28  C   UNL     1      -9.306   6.902  -4.525  0.00  0.00    +0.022 C 
ENDBRANCH  24  28
ENDBRANCH  20  24
ENDBRANCH  11  21
ENDBRANCH   1  11
BRANCH   2  29
ATOM     29  C   UNL     1      -3.218   3.704  -0.384  0.00  0.00    +0.242 C 
BRANCH  29  30
ATOM     30  N   UNL     1      -2.141   4.692  -0.287  0.00  0.00    -0.235 N 
ATOM     31  C   UNL     1      -0.938   4.665  -0.950  0.00  0.00    +0.090 A 
ATOM     32  C   UNL     1      -0.357   3.791  -1.863  0.00  0.00    +0.029 A 
ATOM     33  C   UNL     1       0.894   4.050  -2.350  0.00  0.00    +0.002 A 
ATOM     34  C   UNL     1       1.588   5.184  -1.948  0.00  0.00    +0.002 A 
ATOM     35  C   UNL     1       1.038   6.059  -1.058  0.00  0.00    +0.032 A 
ATOM     36  C   UNL     1      -0.240   5.815  -0.539  0.00  0.00    +0.113 A 
ATOM     37  N   UNL     1      -1.024   6.479   0.333  0.00  0.00    -0.129 NA
ATOM     38  N   UNL     1      -2.136   5.853   0.501  0.00  0.00    -0.064 NA
ENDBRANCH  29  30
ENDBRANCH   2  29
TORSDOF 9
