REMARK  Name = ZINC35707946
REMARK  14 active torsions:
REMARK  status: ('A' for Active; 'I' for Inactive)
REMARK    1  A    between atoms: C_1  and  C_2
REMARK    2  A    between atoms: C_2  and  C_3
REMARK    3  A    between atoms: C_3  and  C_4
REMARK    4  A    between atoms: C_4  and  N_5
REMARK    5  A    between atoms: C_6  and  C_40
REMARK    6  A    between atoms: C_7  and  C_35
REMARK    7  A    between atoms: C_8  and  C_13
REMARK    8  A    between atoms: C_16  and  N_19
REMARK    9  A    between atoms: C_20  and  C_22
REMARK   10  A    between atoms: C_22  and  C_23
REMARK   11  A    between atoms: C_22  and  C_29
REMARK   12  A    between atoms: C_35  and  O_37
REMARK   13  A    between atoms: O_37  and  C_38
REMARK   14  A    between atoms: C_38  and  C_39
REMARK                            x       y       z     vdW  Elec       q    Type
REMARK                         _______ _______ _______ _____ _____    ______ ____
ROOT
ATOM      1  C   UNL     1       4.183  -2.740  -5.202  0.00  0.00    -0.022 A 
ATOM      2  C   UNL     1       4.362  -1.373  -5.096  0.00  0.00    +0.007 A 
ATOM      3  C   UNL     1       4.671  -0.627  -6.216  0.00  0.00    +0.023 A 
ATOM      4  C   UNL     1       4.803  -1.251  -7.450  0.00  0.00    +0.033 A 
ATOM      5  C   UNL     1       4.623  -2.624  -7.553  0.00  0.00    +0.023 A 
ATOM      6  C   UNL     1       4.319  -3.365  -6.428  0.00  0.00    +0.007 A 
ENDROOT
BRANCH   1  10
ATOM      7  N   UNL     1       2.913  -2.557  -1.571  0.00  0.00    -0.259 N 
ATOM      8  C   UNL     1       1.986  -2.907  -2.511  0.00  0.00    +0.024 C 
ATOM      9  C   UNL     1       2.362  -3.400  -3.711  0.00  0.00    +0.078 C 
ATOM     10  C   UNL     1       3.846  -3.551  -3.977  0.00  0.00    +0.143 C 
ATOM     11  N   UNL     1       4.763  -3.145  -2.898  0.00  0.00    -0.288 N 
ATOM     12  C   UNL     1       4.235  -2.665  -1.755  0.00  0.00    +0.307 C 
ATOM     13  O   UNL     1       4.983  -2.324  -0.860  0.00  0.00    -0.252 OA
ATOM     14  C   UNL     1       0.520  -2.740  -2.204  0.00  0.00    +0.061 C 
ATOM     15  H   UNL     1       5.724  -3.219  -3.009  0.00  0.00    +0.151 HD
BRANCH   9  16
ATOM     16  C   UNL     1       1.403  -3.763  -4.685  0.00  0.00    +0.339 C 
ATOM     17  O   UNL     1       0.217  -3.633  -4.449  0.00  0.00    -0.245 OA
BRANCH  16  18
ATOM     18  O   UNL     1       1.805  -4.253  -5.876  0.00  0.00    -0.462 OA
BRANCH  18  19
ATOM     19  C   UNL     1       0.782  -4.599  -6.813  0.00  0.00    +0.229 C 
ATOM     20  C   UNL     1       1.424  -5.133  -8.095  0.00  0.00    +0.048 C 
ENDBRANCH  18  19
ENDBRANCH  16  18
ENDBRANCH   9  16
BRANCH   7  21
ATOM     21  C   UNL     1       2.434  -2.029  -0.291  0.00  0.00    +0.115 C 
BRANCH  21  22
ATOM     22  C   UNL     1       2.095  -3.191   0.646  0.00  0.00    +0.019 C 
BRANCH  22  24
ATOM     23  C   UNL     1       1.256  -3.801   2.918  0.00  0.00    +0.004 C 
ATOM     24  C   UNL     1       1.595  -2.639   1.982  0.00  0.00    -0.002 C 
ENDBRANCH  22  24
ENDBRANCH  21  22
ENDBRANCH   7  21
ENDBRANCH   1  10
BRANCH   4  25
ATOM     25  N   UNL     1       5.115  -0.498  -8.587  0.00  0.00    -0.285 N 
ATOM     26  C   UNL     1       5.941   0.563  -8.487  0.00  0.00    +0.229 C 
ATOM     27  O   UNL     1       6.344   0.917  -7.399  0.00  0.00    -0.274 OA
ATOM     28  H   UNL     1       4.737  -0.739  -9.447  0.00  0.00    +0.155 HD
BRANCH  26  29
ATOM     29  C   UNL     1       6.365   1.307  -9.727  0.00  0.00    +0.135 C 
BRANCH  29  30
ATOM     30  C   UNL     1       7.281   2.441  -9.343  0.00  0.00    -0.031 A 
ATOM     31  C   UNL     1       6.917   3.746  -9.615  0.00  0.00    +0.005 A 
ATOM     32  C   UNL     1       7.757   4.786  -9.263  0.00  0.00    +0.000 A 
ATOM     33  C   UNL     1       8.962   4.520  -8.640  0.00  0.00    +0.000 A 
ATOM     34  C   UNL     1       9.326   3.215  -8.367  0.00  0.00    +0.000 A 
ATOM     35  C   UNL     1       8.484   2.175  -8.715  0.00  0.00    +0.005 A 
ENDBRANCH  29  30
BRANCH  29  36
ATOM     36  C   UNL     1       7.090   0.367 -10.654  0.00  0.00    -0.031 A 
ATOM     37  C   UNL     1       8.085  -0.458 -10.163  0.00  0.00    +0.005 A 
ATOM     38  C   UNL     1       8.751  -1.321 -11.014  0.00  0.00    +0.000 A 
ATOM     39  C   UNL     1       8.421  -1.359 -12.356  0.00  0.00    +0.000 A 
ATOM     40  C   UNL     1       7.425  -0.535 -12.847  0.00  0.00    +0.000 A 
ATOM     41  C   UNL     1       6.757   0.325 -11.995  0.00  0.00    +0.005 A 
ENDBRANCH  29  36
ENDBRANCH  26  29
ENDBRANCH   4  25
TORSDOF 11
