REMARK  Name = ZINC49421750
REMARK  10 active torsions:
REMARK  status: ('A' for Active; 'I' for Inactive)
REMARK    1  A    between atoms: C_1  and  C_2
REMARK    2  A    between atoms: C_7  and  C_8
REMARK    3  A    between atoms: C_10  and  C_13
REMARK    4  A    between atoms: C_14  and  C_36
REMARK    5  A    between atoms: N_20  and  C_23
REMARK    6  A    between atoms: C_23  and  C_24
REMARK    7  A    between atoms: N_26  and  C_27
REMARK    8  A    between atoms: C_28  and  C_35
REMARK    9  A    between atoms: C_30  and  C_34
REMARK   10  A    between atoms: C_32  and  C_33
REMARK                            x       y       z     vdW  Elec       q    Type
REMARK                         _______ _______ _______ _____ _____    ______ ____
ROOT
ATOM      1  C   UNL     1      -2.042   3.692   6.747  0.00  0.00    +0.082 A 
ATOM      2  C   UNL     1      -1.905   3.848   8.093  0.00  0.00    -0.017 A 
ATOM      3  C   UNL     1      -1.379   2.806   8.865  0.00  0.00    +0.076 A 
ATOM      4  C   UNL     1      -1.021   1.637   8.157  0.00  0.00    +0.116 A 
ATOM      5  S   UNL     1      -1.435   2.035   6.477  0.00  0.00    -0.063 S 
ATOM      6  N   UNL     1      -0.511   0.576   8.769  0.00  0.00    -0.230 NA
ATOM      7  C   UNL     1      -0.314   0.559  10.059  0.00  0.00    +0.203 A 
ATOM      8  N   UNL     1      -0.620   1.623  10.844  0.00  0.00    -0.290 N 
ATOM      9  C   UNL     1      -1.142   2.750  10.325  0.00  0.00    +0.263 A 
ATOM     10  O   UNL     1      -1.413   3.700  11.038  0.00  0.00    -0.267 OA
ATOM     11  C   UNL     1      -2.319   5.139   8.750  0.00  0.00    +0.046 C 
ENDROOT
BRANCH   1  14
ATOM     12  C   UNL     1      -3.195   5.524   3.873  0.00  0.00    +0.203 A 
ATOM     13  N   UNL     1      -2.679   4.438   4.467  0.00  0.00    -0.187 NA
ATOM     14  C   UNL     1      -2.566   4.647   5.762  0.00  0.00    +0.266 A 
ATOM     15  O   UNL     1      -3.013   5.889   6.027  0.00  0.00    -0.332 OA
ATOM     16  N   UNL     1      -3.412   6.444   4.782  0.00  0.00    -0.056 NA
BRANCH  12  23
ATOM     17  C   UNL     1      -1.197   4.705   1.949  0.00  0.00    +0.044 C 
ATOM     18  C   UNL     1      -2.514   5.273   1.487  0.00  0.00    -0.040 A 
ATOM     19  C   UNL     1      -2.777   5.400   0.138  0.00  0.00    +0.004 A 
ATOM     20  C   UNL     1      -3.986   5.921  -0.287  0.00  0.00    +0.000 A 
ATOM     21  C   UNL     1      -4.937   6.316   0.636  0.00  0.00    +0.001 A 
ATOM     22  C   UNL     1      -4.684   6.193   1.987  0.00  0.00    +0.012 A 
ATOM     23  C   UNL     1      -3.470   5.664   2.421  0.00  0.00    +0.025 A 
ENDBRANCH  12  23
ENDBRANCH   1  14
BRANCH   8  24
ATOM     24  C   UNL     1      -0.376   1.543  12.287  0.00  0.00    +0.222 C 
BRANCH  24  25
ATOM     25  C   UNL     1       1.017   2.034  12.589  0.00  0.00    +0.237 C 
ATOM     26  O   UNL     1       1.735   2.412  11.688  0.00  0.00    -0.274 OA
ATOM     27  N   UNL     1       1.464   2.051  13.860  0.00  0.00    -0.284 N 
ATOM     28  H   UNL     1       0.922   1.674  14.570  0.00  0.00    +0.155 HD
BRANCH  27  29
ATOM     29  C   UNL     1       2.710   2.614  14.155  0.00  0.00    +0.039 A 
ATOM     30  C   UNL     1       2.808   3.639  15.087  0.00  0.00    -0.029 A 
ATOM     31  C   UNL     1       4.040   4.192  15.377  0.00  0.00    +0.008 A 
ATOM     32  C   UNL     1       5.175   3.727  14.739  0.00  0.00    -0.050 A 
ATOM     33  C   UNL     1       5.082   2.707  13.810  0.00  0.00    +0.008 A 
ATOM     34  C   UNL     1       3.853   2.145  13.521  0.00  0.00    -0.029 A 
ATOM     35  C   UNL     1       3.753   1.029  12.514  0.00  0.00    +0.045 C 
ATOM     36  C   UNL     1       6.518   4.333  15.057  0.00  0.00    +0.044 C 
ATOM     37  C   UNL     1       1.571   4.147  15.782  0.00  0.00    +0.045 C 
ENDBRANCH  27  29
ENDBRANCH  24  25
ENDBRANCH   8  24
TORSDOF 5
