REMARK  Name = ZINC66932003
REMARK  9 active torsions:
REMARK  status: ('A' for Active; 'I' for Inactive)
REMARK    1  A    between atoms: C_1  and  C_2
REMARK    2  A    between atoms: C_2  and  C_3
REMARK    3  A    between atoms: C_3  and  C_5
REMARK    4  A    between atoms: C_3  and  C_6
REMARK    5  A    between atoms: C_6  and  C_8
REMARK    6  A    between atoms: C_6  and  N_26
REMARK    7  A    between atoms: C_13  and  N_16
REMARK    8  A    between atoms: C_17  and  C_19
REMARK    9  A    between atoms: C_19  and  C_20
REMARK                            x       y       z     vdW  Elec       q    Type
REMARK                         _______ _______ _______ _____ _____    ______ ____
ROOT
ATOM      1  C   UNL     1      -2.802  -2.654  -0.129  0.00  0.00    +0.236 C 
ATOM      2  O   UNL     1      -3.185  -3.055  -1.207  0.00  0.00    -0.274 OA
ATOM      3  N   UNL     1      -3.647  -2.633   0.921  0.00  0.00    -0.300 N 
ATOM      4  C   UNL     1      -3.200  -2.144   2.233  0.00  0.00    +0.109 C 
ATOM      5  C   UNL     1      -3.499  -3.215   3.286  0.00  0.00    +0.041 C 
ATOM      6  C   UNL     1      -4.983  -3.583   3.226  0.00  0.00    +0.076 C 
ATOM      7  C   UNL     1      -5.312  -4.158   1.846  0.00  0.00    +0.041 C 
ATOM      8  C   UNL     1      -5.035  -3.093   0.775  0.00  0.00    +0.109 C 
ENDROOT
BRANCH   6   9
ATOM      9  N   UNL     1      -5.280  -4.583   4.254  0.00  0.00    -0.312 N 
ATOM     10  C   UNL     1      -6.532  -4.698   4.742  0.00  0.00    +0.214 C 
ATOM     11  O   UNL     1      -7.412  -3.973   4.328  0.00  0.00    -0.276 OA
ATOM     12  H   UNL     1      -4.576  -5.163   4.585  0.00  0.00    +0.149 HD
BRANCH  10  13
ATOM     13  C   UNL     1      -6.837  -5.727   5.800  0.00  0.00    +0.099 C 
BRANCH  13  14
ATOM     14  C   UNL     1      -8.318  -5.648   6.175  0.00  0.00    -0.002 C 
ATOM     15  C   UNL     1      -8.607  -4.295   6.830  0.00  0.00    +0.004 C 
ATOM     16  C   UNL     1     -10.088  -4.217   7.205  0.00  0.00    +0.000 C 
ATOM     17  C   UNL     1     -10.426  -5.341   8.186  0.00  0.00    +0.000 C 
ATOM     18  C   UNL     1     -10.137  -6.693   7.532  0.00  0.00    +0.000 C 
ATOM     19  C   UNL     1      -8.656  -6.772   7.156  0.00  0.00    +0.004 C 
ENDBRANCH  13  14
ENDBRANCH  10  13
ENDBRANCH   6   9
BRANCH   1  20
ATOM     20  C   UNL     1      -1.382  -2.179   0.038  0.00  0.00    +0.163 C 
BRANCH  20  21
ATOM     21  N   UNL     1      -0.555  -2.722  -1.043  0.00  0.00    -0.288 N 
ATOM     22  C   UNL     1      -0.075  -3.979  -0.957  0.00  0.00    +0.298 C 
ATOM     23  O   UNL     1      -0.252  -4.630   0.054  0.00  0.00    -0.253 OA
ATOM     24  N   UNL     1       0.601  -4.514  -1.993  0.00  0.00    -0.313 N 
ATOM     25  H   UNL     1      -0.353  -2.178  -1.820  0.00  0.00    +0.151 HD
ATOM     26  H   UNL     1       0.743  -3.994  -2.800  0.00  0.00    +0.146 HD
ATOM     27  H   UNL     1       0.947  -5.418  -1.931  0.00  0.00    +0.146 HD
ENDBRANCH  20  21
BRANCH  20  28
ATOM     28  C   UNL     1      -1.346  -0.650  -0.013  0.00  0.00    +0.015 C 
ATOM     29  C   UNL     1      -1.790  -0.175  -1.397  0.00  0.00    +0.010 C 
BRANCH  28  31
ATOM     30  C   UNL     1       0.091   1.365   0.333  0.00  0.00    +0.004 C 
ATOM     31  C   UNL     1       0.079  -0.164   0.260  0.00  0.00    +0.002 C 
ENDBRANCH  28  31
ENDBRANCH  20  28
ENDBRANCH   1  20
TORSDOF 7
