REMARK  Name = ZINC31161241
REMARK  9 active torsions:
REMARK  status: ('A' for Active; 'I' for Inactive)
REMARK    1  A    between atoms: C_1  and  C_2
REMARK    2  A    between atoms: C_2  and  C_3
REMARK    3  A    between atoms: C_2  and  C_4
REMARK    4  A    between atoms: C_2  and  O_28
REMARK    5  A    between atoms: C_4  and  C_5
REMARK    6  A    between atoms: C_5  and  C_6
REMARK    7  A    between atoms: C_11  and  O_12
REMARK    8  A    between atoms: C_24  and  O_27
REMARK    9  A    between atoms: C_25  and  O_26
REMARK                            x       y       z     vdW  Elec       q    Type
REMARK                         _______ _______ _______ _____ _____    ______ ____
ROOT
ATOM      1  C   UNL     1      -4.084  -3.745  -2.115  0.00  0.00    -0.005 A 
ATOM      2  C   UNL     1      -2.711  -3.617  -1.944  0.00  0.00    +0.015 A 
ATOM      3  C   UNL     1      -2.245  -2.433  -1.419  0.00  0.00    +0.005 A 
ATOM      4  C   UNL     1      -3.120  -1.385  -1.055  0.00  0.00    +0.129 A 
ATOM      5  C   UNL     1      -4.490  -1.522  -1.235  0.00  0.00    +0.091 A 
ATOM      6  C   UNL     1      -4.951  -2.721  -1.770  0.00  0.00    +0.124 A 
ATOM      7  O   UNL     1      -2.428  -0.326  -0.545  0.00  0.00    -0.483 OA
ATOM      8  C   UNL     1      -1.220  -0.861  -0.019  0.00  0.00    +0.218 C 
ATOM      9  C   UNL     1      -0.884  -1.929  -1.117  0.00  0.00    +0.105 C 
ATOM     10  C   UNL     1       0.148  -2.852  -0.518  0.00  0.00    +0.241 C 
ATOM     11  O   UNL     1       1.220  -2.070   0.023  0.00  0.00    -0.487 OA
ATOM     12  C   UNL     1       1.211  -0.715  -0.004  0.00  0.00    +0.172 A 
ATOM     13  C   UNL     1       0.002  -0.004   0.002  0.00  0.00    +0.039 A 
ATOM     14  C   UNL     1      -0.017   1.365   0.009  0.00  0.00    +0.015 A 
ATOM     15  C   UNL     1       1.175   2.073   0.002  0.00  0.00    +0.050 A 
ATOM     16  C   UNL     1       2.381   1.389  -0.019  0.00  0.00    +0.162 A 
ATOM     17  C   UNL     1       2.402  -0.000  -0.024  0.00  0.00    +0.201 A 
ENDROOT
BRANCH   6  18
ATOM     18  O   UNL     1      -6.285  -2.893  -1.961  0.00  0.00    -0.506 OA
ATOM     19  H   UNL     1      -6.987  -2.089  -1.692  0.00  0.00    +0.292 HD
ENDBRANCH   6  18
BRANCH  17  20
ATOM     20  O   UNL     1       3.591  -0.662  -0.048  0.00  0.00    -0.501 OA
ATOM     21  H   UNL     1       4.534  -0.097  -0.063  0.00  0.00    +0.292 HD
ENDBRANCH  17  20
BRANCH  16  22
ATOM     22  O   UNL     1       3.551   2.082  -0.036  0.00  0.00    -0.503 OA
ATOM     23  H   UNL     1       4.510   1.543  -0.053  0.00  0.00    +0.292 HD
ENDBRANCH  16  22
BRANCH   1  24
ATOM     24  C   UNL     1      -4.641  -5.023  -2.687  0.00  0.00    +0.041 C 
BRANCH  24  25
ATOM     25  C   UNL     1      -5.174  -5.899  -1.552  0.00  0.00    +0.039 C 
BRANCH  25  27
ATOM     26  C   UNL     1      -6.385  -8.018  -1.014  0.00  0.00    +0.041 C 
ATOM     27  C   UNL     1      -5.740  -7.197  -2.132  0.00  0.00    +0.061 C 
ATOM     28  C   UNL     1      -6.792  -6.865  -3.193  0.00  0.00    +0.041 C 
BRANCH  27  29
ATOM     29  O   UNL     1      -4.684  -7.952  -2.729  0.00  0.00    -0.389 OA
ATOM     30  H   UNL     1      -4.100  -7.523  -3.557  0.00  0.00    +0.210 HD
ENDBRANCH  27  29
ENDBRANCH  25  27
ENDBRANCH  24  25
ENDBRANCH   1  24
TORSDOF 7
