REMARK  Name = ZINC48027582
REMARK  7 active torsions:
REMARK  status: ('A' for Active; 'I' for Inactive)
REMARK    1  A    between atoms: C_1  and  C_2
REMARK    2  A    between atoms: C_7  and  N_28
REMARK    3  A    between atoms: C_12  and  C_14
REMARK    4  A    between atoms: N_16  and  C_17
REMARK    5  A    between atoms: N_16  and  C_18
REMARK    6  A    between atoms: C_18  and  C_20
REMARK    7  A    between atoms: C_18  and  C_21
REMARK                            x       y       z     vdW  Elec       q    Type
REMARK                         _______ _______ _______ _____ _____    ______ ____
ROOT
ATOM      1  C   UNL     1       3.991  -2.345   0.688  0.00  0.00    +0.029 C 
ATOM      2  C   UNL     1       2.506  -2.320   0.320  0.00  0.00    +0.083 C 
ATOM      3  C   UNL     1       2.316  -2.712  -1.155  0.00  0.00    +0.059 C 
ATOM      4  C   UNL     1       1.675  -1.499  -1.790  0.00  0.00    -0.022 A 
ATOM      5  C   UNL     1       1.271  -1.263  -3.091  0.00  0.00    +0.038 A 
ATOM      6  C   UNL     1       0.700  -0.052  -3.432  0.00  0.00    +0.127 A 
ATOM      7  C   UNL     1       0.532   0.926  -2.468  0.00  0.00    +0.034 A 
ATOM      8  C   UNL     1       0.933   0.696  -1.170  0.00  0.00    +0.026 A 
ATOM      9  C   UNL     1       1.511  -0.526  -0.817  0.00  0.00    +0.040 A 
ATOM     10  N   UNL     1       1.979  -0.957   0.428  0.00  0.00    -0.260 N 
ATOM     11  C   UNL     1       1.950  -0.228   1.562  0.00  0.00    +0.306 C 
ATOM     12  O   UNL     1       1.581   0.927   1.531  0.00  0.00    -0.265 OA
ENDROOT
BRANCH  11  13
ATOM     13  C   UNL     1       2.374  -0.842   2.856  0.00  0.00    +0.302 C 
ATOM     14  O   UNL     1       1.596  -1.530   3.484  0.00  0.00    -0.265 OA
ATOM     15  N   UNL     1       3.620  -0.633   3.325  0.00  0.00    -0.290 N 
ATOM     16  C   UNL     1       4.521   0.286   2.626  0.00  0.00    +0.133 C 
BRANCH  15  17
ATOM     17  C   UNL     1       4.073  -1.325   4.534  0.00  0.00    +0.103 C 
ATOM     18  C   UNL     1       5.382  -2.062   4.240  0.00  0.00    +0.033 C 
BRANCH  17  19
ATOM     19  C   UNL     1       4.298  -0.320   5.634  0.00  0.00    -0.027 A 
ATOM     20  C   UNL     1       3.669  -0.479   6.854  0.00  0.00    +0.008 A 
ATOM     21  C   UNL     1       3.875   0.442   7.864  0.00  0.00    +0.038 A 
ATOM     22  C   UNL     1       4.712   1.524   7.653  0.00  0.00    +0.123 A 
ATOM     23  C   UNL     1       5.342   1.682   6.430  0.00  0.00    +0.038 A 
ATOM     24  C   UNL     1       5.139   0.757   5.423  0.00  0.00    +0.008 A 
ATOM     25  F   UNL     1       4.914   2.425   8.639  0.00  0.00    -0.205 F 
ENDBRANCH  17  19
ENDBRANCH  15  17
ENDBRANCH  11  13
BRANCH   6  26
ATOM     26  N   UNL     1       0.269   0.199  -4.826  0.00  0.00    +0.056 N 
ATOM     27  O   UNL     1       0.416  -0.657  -5.667  0.00  0.00    -0.126 OA
ATOM     28  O   UNL     1      -0.230   1.259  -5.123  0.00  0.00    -0.126 OA
ENDBRANCH   6  26
TORSDOF 4
