REMARK  Name = ZINC48501613
REMARK  5 active torsions:
REMARK  status: ('A' for Active; 'I' for Inactive)
REMARK    1  A    between atoms: C_2  and  C_22
REMARK    2  A    between atoms: N_5  and  C_6
REMARK    3  A    between atoms: C_6  and  C_7
REMARK    4  A    between atoms: C_13  and  C_15
REMARK    5  A    between atoms: C_22  and  N_23
REMARK                            x       y       z     vdW  Elec       q    Type
REMARK                         _______ _______ _______ _____ _____    ______ ____
ROOT
ATOM      1  C   UNL     1      -2.402  -0.766  -1.351  0.00  0.00    +0.013 C 
ATOM      2  C   UNL     1      -2.009  -0.395  -2.782  0.00  0.00    +0.024 C 
ATOM      3  C   UNL     1      -1.497  -1.643  -3.507  0.00  0.00    +0.108 C 
ATOM      4  N   UNL     1      -2.518  -2.695  -3.416  0.00  0.00    -0.301 N 
ATOM      5  C   UNL     1      -3.034  -3.067  -2.091  0.00  0.00    +0.108 C 
ATOM      6  C   UNL     1      -3.528  -1.802  -1.382  0.00  0.00    +0.024 C 
ATOM      7  C   UNL     1      -2.975  -3.308  -4.526  0.00  0.00    +0.219 C 
ATOM      8  O   UNL     1      -2.606  -2.935  -5.620  0.00  0.00    -0.275 OA
ENDROOT
BRANCH   7   9
ATOM      9  C   UNL     1      -3.944  -4.456  -4.409  0.00  0.00    +0.075 C 
ATOM     10  C   UNL     1      -3.161  -5.736  -4.055  0.00  0.00    +0.013 C 
ATOM     11  C   UNL     1      -4.116  -6.728  -3.449  0.00  0.00    +0.001 C 
ATOM     12  C   UNL     1      -4.687  -7.709  -4.490  0.00  0.00    +0.000 C 
ATOM     13  C   UNL     1      -5.062  -7.021  -5.817  0.00  0.00    +0.000 C 
ATOM     14  C   UNL     1      -5.743  -5.696  -5.606  0.00  0.00    +0.001 C 
ATOM     15  C   UNL     1      -4.678  -4.582  -5.660  0.00  0.00    +0.013 C 
ENDBRANCH   7   9
BRANCH   1  16
ATOM     16  C   UNL     1      -2.881   0.486  -0.613  0.00  0.00    +0.148 C 
BRANCH  16  21
ATOM     17  C   UNL     1      -1.769   2.719  -0.888  0.00  0.00    +0.135 A 
ATOM     18  C   UNL     1      -0.551   3.216  -0.570  0.00  0.00    +0.100 A 
ATOM     19  N   UNL     1       0.126   2.219   0.012  0.00  0.00    -0.133 NA
ATOM     20  N   UNL     1      -0.624   1.174   0.051  0.00  0.00    -0.065 NA
ATOM     21  N   UNL     1      -1.769   1.429  -0.478  0.00  0.00    -0.251 N 
BRANCH  18  22
ATOM     22  C   UNL     1      -0.054   4.616  -0.822  0.00  0.00    +0.164 C 
BRANCH  22  23
ATOM     23  N   UNL     1      -0.268   5.433   0.376  0.00  0.00    -0.294 N 
ATOM     24  C   UNL     1       0.101   6.729   0.383  0.00  0.00    +0.297 C 
ATOM     25  O   UNL     1       0.613   7.220  -0.605  0.00  0.00    -0.253 OA
ATOM     26  N   UNL     1      -0.096   7.480   1.484  0.00  0.00    -0.313 N 
ATOM     27  H   UNL     1      -0.676   5.041   1.164  0.00  0.00    +0.151 HD
ATOM     28  H   UNL     1      -0.504   7.088   2.272  0.00  0.00    +0.146 HD
ATOM     29  H   UNL     1       0.170   8.413   1.489  0.00  0.00    +0.146 HD
ENDBRANCH  22  23
ENDBRANCH  18  22
ENDBRANCH  16  21
ENDBRANCH   1  16
TORSDOF 5
