REMARK  Name = ZINC54201395
REMARK  10 active torsions:
REMARK  status: ('A' for Active; 'I' for Inactive)
REMARK    1  A    between atoms: C_1  and  C_2
REMARK    2  A    between atoms: C_2  and  O_3
REMARK    3  A    between atoms: O_3  and  C_4
REMARK    4  A    between atoms: C_6  and  C_11
REMARK    5  A    between atoms: C_9  and  O_10
REMARK    6  A    between atoms: C_19  and  C_32
REMARK    7  A    between atoms: C_22  and  C_24
REMARK    8  A    between atoms: C_27  and  O_30
REMARK    9  A    between atoms: O_30  and  C_31
REMARK   10  A    between atoms: C_37  and  O_38
REMARK                            x       y       z     vdW  Elec       q    Type
REMARK                         _______ _______ _______ _____ _____    ______ ____
ROOT
ATOM      1  C   UNL     1       0.612  -4.949  -0.019  0.00  0.00    +0.028 C 
ATOM      2  C   UNL     1       0.449  -6.293   0.078  0.00  0.00    +0.079 C 
ATOM      3  C   UNL     1       1.464  -7.366   0.195  0.00  0.00    +0.276 C 
ATOM      4  O   UNL     1       2.660  -7.122   0.217  0.00  0.00    -0.267 OA
ATOM      5  N   UNL     1       1.006  -8.596   0.273  0.00  0.00    -0.152 NA
ATOM      6  C   UNL     1      -0.288  -8.875   0.250  0.00  0.00    +0.174 C 
ATOM      7  S   UNL     1      -1.051  -7.267   0.108  0.00  0.00    -0.050 S 
ATOM      8  N   UNL     1      -0.895 -10.101   0.323  0.00  0.00    -0.195 N 
ATOM      9  C   UNL     1      -0.202 -11.393   0.451  0.00  0.00    +0.139 C 
ATOM     10  C   UNL     1      -1.352 -12.418   0.486  0.00  0.00    +0.087 C 
ATOM     11  C   UNL     1      -2.599 -11.571   0.371  0.00  0.00    +0.069 C 
ATOM     12  N   UNL     1      -2.269 -10.328   0.293  0.00  0.00    -0.182 NA
ENDROOT
BRANCH   1  15
ATOM     13  C   UNL     1      -1.507  -1.893  -0.500  0.00  0.00    +0.162 A 
ATOM     14  C   UNL     1      -0.417  -2.696  -0.228  0.00  0.00    +0.057 A 
ATOM     15  C   UNL     1      -0.543  -4.089  -0.306  0.00  0.00    -0.020 A 
ATOM     16  C   UNL     1      -1.773  -4.658  -0.659  0.00  0.00    +0.012 A 
ATOM     17  C   UNL     1      -2.854  -3.848  -0.928  0.00  0.00    +0.050 A 
ATOM     18  C   UNL     1      -2.730  -2.468  -0.845  0.00  0.00    +0.158 A 
BRANCH  18  19
ATOM     19  O   UNL     1      -3.801  -1.675  -1.106  0.00  0.00    -0.503 OA
ATOM     20  H   UNL     1      -3.884  -1.418  -2.035  0.00  0.00    +0.292 HD
ENDBRANCH  18  19
BRANCH  13  21
ATOM     21  O   UNL     1      -1.389  -0.540  -0.426  0.00  0.00    -0.489 OA
BRANCH  21  23
ATOM     22  C   UNL     1      -0.169   1.509  -0.035  0.00  0.00    +0.048 C 
ATOM     23  C   UNL     1      -0.108  -0.019  -0.067  0.00  0.00    +0.226 C 
ENDBRANCH  21  23
ENDBRANCH  13  21
ENDBRANCH   1  15
BRANCH  11  24
ATOM     24  C   UNL     1      -3.980 -12.087   0.357  0.00  0.00    -0.002 A 
ATOM     25  C   UNL     1      -4.216 -13.461   0.461  0.00  0.00    +0.013 A 
ATOM     26  C   UNL     1      -5.508 -13.939   0.447  0.00  0.00    +0.046 A 
ATOM     27  C   UNL     1      -6.575 -13.058   0.330  0.00  0.00    +0.120 A 
ATOM     28  C   UNL     1      -6.346 -11.692   0.227  0.00  0.00    +0.046 A 
ATOM     29  C   UNL     1      -5.057 -11.204   0.246  0.00  0.00    +0.013 A 
BRANCH  27  30
ATOM     30  O   UNL     1      -7.848 -13.534   0.317  0.00  0.00    -0.495 OA
ATOM     31  C   UNL     1      -8.899 -12.573   0.195  0.00  0.00    +0.277 C 
ENDBRANCH  27  30
ENDBRANCH  11  24
BRANCH   9  32
ATOM     32  C   UNL     1       0.596 -11.441   1.728  0.00  0.00    +0.017 A 
ATOM     33  C   UNL     1       0.247 -10.633   2.793  0.00  0.00    +0.009 A 
ATOM     34  C   UNL     1       0.979 -10.677   3.965  0.00  0.00    +0.001 A 
ATOM     35  C   UNL     1       2.062 -11.530   4.075  0.00  0.00    +0.004 A 
ATOM     36  C   UNL     1       2.415 -12.341   3.013  0.00  0.00    +0.046 A 
ATOM     37  C   UNL     1       1.679 -12.302   1.838  0.00  0.00    +0.122 A 
BRANCH  37  38
ATOM     38  O   UNL     1       2.020 -13.103   0.794  0.00  0.00    -0.506 OA
ATOM     39  H   UNL     1       2.653 -12.702   0.182  0.00  0.00    +0.292 HD
ENDBRANCH  37  38
ENDBRANCH   9  32
TORSDOF 8
