REMARK  Name = ZINC48834599
REMARK  2 active torsions:
REMARK  status: ('A' for Active; 'I' for Inactive)
REMARK    1  A    between atoms: C_5  and  C_8
REMARK    2  A    between atoms: C_8  and  C_9
REMARK                            x       y       z     vdW  Elec       q    Type
REMARK                         _______ _______ _______ _____ _____    ______ ____
ROOT
ATOM      1  C   UNL     1      -0.570   1.762  -0.989  0.00  0.00    +0.003 C 
ATOM      2  C   UNL     1       0.762   2.515  -1.014  0.00  0.00    +0.019 C 
ATOM      3  C   UNL     1       1.791   1.700  -1.804  0.00  0.00    +0.109 C 
ATOM      4  N   UNL     1       1.871   0.351  -1.225  0.00  0.00    -0.282 N 
ATOM      5  C   UNL     1       0.633  -0.426  -1.072  0.00  0.00    +0.088 C 
ATOM      6  C   UNL     1      -0.382   0.413  -0.290  0.00  0.00    +0.023 C 
ATOM      7  C   UNL     1       3.057  -0.163  -0.843  0.00  0.00    +0.305 C 
ATOM      8  O   UNL     1       3.168  -1.358  -0.652  0.00  0.00    -0.252 OA
ATOM      9  N   UNL     1       4.119   0.649  -0.673  0.00  0.00    -0.287 N 
ATOM     10  C   UNL     1       3.891   2.100  -0.528  0.00  0.00    +0.107 C 
ATOM     11  C   UNL     1       4.795   2.697   0.566  0.00  0.00    -0.000 C 
ATOM     12  C   UNL     1       4.873   1.737   1.733  0.00  0.00    -0.081 C 
ATOM     13  N   UNL     1       6.043   0.877   1.571  0.00  0.00    +0.380 N 
ATOM     14  C   UNL     1       5.820  -0.297   0.818  0.00  0.00    -0.063 C 
ATOM     15  C   UNL     1       5.444   0.065  -0.633  0.00  0.00    +0.090 C 
ATOM     16  H   UNL     1       6.771   1.411   1.121  0.00  0.00    -0.086 HD
ATOM     17  H   UNL     1       6.370   0.609   2.488  0.00  0.00    -0.086 HD
ENDROOT
BRANCH   5  18
ATOM     18  C   UNL     1       0.931  -1.718  -0.308  0.00  0.00    +0.147 C 
BRANCH  18  19
ATOM     19  C   UNL     1       1.531  -2.731  -1.250  0.00  0.00    +0.358 C 
ATOM     20  O   UNL     1       1.705  -2.445  -2.422  0.00  0.00    -0.246 OA
ATOM     21  O   UNL     1       1.843  -3.835  -0.838  0.00  0.00    -0.246 OA
ENDBRANCH  18  19
ENDBRANCH   5  18
TORSDOF 2
