REMARK  Name = ZINC56902063
REMARK  10 active torsions:
REMARK  status: ('A' for Active; 'I' for Inactive)
REMARK    1  A    between atoms: C_1  and  N_2
REMARK    2  A    between atoms: N_2  and  C_3
REMARK    3  A    between atoms: N_2  and  C_4
REMARK    4  A    between atoms: C_4  and  C_5
REMARK    5  A    between atoms: C_5  and  N_6
REMARK    6  A    between atoms: C_12  and  O_16
REMARK    7  A    between atoms: O_16  and  C_17
REMARK    8  A    between atoms: C_21  and  C_23
REMARK    9  A    between atoms: C_24  and  C_25
REMARK   10  A    between atoms: C_28  and  N_31
REMARK                            x       y       z     vdW  Elec       q    Type
REMARK                         _______ _______ _______ _____ _____    ______ ____
ROOT
ATOM      1  N   UNL     1       1.067  -0.860   3.288  0.00  0.00    -0.249 N 
ATOM      2  C   UNL     1       2.238  -0.233   3.678  0.00  0.00    +0.168 A 
ATOM      3  N   UNL     1       2.684   0.956   3.349  0.00  0.00    -0.224 NA
ATOM      4  C   UNL     1       3.858   1.445   3.809  0.00  0.00    +0.081 A 
ATOM      5  C   UNL     1       4.448   2.700   3.533  0.00  0.00    +0.032 A 
ATOM      6  C   UNL     1       5.654   3.044   4.085  0.00  0.00    +0.048 A 
ATOM      7  C   UNL     1       6.339   2.179   4.932  0.00  0.00    +0.131 A 
ATOM      8  C   UNL     1       5.787   0.940   5.224  0.00  0.00    +0.063 A 
ATOM      9  C   UNL     1       4.579   0.590   4.673  0.00  0.00    +0.044 A 
ATOM     10  S   UNL     1       3.523  -0.836   4.764  0.00  0.00    -0.052 S 
ATOM     11  C   UNL     1       0.779  -2.095   3.744  0.00  0.00    +0.245 C 
ATOM     12  O   UNL     1       1.548  -2.659   4.499  0.00  0.00    -0.270 OA
ENDROOT
BRANCH  11  13
ATOM     13  C   UNL     1      -0.460  -2.757   3.332  0.00  0.00    +0.068 C 
ATOM     14  C   UNL     1      -0.815  -3.931   3.891  0.00  0.00    +0.013 C 
BRANCH  14  15
ATOM     15  C   UNL     1      -0.105  -4.423   5.083  0.00  0.00    -0.025 A 
ATOM     16  C   UNL     1       0.143  -3.563   6.158  0.00  0.00    +0.010 A 
ATOM     17  C   UNL     1       0.808  -4.032   7.271  0.00  0.00    +0.033 A 
ATOM     18  C   UNL     1       1.230  -5.349   7.327  0.00  0.00    +0.126 A 
ATOM     19  C   UNL     1       0.987  -6.206   6.268  0.00  0.00    +0.033 A 
ATOM     20  C   UNL     1       0.319  -5.754   5.150  0.00  0.00    +0.010 A 
BRANCH  18  21
ATOM     21  N   UNL     1       1.944  -5.843   8.525  0.00  0.00    +0.056 N 
ATOM     22  O   UNL     1       2.158  -5.097   9.453  0.00  0.00    -0.126 OA
ATOM     23  O   UNL     1       2.313  -6.993   8.578  0.00  0.00    -0.126 OA
ENDBRANCH  18  21
ENDBRANCH  14  15
ENDBRANCH  11  13
BRANCH   1  24
ATOM     24  C   UNL     1       0.140  -0.180   2.380  0.00  0.00    +0.097 C 
BRANCH  24  25
ATOM     25  C   UNL     1       0.502  -0.520   0.933  0.00  0.00    -0.060 C 
BRANCH  25  27
ATOM     26  C   UNL     1      -0.246   1.615   0.136  0.00  0.00    -0.097 C 
ATOM     27  N   UNL     1      -0.427   0.162   0.022  0.00  0.00    +0.377 N 
ATOM     28  C   UNL     1      -0.155  -0.259  -1.359  0.00  0.00    -0.097 C 
ATOM     29  H   UNL     1      -1.375  -0.080   0.266  0.00  0.00    -0.083 HD
ENDBRANCH  25  27
ENDBRANCH  24  25
ENDBRANCH   1  24
BRANCH   7  30
ATOM     30  O   UNL     1       7.535   2.542   5.467  0.00  0.00    -0.406 OA
BRANCH  30  31
ATOM     31  C   UNL     1       8.036   3.834   5.117  0.00  0.00    +0.575 C 
ATOM     32  F   UNL     1       7.126   4.814   5.529  0.00  0.00    -0.133 F 
ATOM     33  F   UNL     1       9.265   4.044   5.750  0.00  0.00    -0.133 F 
ATOM     34  F   UNL     1       8.206   3.909   3.731  0.00  0.00    -0.133 F 
ENDBRANCH  30  31
ENDBRANCH   7  30
TORSDOF 8
