REMARK  Name = ZINC36358052
REMARK  7 active torsions:
REMARK  status: ('A' for Active; 'I' for Inactive)
REMARK    1  A    between atoms: C_1  and  C_2
REMARK    2  A    between atoms: C_2  and  C_3
REMARK    3  A    between atoms: C_2  and  C_4
REMARK    4  A    between atoms: C_12  and  O_29
REMARK    5  A    between atoms: C_17  and  C_26
REMARK    6  A    between atoms: C_18  and  C_19
REMARK    7  A    between atoms: N_32  and  C_33
REMARK                            x       y       z     vdW  Elec       q    Type
REMARK                         _______ _______ _______ _____ _____    ______ ____
ROOT
ATOM      1  C   UNL     1      -1.412  -0.526   0.013  0.00  0.00    -0.044 A 
ATOM      2  C   UNL     1      -2.245  -0.196   1.062  0.00  0.00    +0.006 A 
ATOM      3  C   UNL     1      -3.555  -0.645   1.127  0.00  0.00    +0.024 A 
ATOM      4  C   UNL     1      -4.006  -1.453   0.082  0.00  0.00    +0.041 A 
ATOM      5  C   UNL     1      -3.150  -1.780  -0.977  0.00  0.00    -0.005 A 
ATOM      6  C   UNL     1      -1.850  -1.325  -1.038  0.00  0.00    +0.010 A 
ATOM      7  C   UNL     1      -3.945  -2.642  -1.905  0.00  0.00    +0.115 C 
ATOM      8  C   UNL     1      -4.079  -1.991  -3.283  0.00  0.00    +0.121 C 
ATOM      9  C   UNL     1      -2.875  -2.277  -4.132  0.00  0.00    +0.189 C 
ATOM     10  N   UNL     1      -2.164  -3.352  -4.056  0.00  0.00    -0.216 NA
ATOM     11  C   UNL     1      -2.478  -4.330  -3.117  0.00  0.00    +0.087 A 
ATOM     12  C   UNL     1      -3.330  -3.993  -2.073  0.00  0.00    +0.036 A 
ATOM     13  S   UNL     1      -3.477  -5.362  -1.141  0.00  0.00    -0.082 S 
ATOM     14  C   UNL     1      -2.437  -6.465  -2.083  0.00  0.00    +0.110 A 
ATOM     15  C   UNL     1      -2.005  -5.645  -3.131  0.00  0.00    +0.032 A 
ATOM     16  C   UNL     1      -5.304  -2.750  -1.248  0.00  0.00    +0.236 C 
ATOM     17  O   UNL     1      -6.261  -3.365  -1.668  0.00  0.00    -0.274 OA
ATOM     18  N   UNL     1      -5.248  -2.033  -0.106  0.00  0.00    -0.273 N 
ATOM     19  C   UNL     1      -6.371  -1.885   0.823  0.00  0.00    +0.138 C 
ENDROOT
BRANCH  15  20
ATOM     20  C   UNL     1      -1.099  -6.141  -4.190  0.00  0.00    +0.021 A 
ATOM     21  C   UNL     1       0.284  -6.045  -4.032  0.00  0.00    +0.011 A 
ATOM     22  C   UNL     1       1.123  -6.509  -5.024  0.00  0.00    +0.001 A 
ATOM     23  C   UNL     1       0.596  -7.070  -6.175  0.00  0.00    +0.003 A 
ATOM     24  C   UNL     1      -0.773  -7.169  -6.340  0.00  0.00    +0.039 A 
ATOM     25  C   UNL     1      -1.625  -6.714  -5.351  0.00  0.00    +0.131 A 
ATOM     26  F   UNL     1      -2.963  -6.817  -5.510  0.00  0.00    -0.205 F 
ENDBRANCH  15  20
BRANCH   1  28
ATOM     27  C   UNL     1      -0.019   1.526   0.010  0.00  0.00    +0.012 C 
ATOM     28  C   UNL     1       0.002  -0.004   0.002  0.00  0.00    +0.013 C 
ATOM     29  C   UNL     1       0.742  -0.511   1.242  0.00  0.00    +0.012 C 
ENDBRANCH   1  28
BRANCH  14  30
ATOM     30  C   UNL     1      -2.129  -7.821  -1.833  0.00  0.00    +0.394 C 
ATOM     31  O   UNL     1      -2.603  -8.387  -0.855  0.00  0.00    -0.240 OA
ATOM     32  O   UNL     1      -1.388  -8.431  -2.594  0.00  0.00    -0.240 OA
ENDBRANCH  14  30
BRANCH   9  33
ATOM     33  O   UNL     1      -2.509  -1.345  -5.037  0.00  0.00    -0.495 OA
ATOM     34  H   UNL     1      -1.728  -1.584  -5.554  0.00  0.00    +0.293 HD
ENDBRANCH   9  33
TORSDOF 4
