REMARK  Name = ZINC35865398
REMARK  8 active torsions:
REMARK  status: ('A' for Active; 'I' for Inactive)
REMARK    1  A    between atoms: C_1  and  C_2
REMARK    2  A    between atoms: C_2  and  C_3
REMARK    3  A    between atoms: C_3  and  C_4
REMARK    4  A    between atoms: C_19  and  C_21
REMARK    5  A    between atoms: C_21  and  C_23
REMARK    6  A    between atoms: C_21  and  C_24
REMARK    7  A    between atoms: C_24  and  C_25
REMARK    8  A    between atoms: C_27  and  C_31
REMARK                            x       y       z     vdW  Elec       q    Type
REMARK                         _______ _______ _______ _____ _____    ______ ____
ROOT
ATOM      1  C   UNL     1       2.077  -0.957  -1.178  0.00  0.00    +0.216 C 
ATOM      2  O   UNL     1       0.903  -0.656  -1.242  0.00  0.00    -0.276 OA
ATOM      3  N   UNL     1       2.660  -1.617  -2.198  0.00  0.00    -0.298 N 
ATOM      4  C   UNL     1       4.079  -1.994  -2.132  0.00  0.00    +0.126 C 
ATOM      5  C   UNL     1       4.196  -3.506  -2.357  0.00  0.00    +0.125 C 
ATOM      6  N   UNL     1       3.424  -3.864  -3.556  0.00  0.00    -0.312 N 
ATOM      7  C   UNL     1       2.005  -3.487  -3.622  0.00  0.00    +0.125 C 
ATOM      8  C   UNL     1       1.886  -1.980  -3.394  0.00  0.00    +0.126 C 
ATOM      9  C   UNL     1       4.022  -4.541  -4.603  0.00  0.00    +0.133 A 
ATOM     10  C   UNL     1       4.131  -5.960  -4.575  0.00  0.00    +0.051 A 
ATOM     11  C   UNL     1       3.681  -6.893  -3.541  0.00  0.00    -0.025 A 
ATOM     12  C   UNL     1       3.908  -8.204  -3.760  0.00  0.00    -0.004 A 
ATOM     13  S   UNL     1       4.721  -8.276  -5.334  0.00  0.00    -0.073 S 
ATOM     14  C   UNL     1       4.758  -6.540  -5.695  0.00  0.00    +0.114 A 
ATOM     15  N   UNL     1       5.208  -5.804  -6.692  0.00  0.00    -0.224 NA
ATOM     16  C   UNL     1       5.080  -4.491  -6.661  0.00  0.00    +0.135 A 
ATOM     17  N   UNL     1       4.496  -3.880  -5.646  0.00  0.00    -0.216 NA
ATOM     18  C   UNL     1       3.549  -9.350  -2.864  0.00  0.00    +0.046 C 
ATOM     19  C   UNL     1       3.212  -8.791  -1.474  0.00  0.00    -0.009 C 
ATOM     20  C   UNL     1       2.250  -7.610  -1.640  0.00  0.00    +0.008 C 
ATOM     21  C   UNL     1       2.986  -6.425  -2.265  0.00  0.00    +0.037 C 
ATOM     22  C   UNL     1       2.551  -9.881  -0.628  0.00  0.00    +0.008 C 
ENDROOT
BRANCH  16  23
ATOM     23  C   UNL     1       5.603  -3.672  -7.813  0.00  0.00    +0.054 C 
ATOM     24  C   UNL     1       7.108  -3.903  -7.960  0.00  0.00    +0.015 C 
BRANCH  23  25
ATOM     25  C   UNL     1       4.894  -4.093  -9.102  0.00  0.00    +0.007 C 
ATOM     26  C   UNL     1       5.333  -3.179 -10.247  0.00  0.00    +0.004 C 
ENDBRANCH  23  25
ENDBRANCH  16  23
BRANCH   1  27
ATOM     27  C   UNL     1       2.882  -0.592   0.042  0.00  0.00    +0.096 C 
BRANCH  27  29
ATOM     28  C   UNL     1       2.808   0.516   2.280  0.00  0.00    +0.004 C 
ATOM     29  C   UNL     1       1.989   0.146   1.041  0.00  0.00    +0.006 C 
ENDBRANCH  27  29
ENDBRANCH   1  27
TORSDOF 4
