REMARK  Name = ZINC39665844
REMARK  9 active torsions:
REMARK  status: ('A' for Active; 'I' for Inactive)
REMARK    1  A    between atoms: C_1  and  C_2
REMARK    2  A    between atoms: C_2  and  C_4
REMARK    3  A    between atoms: C_2  and  O_31
REMARK    4  A    between atoms: C_4  and  N_5
REMARK    5  A    between atoms: C_6  and  C_8
REMARK    6  A    between atoms: C_19  and  C_21
REMARK    7  A    between atoms: O_31  and  C_32
REMARK    8  A    between atoms: C_35  and  O_38
REMARK    9  A    between atoms: O_38  and  C_39
REMARK                            x       y       z     vdW  Elec       q    Type
REMARK                         _______ _______ _______ _____ _____    ______ ____
ROOT
ATOM      1  C   UNL     1       2.676  -6.030  -2.758  0.00  0.00    +0.100 C 
ATOM      2  C   UNL     1       3.222  -6.686  -1.470  0.00  0.00    +0.121 C 
ATOM      3  N   UNL     1       3.989  -7.863  -1.944  0.00  0.00    -0.295 N 
ATOM      4  C   UNL     1       4.673  -7.386  -3.171  0.00  0.00    +0.115 C 
ATOM      5  C   UNL     1       3.631  -6.492  -3.871  0.00  0.00    -0.004 C 
ATOM      6  C   UNL     1       4.316  -5.288  -4.512  0.00  0.00    -0.010 C 
ATOM      7  C   UNL     1       5.216  -5.767  -5.655  0.00  0.00    -0.082 C 
ATOM      8  N   UNL     1       4.408  -6.483  -6.650  0.00  0.00    +0.379 N 
ATOM      9  C   UNL     1       3.828  -7.690  -6.049  0.00  0.00    -0.082 C 
ATOM     10  C   UNL     1       2.869  -7.292  -4.923  0.00  0.00    -0.010 C 
ATOM     11  C   UNL     1       4.049  -9.088  -1.388  0.00  0.00    +0.265 C 
ATOM     12  O   UNL     1       4.786  -9.933  -1.857  0.00  0.00    -0.268 OA
ATOM     13  H   UNL     1       3.666  -5.880  -6.974  0.00  0.00    -0.086 HD
ATOM     14  H   UNL     1       4.991  -6.744  -7.430  0.00  0.00    -0.086 HD
ENDROOT
BRANCH  11  15
ATOM     15  C   UNL     1       3.217  -9.406  -0.202  0.00  0.00    +0.126 A 
ATOM     16  C   UNL     1       3.192 -10.722   0.284  0.00  0.00    +0.033 A 
ATOM     17  C   UNL     1       2.430 -11.028   1.375  0.00  0.00    +0.012 A 
ATOM     18  C   UNL     1       1.689  -9.996   1.980  0.00  0.00    +0.000 A 
ATOM     19  C   UNL     1       0.885 -10.239   3.105  0.00  0.00    +0.010 A 
ATOM     20  C   UNL     1       0.182  -9.216   3.664  0.00  0.00    +0.001 A 
ATOM     21  C   UNL     1       0.248  -7.928   3.135  0.00  0.00    +0.002 A 
ATOM     22  C   UNL     1       1.016  -7.655   2.046  0.00  0.00    +0.028 A 
ATOM     23  C   UNL     1       1.758  -8.686   1.439  0.00  0.00    +0.072 A 
ATOM     24  N   UNL     1       2.523  -8.445   0.374  0.00  0.00    -0.242 NA
ENDBRANCH  11  15
BRANCH   1  26
ATOM     25  N   UNL     1       1.784  -3.783  -3.281  0.00  0.00    -0.312 N 
ATOM     26  C   UNL     1       2.701  -4.529  -2.633  0.00  0.00    +0.218 C 
ATOM     27  O   UNL     1       3.547  -3.991  -1.950  0.00  0.00    -0.275 OA
ATOM     28  H   UNL     1       1.108  -4.213  -3.828  0.00  0.00    +0.149 HD
BRANCH  25  29
ATOM     29  C   UNL     1       1.809  -2.324  -3.160  0.00  0.00    +0.148 C 
BRANCH  29  31
ATOM     30  C   UNL     1       0.771  -0.198  -3.962  0.00  0.00    +0.053 C 
ATOM     31  C   UNL     1       0.670  -1.724  -3.988  0.00  0.00    +0.187 C 
BRANCH  31  32
ATOM     32  O   UNL     1      -0.584  -2.128  -3.435  0.00  0.00    -0.488 OA
BRANCH  32  33
ATOM     33  C   UNL     1      -1.658  -2.120  -4.270  0.00  0.00    +0.121 A 
ATOM     34  C   UNL     1      -2.921  -2.415  -3.778  0.00  0.00    +0.049 A 
ATOM     35  C   UNL     1      -4.011  -2.407  -4.626  0.00  0.00    +0.049 A 
ATOM     36  C   UNL     1      -3.843  -2.103  -5.969  0.00  0.00    +0.120 A 
ATOM     37  C   UNL     1      -2.580  -1.807  -6.460  0.00  0.00    +0.049 A 
ATOM     38  C   UNL     1      -1.491  -1.811  -5.612  0.00  0.00    +0.049 A 
BRANCH  36  39
ATOM     39  O   UNL     1      -4.917  -2.096  -6.803  0.00  0.00    -0.495 OA
ATOM     40  C   UNL     1      -4.670  -1.774  -8.174  0.00  0.00    +0.277 C 
ENDBRANCH  36  39
ENDBRANCH  32  33
ENDBRANCH  31  32
ENDBRANCH  29  31
ENDBRANCH  25  29
ENDBRANCH   1  26
TORSDOF 7
