REMARK  Name = ZINC31932423
REMARK  13 active torsions:
REMARK  status: ('A' for Active; 'I' for Inactive)
REMARK    1  A    between atoms: C_1  and  C_2
REMARK    2  A    between atoms: C_2  and  C_3
REMARK    3  A    between atoms: C_3  and  N_4
REMARK    4  A    between atoms: C_5  and  C_7
REMARK    5  A    between atoms: C_7  and  N_8
REMARK    6  A    between atoms: C_11  and  N_14
REMARK    7  A    between atoms: C_15  and  C_17
REMARK    8  A    between atoms: C_18  and  C_31
REMARK    9  A    between atoms: C_20  and  C_30
REMARK   10  A    between atoms: C_22  and  C_26
REMARK   11  A    between atoms: C_26  and  C_27
REMARK   12  A    between atoms: C_26  and  C_28
REMARK   13  A    between atoms: C_26  and  C_29
REMARK                            x       y       z     vdW  Elec       q    Type
REMARK                         _______ _______ _______ _____ _____    ______ ____
ROOT
ATOM      1  N   UNL     1       3.705   7.920  -0.350  0.00  0.00    -0.308 N 
ATOM      2  C   UNL     1       2.395   7.611  -0.298  0.00  0.00    +0.251 C 
ATOM      3  O   UNL     1       1.559   8.493  -0.353  0.00  0.00    -0.270 OA
ATOM      4  H   UNL     1       4.461   7.122  -0.300  0.00  0.00    +0.149 HD
ENDROOT
BRANCH   2   5
ATOM      5  C   UNL     1       1.974   6.208  -0.176  0.00  0.00    +0.079 A 
ATOM      6  C   UNL     1       0.713   5.704  -0.109  0.00  0.00    -0.020 A 
ATOM      7  C   UNL     1       0.519   4.319   0.008  0.00  0.00    +0.032 A 
ATOM      8  C   UNL     1      -0.690   3.585   0.092  0.00  0.00    +0.050 A 
ATOM      9  N   UNL     1      -0.644   2.275   0.192  0.00  0.00    -0.236 NA
ATOM     10  C   UNL     1       0.496   1.607   0.229  0.00  0.00    +0.136 A 
ATOM     11  N   UNL     1       1.658   2.227   0.155  0.00  0.00    -0.224 NA
ATOM     12  C   UNL     1       1.704   3.537   0.048  0.00  0.00    +0.113 A 
ATOM     13  S   UNL     1       2.995   4.747  -0.076  0.00  0.00    -0.064 S 
ATOM     14  C   UNL     1      -2.017   4.300   0.060  0.00  0.00    +0.066 C 
ATOM     15  C   UNL     1      -0.474   6.631  -0.161  0.00  0.00    +0.046 C 
BRANCH  10  16
ATOM     16  C   UNL     1       0.468   0.105   0.350  0.00  0.00    +0.022 C 
ATOM     17  C   UNL     1       1.900  -0.433   0.365  0.00  0.00    +0.019 C 
ATOM     18  C   UNL     1      -0.238  -0.288   1.650  0.00  0.00    +0.019 C 
ATOM     19  C   UNL     1      -0.288  -0.489  -0.840  0.00  0.00    +0.019 C 
ENDBRANCH  10  16
ENDBRANCH   2   5
BRANCH   1  23
ATOM     20  N   UNL     1       5.979  11.270  -1.516  0.00  0.00    +0.385 N 
ATOM     21  C   UNL     1       5.991  10.931  -0.087  0.00  0.00    -0.076 C 
ATOM     22  C   UNL     1       5.536   9.482   0.098  0.00  0.00    +0.004 C 
ATOM     23  C   UNL     1       4.124   9.319  -0.472  0.00  0.00    +0.070 C 
ATOM     24  C   UNL     1       4.128   9.725  -1.948  0.00  0.00    +0.004 C 
ATOM     25  C   UNL     1       4.625  11.167  -2.074  0.00  0.00    -0.076 C 
ATOM     26  H   UNL     1       6.614  10.541  -2.039  0.00  0.00    -0.081 HD
BRANCH  20  27
ATOM     27  C   UNL     1       6.541  12.608  -1.744  0.00  0.00    +0.019 C 
BRANCH  27  29
ATOM     28  N   UNL     1       8.710  13.752  -1.416  0.00  0.00    -0.317 N 
ATOM     29  C   UNL     1       8.008  12.601  -1.399  0.00  0.00    +0.196 C 
ATOM     30  O   UNL     1       8.558  11.560  -1.107  0.00  0.00    -0.278 OA
ATOM     31  H   UNL     1       8.211  14.696  -1.682  0.00  0.00    +0.149 HD
BRANCH  28  32
ATOM     32  C   UNL     1      10.136  13.746  -1.082  0.00  0.00    +0.104 C 
BRANCH  32  34
ATOM     33  C   UNL     1      12.178  15.162  -0.827  0.00  0.00    +0.005 C 
ATOM     34  C   UNL     1      10.689  15.169  -1.176  0.00  0.00    +0.015 C 
ENDBRANCH  32  34
ENDBRANCH  28  32
ENDBRANCH  27  29
ENDBRANCH  20  27
ENDBRANCH   1  23
TORSDOF 7
