REMARK  Name = ZINC36635482
REMARK  5 active torsions:
REMARK  status: ('A' for Active; 'I' for Inactive)
REMARK    1  A    between atoms: C_1  and  C_2
REMARK    2  A    between atoms: C_5  and  C_24
REMARK    3  A    between atoms: C_6  and  N_8
REMARK    4  A    between atoms: C_12  and  N_16
REMARK    5  A    between atoms: N_16  and  C_17
REMARK                            x       y       z     vdW  Elec       q    Type
REMARK                         _______ _______ _______ _____ _____    ______ ____
ROOT
ATOM      1  N   UNL     1       0.050  -2.798   2.395  0.00  0.00    -0.209 N 
ATOM      2  C   UNL     1       1.184  -3.146   3.018  0.00  0.00    +0.228 C 
ATOM      3  O   UNL     1       2.304  -2.897   2.626  0.00  0.00    -0.275 OA
ATOM      4  C   UNL     1       0.845  -3.896   4.287  0.00  0.00    +0.128 C 
ATOM      5  C   UNL     1      -0.697  -3.923   4.290  0.00  0.00    +0.166 C 
ATOM      6  C   UNL     1      -1.068  -3.179   3.025  0.00  0.00    +0.247 C 
ATOM      7  O   UNL     1      -2.198  -2.965   2.642  0.00  0.00    -0.273 OA
ENDROOT
BRANCH   1  13
ATOM      8  C   UNL     1      -0.018   1.503   0.010  0.00  0.00    +0.044 C 
ATOM      9  C   UNL     1       0.002  -0.004   0.002  0.00  0.00    -0.049 A 
ATOM     10  C   UNL     1       0.006  -0.688  -1.200  0.00  0.00    +0.004 A 
ATOM     11  C   UNL     1       0.024  -2.071  -1.211  0.00  0.00    +0.005 A 
ATOM     12  C   UNL     1       0.039  -2.773  -0.022  0.00  0.00    -0.029 A 
ATOM     13  C   UNL     1       0.035  -2.089   1.186  0.00  0.00    +0.047 A 
ATOM     14  C   UNL     1       0.023  -0.700   1.194  0.00  0.00    +0.027 A 
ATOM     15  C   UNL     1       0.058  -4.279  -0.035  0.00  0.00    +0.045 C 
ENDBRANCH   1  13
BRANCH   5  16
ATOM     16  N   UNL     1      -1.222  -3.227   5.468  0.00  0.00    -0.333 N 
ATOM     17  H   UNL     1      -0.691  -2.543   5.904  0.00  0.00    +0.147 HD
BRANCH  16  18
ATOM     18  C   UNL     1      -2.489  -3.551   5.963  0.00  0.00    +0.028 A 
ATOM     19  C   UNL     1      -3.248  -4.535   5.344  0.00  0.00    +0.026 A 
ATOM     20  C   UNL     1      -4.499  -4.853   5.835  0.00  0.00    +0.040 A 
ATOM     21  C   UNL     1      -4.997  -4.191   6.945  0.00  0.00    +0.124 A 
ATOM     22  C   UNL     1      -4.242  -3.210   7.565  0.00  0.00    +0.040 A 
ATOM     23  C   UNL     1      -2.988  -2.892   7.080  0.00  0.00    +0.026 A 
ATOM     24  F   UNL     1      -6.221  -4.503   7.424  0.00  0.00    -0.205 F 
ENDBRANCH  16  18
ENDBRANCH   5  16
TORSDOF 3
