REMARK  Name = ZINC50470285
REMARK  5 active torsions:
REMARK  status: ('A' for Active; 'I' for Inactive)
REMARK    1  A    between atoms: C_3  and  O_11
REMARK    2  A    between atoms: C_6  and  C_7
REMARK    3  A    between atoms: N_8  and  O_9
REMARK    4  A    between atoms: O_11  and  C_12
REMARK    5  A    between atoms: C_15  and  N_19
REMARK                            x       y       z     vdW  Elec       q    Type
REMARK                         _______ _______ _______ _____ _____    ______ ____
ROOT
ATOM      1  C   UNL     1       0.213   1.417  -0.691  0.00  0.00    +0.015 A 
ATOM      2  C   UNL     1       1.424   2.039  -0.478  0.00  0.00    +0.047 A 
ATOM      3  C   UNL     1       2.490   1.323   0.052  0.00  0.00    +0.128 A 
ATOM      4  C   UNL     1       2.340  -0.021   0.369  0.00  0.00    +0.047 A 
ATOM      5  C   UNL     1       1.131  -0.649   0.158  0.00  0.00    +0.015 A 
ATOM      6  C   UNL     1       0.058   0.067  -0.373  0.00  0.00    +0.018 A 
ENDROOT
BRANCH   6   7
ATOM      7  C   UNL     1      -1.241  -0.603  -0.600  0.00  0.00    +0.162 C 
ATOM      8  N   UNL     1      -2.041  -0.174  -1.532  0.00  0.00    -0.072 NA
ATOM      9  N   UNL     1      -1.606  -1.688   0.179  0.00  0.00    -0.340 N 
ATOM     10  H   UNL     1      -1.009  -2.009   0.874  0.00  0.00    +0.144 HD
ATOM     11  H   UNL     1      -2.457  -2.128   0.030  0.00  0.00    +0.144 HD
BRANCH   8  12
ATOM     12  O   UNL     1      -1.615   0.848  -2.415  0.00  0.00    -0.408 OA
ATOM     13  H   UNL     1      -2.278   1.101  -3.073  0.00  0.00    +0.328 HD
ENDBRANCH   8  12
ENDBRANCH   6   7
BRANCH   3  14
ATOM     14  O   UNL     1       3.682   1.939   0.261  0.00  0.00    -0.456 OA
BRANCH  14  15
ATOM     15  C   UNL     1       3.796   2.762   1.337  0.00  0.00    +0.130 A 
ATOM     16  C   UNL     1       2.712   2.955   2.181  0.00  0.00    +0.048 A 
ATOM     17  C   UNL     1       2.829   3.791   3.274  0.00  0.00    +0.038 A 
ATOM     18  C   UNL     1       4.026   4.436   3.528  0.00  0.00    +0.145 A 
ATOM     19  C   UNL     1       5.109   4.246   2.688  0.00  0.00    +0.075 A 
ATOM     20  C   UNL     1       4.997   3.405   1.595  0.00  0.00    +0.068 A 
ATOM     21 CL   UNL     1       6.609   5.057   3.009  0.00  0.00    -0.081 Cl
BRANCH  18  22
ATOM     22  N   UNL     1       4.148   5.333   4.699  0.00  0.00    +0.058 N 
ATOM     23  O   UNL     1       3.203   5.500   5.434  0.00  0.00    -0.126 OA
ATOM     24  O   UNL     1       5.194   5.897   4.922  0.00  0.00    -0.126 OA
ENDBRANCH  18  22
ENDBRANCH  14  15
ENDBRANCH   3  14
TORSDOF 5
