REMARK  Name = ZINC39201056
REMARK  9 active torsions:
REMARK  status: ('A' for Active; 'I' for Inactive)
REMARK    1  A    between atoms: C_1  and  N_2
REMARK    2  A    between atoms: C_5  and  C_8
REMARK    3  A    between atoms: N_10  and  C_11
REMARK    4  A    between atoms: N_14  and  C_31
REMARK    5  A    between atoms: N_21  and  C_24
REMARK    6  A    between atoms: C_24  and  C_25
REMARK    7  A    between atoms: N_27  and  C_28
REMARK    8  A    between atoms: C_28  and  C_29
REMARK    9  A    between atoms: C_31  and  C_32
REMARK                            x       y       z     vdW  Elec       q    Type
REMARK                         _______ _______ _______ _____ _____    ______ ____
ROOT
ATOM      1  C   UNL     1       0.664  -5.897   2.284  0.00  0.00    +0.177 C 
ATOM      2  C   UNL     1       1.723  -6.731   3.006  0.00  0.00    +0.137 C 
ATOM      3  N   UNL     1       1.325  -8.140   3.016  0.00  0.00    -0.322 N 
ATOM      4  C   UNL     1       0.784  -8.697   1.851  0.00  0.00    +0.052 A 
ATOM      5  C   UNL     1       1.514  -9.597   1.093  0.00  0.00    +0.025 A 
ATOM      6  C   UNL     1       0.971 -10.119  -0.067  0.00  0.00    +0.002 A 
ATOM      7  C   UNL     1      -0.296  -9.744  -0.474  0.00  0.00    +0.002 A 
ATOM      8  C   UNL     1      -1.035  -8.851   0.281  0.00  0.00    +0.025 A 
ATOM      9  C   UNL     1      -0.503  -8.333   1.450  0.00  0.00    +0.058 A 
ATOM     10  N   UNL     1      -1.253  -7.471   2.260  0.00  0.00    -0.259 N 
ATOM     11  C   UNL     1      -0.713  -6.322   2.722  0.00  0.00    +0.242 C 
ATOM     12  O   UNL     1      -1.342  -5.626   3.491  0.00  0.00    -0.273 OA
ENDROOT
BRANCH   1  15
ATOM     13  C   UNL     1       0.429  -3.531   1.749  0.00  0.00    +0.217 C 
ATOM     14  O   UNL     1      -0.121  -3.849   0.716  0.00  0.00    -0.275 OA
ATOM     15  N   UNL     1       0.860  -4.481   2.603  0.00  0.00    -0.302 N 
ATOM     16  H   UNL     1       1.300  -4.226   3.429  0.00  0.00    +0.150 HD
BRANCH  13  21
ATOM     17  C   UNL     1       2.048   1.911   1.560  0.00  0.00    -0.096 C 
ATOM     18  N   UNL     1       1.783   0.481   1.348  0.00  0.00    +0.378 N 
ATOM     19  C   UNL     1       0.334   0.263   1.253  0.00  0.00    -0.078 C 
ATOM     20  C   UNL     1       0.056  -1.211   0.952  0.00  0.00    -0.006 C 
ATOM     21  C   UNL     1       0.631  -2.075   2.078  0.00  0.00    +0.071 C 
ATOM     22  C   UNL     1       2.128  -1.784   2.216  0.00  0.00    -0.006 C 
ATOM     23  C   UNL     1       2.330  -0.288   2.471  0.00  0.00    -0.078 C 
ATOM     24  H   UNL     1       2.223   0.182   0.490  0.00  0.00    -0.082 HD
ENDBRANCH  13  21
ENDBRANCH   1  15
BRANCH  10  25
ATOM     25  C   UNL     1      -2.631  -7.820   2.612  0.00  0.00    +0.209 C 
BRANCH  25  26
ATOM     26  C   UNL     1      -2.648  -8.519   3.947  0.00  0.00    +0.232 C 
ATOM     27  O   UNL     1      -1.627  -8.610   4.596  0.00  0.00    -0.274 OA
ATOM     28  N   UNL     1      -3.796  -9.042   4.420  0.00  0.00    -0.303 N 
ATOM     29  H   UNL     1      -4.627  -8.900   3.941  0.00  0.00    +0.150 HD
BRANCH  28  30
ATOM     30  C   UNL     1      -3.789  -9.824   5.659  0.00  0.00    +0.193 C 
BRANCH  30  31
ATOM     31  C   UNL     1      -5.132 -10.378   5.897  0.00  0.00    -0.087 C 
ATOM     32  C   UNL     1      -6.203 -10.820   6.086  0.00  0.00    +0.005 C 
ENDBRANCH  30  31
ENDBRANCH  28  30
ENDBRANCH  25  26
ENDBRANCH  10  25
BRANCH   3  33
ATOM     33  C   UNL     1       1.490  -8.953   4.224  0.00  0.00    +0.143 C 
BRANCH  33  34
ATOM     34  C   UNL     1       2.888  -9.514   4.265  0.00  0.00    +0.007 A 
ATOM     35  C   UNL     1       3.296 -10.792   3.818  0.00  0.00    +0.046 A 
ATOM     36  C   UNL     1       4.620 -10.878   4.040  0.00  0.00    +0.195 A 
ATOM     37  O   UNL     1       5.033  -9.726   4.594  0.00  0.00    -0.471 OA
ATOM     38  C   UNL     1       3.988  -8.893   4.728  0.00  0.00    +0.200 A 
ENDBRANCH  33  34
ENDBRANCH   3  33
TORSDOF 8
