REMARK  Name = ZINC63291425
REMARK  11 active torsions:
REMARK  status: ('A' for Active; 'I' for Inactive)
REMARK    1  A    between atoms: C_1  and  C_2
REMARK    2  A    between atoms: C_4  and  C_13
REMARK    3  A    between atoms: C_13  and  C_14
REMARK    4  A    between atoms: C_14  and  N_15
REMARK    5  A    between atoms: N_15  and  S_16
REMARK    6  A    between atoms: S_16  and  C_19
REMARK    7  A    between atoms: C_21  and  C_27
REMARK    8  A    between atoms: C_24  and  O_25
REMARK    9  A    between atoms: O_25  and  C_26
REMARK   10  A    between atoms: C_27  and  C_28
REMARK   11  A    between atoms: C_27  and  C_29
REMARK                            x       y       z     vdW  Elec       q    Type
REMARK                         _______ _______ _______ _____ _____    ______ ____
ROOT
ATOM      1  N   UNL     1      -4.871  -0.928  -1.576  0.00  0.00    -0.190 NA
ATOM      2  H   UNL     1      -4.834  -0.330  -2.340  0.00  0.00    +0.148 HD
ENDROOT
BRANCH   1   3
ATOM      3  S   UNL     1      -6.007  -2.132  -1.522  0.00  0.00    +0.062 S 
ATOM      4  O   UNL     1      -6.774  -2.021  -2.713  0.00  0.00    -0.153 OA
ATOM      5  O   UNL     1      -5.319  -3.323  -1.166  0.00  0.00    -0.153 OA
BRANCH   3   6
ATOM      6  C   UNL     1      -7.095  -1.761  -0.186  0.00  0.00    +0.147 A 
ATOM      7  C   UNL     1      -8.399  -1.381  -0.441  0.00  0.00    +0.036 A 
ATOM      8  C   UNL     1      -9.253  -1.090   0.606  0.00  0.00    -0.043 A 
ATOM      9  C   UNL     1      -8.805  -1.178   1.911  0.00  0.00    +0.007 A 
ATOM     10  C   UNL     1      -7.503  -1.558   2.172  0.00  0.00    +0.048 A 
ATOM     11  C   UNL     1      -6.645  -1.856   1.123  0.00  0.00    +0.146 A 
BRANCH   8  12
ATOM     12  C   UNL     1     -10.674  -0.675   0.325  0.00  0.00    +0.013 C 
ATOM     13  C   UNL     1     -11.635  -1.670   0.979  0.00  0.00    +0.012 C 
ATOM     14  C   UNL     1     -10.920   0.723   0.896  0.00  0.00    +0.012 C 
ENDBRANCH   8  12
BRANCH  11  15
ATOM     15  O   UNL     1      -5.365  -2.236   1.376  0.00  0.00    -0.493 OA
ATOM     16  C   UNL     1      -4.995  -2.395   2.748  0.00  0.00    +0.277 C 
ENDBRANCH  11  15
ENDBRANCH   3   6
ENDBRANCH   1   3
BRANCH   1  17
ATOM     17  C   UNL     1      -3.923  -0.764  -0.472  0.00  0.00    +0.110 C 
BRANCH  17  18
ATOM     18  C   UNL     1      -4.445   0.299   0.496  0.00  0.00    +0.050 C 
BRANCH  18  21
ATOM     19  C   UNL     1      -4.683   1.382   3.542  0.00  0.00    +0.035 C 
ATOM     20  C   UNL     1      -3.467   1.616   2.643  0.00  0.00    +0.103 C 
ATOM     21  C   UNL     1      -3.410   0.562   1.559  0.00  0.00    -0.037 C 
ATOM     22  C   UNL     1      -2.242  -0.096   1.738  0.00  0.00    +0.000 A 
ATOM     23  C   UNL     1      -1.610  -1.211   1.023  0.00  0.00    +0.025 A 
ATOM     24  C   UNL     1      -0.408  -1.665   1.446  0.00  0.00    +0.019 A 
ATOM     25  C   UNL     1       0.247  -1.097   2.549  0.00  0.00    +0.017 A 
ATOM     26  C   UNL     1      -0.270  -0.070   3.256  0.00  0.00    +0.027 A 
ATOM     27  C   UNL     1      -1.530   0.486   2.898  0.00  0.00    +0.043 A 
ATOM     28  N   UNL     1      -2.230   1.467   3.417  0.00  0.00    -0.378 N 
ATOM     29 BR   UNL     1       0.410  -3.101   0.528  0.00  0.00    -0.050 Br
ATOM     30  H   UNL     1      -1.974   2.003   4.183  0.00  0.00    +0.160 HD
ENDBRANCH  18  21
ENDBRANCH  17  18
ENDBRANCH   1  17
TORSDOF 7
