REMARK  Name = ZINC06149107
REMARK  14 active torsions:
REMARK  status: ('A' for Active; 'I' for Inactive)
REMARK    1  A    between atoms: C_1  and  C_2
REMARK    2  A    between atoms: C_2  and  C_3
REMARK    3  A    between atoms: C_3  and  C_4
REMARK    4  A    between atoms: C_3  and  C_5
REMARK    5  A    between atoms: C_3  and  N_6
REMARK    6  A    between atoms: C_7  and  C_11
REMARK    7  A    between atoms: C_11  and  C_13
REMARK    8  A    between atoms: C_11  and  N_72
REMARK    9  A    between atoms: C_17  and  C_26
REMARK   10  A    between atoms: C_19  and  C_25
REMARK   11  A    between atoms: C_27  and  C_28
REMARK   12  A    between atoms: C_27  and  N_72
REMARK   13  A    between atoms: C_35  and  C_36
REMARK   14  A    between atoms: C_35  and  N_72
REMARK                            x       y       z     vdW  Elec       q    Type
REMARK                         _______ _______ _______ _____ _____    ______ ____
ROOT
ATOM      1  C   UNL     1      -3.060   1.565   0.347  0.00  0.00    +0.040 C 
ENDROOT
BRANCH   1   2
ATOM      2  C   UNL     1      -4.005   1.734   1.509  0.00  0.00    +0.011 A 
ATOM      3  C   UNL     1      -4.457   0.643   2.175  0.00  0.00    +0.017 A 
ATOM      4  C   UNL     1      -5.370   0.841   3.303  0.00  0.00    -0.001 A 
ATOM      5  C   UNL     1      -5.866  -0.245   4.031  0.00  0.00    +0.013 A 
ATOM      6  C   UNL     1      -6.721  -0.027   5.074  0.00  0.00    -0.050 A 
ATOM      7  C   UNL     1      -7.102   1.263   5.417  0.00  0.00    +0.008 A 
ATOM      8  C   UNL     1      -6.625   2.348   4.714  0.00  0.00    -0.026 A 
ATOM      9  C   UNL     1      -5.753   2.150   3.648  0.00  0.00    +0.052 A 
ATOM     10  N   UNL     1      -5.262   3.217   2.926  0.00  0.00    -0.322 N 
ATOM     11  H   UNL     1      -5.535   4.147   3.173  0.00  0.00    +0.169 HD
ATOM     12  C   UNL     1      -4.420   3.026   1.895  0.00  0.00    +0.251 A 
ATOM     13  O   UNL     1      -4.005   3.992   1.280  0.00  0.00    -0.268 OA
ATOM     14  C   UNL     1      -7.046   3.743   5.098  0.00  0.00    +0.046 C 
ATOM     15  C   UNL     1      -7.256  -1.197   5.859  0.00  0.00    +0.044 C 
ENDBRANCH   1   2
BRANCH   1  17
ATOM     16  N   UNL     1      -0.608   1.536   1.049  0.00  0.00    -0.225 N 
ATOM     17  C   UNL     1      -1.730   2.186   0.687  0.00  0.00    +0.143 A 
ATOM     18  N   UNL     1      -1.441   3.465   0.690  0.00  0.00    -0.115 NA
ATOM     19  N   UNL     1      -0.204   3.593   1.028  0.00  0.00    -0.023 NA
ATOM     20  N   UNL     1       0.302   2.429   1.246  0.00  0.00    -0.043 NA
BRANCH  16  21
ATOM     21  C   UNL     1      -0.449   0.086   1.187  0.00  0.00    +0.061 C 
ATOM     22  C   UNL     1      -1.491  -0.450   2.170  0.00  0.00    +0.036 C 
ATOM     23  C   UNL     1      -0.643  -0.580  -0.177  0.00  0.00    +0.036 C 
BRANCH  21  25
ATOM     24  C   UNL     1       1.121  -1.739   1.855  0.00  0.00    +0.006 C 
ATOM     25  C   UNL     1       0.955  -0.225   1.711  0.00  0.00    +0.026 C 
ENDBRANCH  21  25
ENDBRANCH  16  21
ENDBRANCH   1  17
BRANCH   1  26
ATOM     26  N   UNL     1      -3.619   2.254  -0.835  0.00  0.00    +0.397 N 
ATOM     27  H   UNL     1      -3.586   3.268  -0.676  0.00  0.00    -0.079 HD
BRANCH  26  28
ATOM     28  C   UNL     1      -2.819   1.930  -2.035  0.00  0.00    -0.041 C 
BRANCH  28  29
ATOM     29  C   UNL     1      -1.597   2.811  -2.051  0.00  0.00    -0.064 A 
ATOM     30  C   UNL     1      -1.724   4.164  -2.308  0.00  0.00    +0.004 A 
ATOM     31  C   UNL     1      -0.605   4.974  -2.318  0.00  0.00    +0.038 A 
ATOM     32  C   UNL     1       0.646   4.429  -2.083  0.00  0.00    +0.123 A 
ATOM     33  C   UNL     1       0.773   3.073  -1.831  0.00  0.00    +0.038 A 
ATOM     34  C   UNL     1      -0.348   2.266  -1.816  0.00  0.00    +0.004 A 
ATOM     35  F   UNL     1       1.742   5.219  -2.097  0.00  0.00    -0.205 F 
ENDBRANCH  28  29
ENDBRANCH  26  28
BRANCH  26  36
ATOM     36  C   UNL     1      -5.025   1.845  -1.040  0.00  0.00    -0.001 C 
BRANCH  36  37
ATOM     37  C   UNL     1      -5.609   2.656  -2.168  0.00  0.00    +0.089 A 
ATOM     38  C   UNL     1      -5.700   2.264  -3.452  0.00  0.00    +0.042 A 
ATOM     39  C   UNL     1      -6.308   3.326  -4.162  0.00  0.00    +0.041 A 
ATOM     40  C   UNL     1      -6.551   4.302  -3.269  0.00  0.00    +0.195 A 
ATOM     41  O   UNL     1      -6.131   3.888  -2.062  0.00  0.00    -0.470 OA
ENDBRANCH  36  37
ENDBRANCH  26  36
ENDBRANCH   1  26
TORSDOF 9
