REMARK  Name = ZINC25561468
REMARK  8 active torsions:
REMARK  status: ('A' for Active; 'I' for Inactive)
REMARK    1  A    between atoms: C_1  and  C_2
REMARK    2  A    between atoms: C_2  and  C_4
REMARK    3  A    between atoms: C_2  and  N_14
REMARK    4  A    between atoms: C_15  and  C_17
REMARK    5  A    between atoms: C_17  and  C_19
REMARK    6  A    between atoms: C_17  and  N_20
REMARK    7  A    between atoms: N_23  and  S_26
REMARK    8  A    between atoms: S_26  and  C_29
REMARK                            x       y       z     vdW  Elec       q    Type
REMARK                         _______ _______ _______ _____ _____    ______ ____
ROOT
ATOM      1  C   UNL     1      -6.883   4.259   1.931  0.00  0.00    +0.016 C 
ATOM      2  C   UNL     1      -6.117   5.170   2.892  0.00  0.00    -0.004 C 
ENDROOT
BRANCH   1   3
ATOM      3  N   UNL     1      -7.821   3.423   2.691  0.00  0.00    +0.389 N 
ATOM      4  C   UNL     1      -8.991   4.200   3.120  0.00  0.00    -0.060 C 
ATOM      5  C   UNL     1     -10.024   3.258   3.748  0.00  0.00    +0.091 C 
ATOM      6  N   UNL     1      -9.366   2.486   4.813  0.00  0.00    -0.180 NA
ATOM      7  C   UNL     1      -8.111   1.790   4.493  0.00  0.00    +0.091 C 
ATOM      8  C   UNL     1      -7.153   2.789   3.836  0.00  0.00    -0.060 C 
ATOM      9  H   UNL     1      -8.178   2.622   2.026  0.00  0.00    -0.081 HD
BRANCH   6  10
ATOM     10  S   UNL     1     -10.021   2.402   6.332  0.00  0.00    +0.061 S 
ATOM     11  O   UNL     1     -11.411   2.659   6.189  0.00  0.00    -0.153 OA
ATOM     12  O   UNL     1      -9.523   1.210   6.923  0.00  0.00    -0.153 OA
BRANCH  10  13
ATOM     13  C   UNL     1      -9.354   3.742   7.261  0.00  0.00    +0.105 A 
ATOM     14  C   UNL     1      -8.188   3.569   7.983  0.00  0.00    +0.028 A 
ATOM     15  C   UNL     1      -7.662   4.622   8.709  0.00  0.00    +0.002 A 
ATOM     16  C   UNL     1      -8.307   5.844   8.720  0.00  0.00    +0.000 A 
ATOM     17  C   UNL     1      -9.476   6.015   8.003  0.00  0.00    +0.002 A 
ATOM     18  C   UNL     1      -9.999   4.964   7.273  0.00  0.00    +0.028 A 
ENDBRANCH  10  13
ENDBRANCH   6  10
ENDBRANCH   1   3
BRANCH   1  20
ATOM     19  N   UNL     1      -5.110   3.905   0.243  0.00  0.00    -0.310 N 
ATOM     20  C   UNL     1      -5.910   3.378   1.191  0.00  0.00    +0.200 C 
ATOM     21  O   UNL     1      -5.847   2.195   1.448  0.00  0.00    -0.278 OA
ATOM     22  H   UNL     1      -5.168   4.978   0.009  0.00  0.00    +0.149 HD
BRANCH  19  24
ATOM     23  C   UNL     1      -4.862   2.421  -1.685  0.00  0.00    +0.033 C 
ATOM     24  C   UNL     1      -4.164   3.048  -0.477  0.00  0.00    +0.101 C 
BRANCH  24  25
ATOM     25  C   UNL     1      -2.994   3.874  -0.945  0.00  0.00    -0.020 A 
ATOM     26  C   UNL     1      -3.146   5.207  -1.174  0.00  0.00    +0.006 A 
ATOM     27  C   UNL     1      -2.075   5.987  -1.607  0.00  0.00    +0.001 A 
ATOM     28  C   UNL     1      -0.847   5.439  -1.812  0.00  0.00    +0.008 A 
ATOM     29  C   UNL     1      -0.651   4.066  -1.585  0.00  0.00    -0.018 A 
ATOM     30  C   UNL     1      -1.740   3.273  -1.145  0.00  0.00    -0.013 A 
ATOM     31  C   UNL     1      -1.547   1.898  -0.924  0.00  0.00    +0.009 A 
ATOM     32  C   UNL     1      -0.317   1.351  -1.125  0.00  0.00    +0.001 A 
ATOM     33  C   UNL     1       0.754   2.131  -1.557  0.00  0.00    +0.001 A 
ATOM     34  C   UNL     1       0.603   3.464  -1.786  0.00  0.00    +0.008 A 
ENDBRANCH  24  25
ENDBRANCH  19  24
ENDBRANCH   1  20
TORSDOF 6
