REMARK  Name = ZINC12082395
REMARK  6 active torsions:
REMARK  status: ('A' for Active; 'I' for Inactive)
REMARK    1  A    between atoms: C_1  and  C_2
REMARK    2  A    between atoms: N_12  and  N_13
REMARK    3  A    between atoms: C_14  and  C_16
REMARK    4  A    between atoms: C_16  and  C_18
REMARK    5  A    between atoms: C_16  and  N_19
REMARK    6  A    between atoms: C_29  and  C_30
REMARK                            x       y       z     vdW  Elec       q    Type
REMARK                         _______ _______ _______ _____ _____    ______ ____
ROOT
ATOM      1  C   UNL     1       0.197  -5.541   6.487  0.00  0.00    +0.176 C 
ATOM      2  C   UNL     1       1.468  -4.974   7.123  0.00  0.00    +0.041 C 
ENDROOT
BRANCH   1   3
ATOM      3  N   UNL     1       0.171  -6.995   6.660  0.00  0.00    -0.280 N 
ATOM      4  C   UNL     1       1.145  -7.756   6.107  0.00  0.00    +0.263 A 
ATOM      5  O   UNL     1       2.050  -7.255   5.465  0.00  0.00    -0.267 OA
ATOM      6  C   UNL     1       1.069  -9.210   6.313  0.00  0.00    +0.065 A 
ATOM      7  C   UNL     1       2.023 -10.078   5.786  0.00  0.00    +0.015 A 
ATOM      8  C   UNL     1       1.903 -11.432   6.010  0.00  0.00    +0.001 A 
ATOM      9  C   UNL     1       0.843 -11.934   6.754  0.00  0.00    +0.002 A 
ATOM     10  C   UNL     1      -0.104 -11.101   7.279  0.00  0.00    +0.028 A 
ATOM     11  C   UNL     1      -0.009  -9.722   7.070  0.00  0.00    +0.079 A 
ATOM     12  N   UNL     1      -0.923  -8.868   7.573  0.00  0.00    -0.229 NA
ATOM     13  C   UNL     1      -0.835  -7.577   7.383  0.00  0.00    +0.145 A 
BRANCH  13  14
ATOM     14  C   UNL     1      -1.873  -6.705   7.971  0.00  0.00    +0.018 A 
ATOM     15  C   UNL     1      -3.224  -6.982   7.758  0.00  0.00    +0.011 A 
ATOM     16  C   UNL     1      -4.189  -6.165   8.311  0.00  0.00    +0.001 A 
ATOM     17  C   UNL     1      -3.819  -5.073   9.075  0.00  0.00    +0.000 A 
ATOM     18  C   UNL     1      -2.481  -4.792   9.290  0.00  0.00    +0.001 A 
ATOM     19  C   UNL     1      -1.507  -5.604   8.748  0.00  0.00    +0.011 A 
ENDBRANCH  13  14
ENDBRANCH   1   3
BRANCH   1  21
ATOM     20  N   UNL     1       0.198  -3.922   4.617  0.00  0.00    -0.205 N 
ATOM     21  C   UNL     1       0.179  -5.209   5.017  0.00  0.00    +0.255 C 
ATOM     22  O   UNL     1       0.148  -6.099   4.195  0.00  0.00    -0.272 OA
ATOM     23  H   UNL     1       0.223  -3.210   5.274  0.00  0.00    +0.177 HD
BRANCH  20  35
ATOM     24  C   UNL     1       0.240   1.808   0.475  0.00  0.00    +0.045 C 
ATOM     25  C   UNL     1       0.210   0.303   0.397  0.00  0.00    -0.029 A 
ATOM     26  C   UNL     1       0.178  -0.323  -0.833  0.00  0.00    +0.005 A 
ATOM     27  C   UNL     1       0.151  -1.704  -0.921  0.00  0.00    +0.001 A 
ATOM     28  C   UNL     1       0.155  -2.471   0.227  0.00  0.00    +0.012 A 
ATOM     29  C   UNL     1       0.187  -1.850   1.471  0.00  0.00    +0.028 A 
ATOM     30  C   UNL     1       0.220  -0.452   1.564  0.00  0.00    +0.046 A 
ATOM     31  N   UNL     1       0.255  -0.082   2.904  0.00  0.00    -0.279 N 
ATOM     32  C   UNL     1       0.251  -1.156   3.711  0.00  0.00    +0.269 C 
ATOM     33  O   UNL     1       0.275  -1.138   4.928  0.00  0.00    -0.268 OA
ATOM     34  C   UNL     1       0.200  -2.362   2.861  0.00  0.00    +0.153 C 
ATOM     35  N   UNL     1       0.181  -3.614   3.250  0.00  0.00    -0.174 NA
ATOM     36  H   UNL     1       0.278   0.836   3.216  0.00  0.00    +0.155 HD
ENDBRANCH  20  35
ENDBRANCH   1  21
TORSDOF 4
