REMARK  Name = ZINC19732506
REMARK  11 active torsions:
REMARK  status: ('A' for Active; 'I' for Inactive)
REMARK    1  A    between atoms: C_1  and  C_2
REMARK    2  A    between atoms: C_2  and  C_3
REMARK    3  A    between atoms: C_2  and  C_4
REMARK    4  A    between atoms: C_2  and  C_25
REMARK    5  A    between atoms: C_4  and  N_5
REMARK    6  A    between atoms: N_5  and  C_6
REMARK    7  A    between atoms: C_12  and  C_16
REMARK    8  A    between atoms: N_14  and  C_15
REMARK    9  A    between atoms: C_25  and  N_26
REMARK   10  A    between atoms: N_26  and  C_27
REMARK   11  A    between atoms: N_26  and  C_28
REMARK                            x       y       z     vdW  Elec       q    Type
REMARK                         _______ _______ _______ _____ _____    ______ ____
ROOT
ATOM      1  C   UNL     1       5.996   0.855   1.638  0.00  0.00    -0.067 C 
ATOM      2  C   UNL     1       7.200   1.414   0.875  0.00  0.00    -0.009 C 
ATOM      3  C   UNL     1       7.638   2.743   1.505  0.00  0.00    +0.054 C 
ATOM      4  C   UNL     1       6.423   3.622   1.649  0.00  0.00    +0.043 A 
ATOM      5  C   UNL     1       5.148   3.167   1.583  0.00  0.00    +0.004 A 
ATOM      6  C   UNL     1       4.326   4.292   1.762  0.00  0.00    +0.151 A 
ATOM      7  N   UNL     1       5.132   5.329   1.916  0.00  0.00    -0.166 NA
ATOM      8  N   UNL     1       6.362   4.948   1.858  0.00  0.00    -0.270 N 
ATOM      9  C   UNL     1       7.522   5.831   1.994  0.00  0.00    +0.172 C 
ATOM     10  C   UNL     1       4.765   1.729   1.364  0.00  0.00    +0.023 C 
ENDROOT
BRANCH   6  11
ATOM     11  C   UNL     1       2.849   4.314   1.770  0.00  0.00    +0.267 C 
ATOM     12  O   UNL     1       2.225   3.304   1.507  0.00  0.00    -0.268 OA
ATOM     13  N   UNL     1       2.194   5.455   2.062  0.00  0.00    -0.296 N 
ATOM     14  C   UNL     1       0.728   5.472   2.158  0.00  0.00    +0.108 C 
ATOM     15  C   UNL     1       0.334   6.069   3.517  0.00  0.00    +0.019 C 
ATOM     16  C   UNL     1       0.990   7.443   3.674  0.00  0.00    +0.003 C 
ATOM     17  C   UNL     1       2.512   7.290   3.638  0.00  0.00    +0.019 C 
ATOM     18  C   UNL     1       2.931   6.706   2.285  0.00  0.00    +0.108 C 
ENDBRANCH   6  11
BRANCH   1  19
ATOM     19  N   UNL     1       5.729  -0.519   1.193  0.00  0.00    +0.381 N 
ATOM     20  H   UNL     1       5.949  -0.591   0.118  0.00  0.00    -0.085 HD
ATOM     21  H   UNL     1       4.667  -0.746   1.366  0.00  0.00    -0.085 HD
BRANCH  19  22
ATOM     22  C   UNL     1       6.562  -1.481   1.928  0.00  0.00    -0.078 C 
BRANCH  22  24
ATOM     23  C   UNL     1       4.779  -3.214   1.679  0.00  0.00    +0.007 C 
ATOM     24  C   UNL     1       6.257  -2.898   1.438  0.00  0.00    -0.065 C 
ATOM     25  C   UNL     1       6.562  -2.997  -0.058  0.00  0.00    +0.007 C 
BRANCH  24  26
ATOM     26  C   UNL     1       7.124  -3.900   2.204  0.00  0.00    -0.075 C 
BRANCH  26  27
ATOM     27  N   UNL     1       6.860  -3.776   3.643  0.00  0.00    +0.376 N 
ATOM     28  C   UNL     1       5.726  -4.620   4.045  0.00  0.00    -0.097 C 
ATOM     29  C   UNL     1       8.059  -4.097   4.428  0.00  0.00    -0.097 C 
ATOM     30  H   UNL     1       6.592  -2.729   3.849  0.00  0.00    -0.083 HD
ENDBRANCH  26  27
ENDBRANCH  24  26
ENDBRANCH  22  24
ENDBRANCH  19  22
ENDBRANCH   1  19
TORSDOF 6
