REMARK  Name = ZINC49210588
REMARK  4 active torsions:
REMARK  status: ('A' for Active; 'I' for Inactive)
REMARK    1  A    between atoms: C_1  and  C_2
REMARK    2  A    between atoms: C_3  and  C_19
REMARK    3  A    between atoms: N_10  and  C_11
REMARK    4  A    between atoms: C_11  and  C_12
REMARK                            x       y       z     vdW  Elec       q    Type
REMARK                         _______ _______ _______ _____ _____    ______ ____
ROOT
ATOM      1  C   UNL     1      -0.018   1.503   0.010  0.00  0.00    +0.069 C 
ATOM      2  C   UNL     1       0.002  -0.004   0.002  0.00  0.00    +0.081 A 
ATOM      3  C   UNL     1       0.008  -0.789  -1.086  0.00  0.00    +0.127 A 
ATOM      4  O   UNL     1       0.027  -2.069  -0.657  0.00  0.00    -0.429 OA
ATOM      5  C   UNL     1       0.033  -2.050   0.685  0.00  0.00    +0.295 A 
ATOM      6  N   UNL     1       0.024  -0.803   1.085  0.00  0.00    -0.200 NA
ATOM      7  N   UNL     1       0.052  -3.164   1.510  0.00  0.00    -0.223 N 
ATOM      8  C   UNL     1       0.056  -3.012   2.849  0.00  0.00    +0.307 C 
ATOM      9  O   UNL     1       0.043  -1.897   3.333  0.00  0.00    -0.252 OA
ATOM     10  N   UNL     1       0.074  -4.095   3.650  0.00  0.00    -0.299 N 
ATOM     11  C   UNL     1      -0.005  -0.327  -2.521  0.00  0.00    +0.088 C 
ATOM     12  H   UNL     1       0.062  -4.054   1.123  0.00  0.00    +0.161 HD
ATOM     13  H   UNL     1       0.085  -4.985   3.263  0.00  0.00    +0.150 HD
ENDROOT
BRANCH  10  14
ATOM     14  C   UNL     1       0.079  -3.930   5.106  0.00  0.00    +0.111 C 
BRANCH  14  15
ATOM     15  C   UNL     1       0.100  -5.305   5.776  0.00  0.00    +0.032 C 
ATOM     16  C   UNL     1       0.227  -5.134   7.293  0.00  0.00    +0.009 C 
ATOM     17  C   UNL     1       0.170  -6.512   7.958  0.00  0.00    +0.028 C 
ATOM     18  C   UNL     1      -1.134  -7.208   7.559  0.00  0.00    +0.160 C 
ATOM     19  O   UNL     1      -1.203  -7.308   6.135  0.00  0.00    -0.379 OA
ATOM     20  C   UNL     1      -1.200  -6.048   5.460  0.00  0.00    +0.164 C 
ENDBRANCH  14  15
ENDBRANCH  10  14
TORSDOF 2
