REMARK  Name = ZINC09314843
REMARK  6 active torsions:
REMARK  status: ('A' for Active; 'I' for Inactive)
REMARK    1  A    between atoms: C_1  and  C_2
REMARK    2  A    between atoms: C_2  and  C_3
REMARK    3  A    between atoms: C_2  and  C_4
REMARK    4  A    between atoms: C_4  and  C_6
REMARK    5  A    between atoms: C_4  and  N_22
REMARK    6  A    between atoms: N_8  and  C_9
REMARK                            x       y       z     vdW  Elec       q    Type
REMARK                         _______ _______ _______ _____ _____    ______ ____
ROOT
ATOM      1  C   UNL     1       4.891   5.353   0.288  0.00  0.00    +0.161 C 
ENDROOT
BRANCH   1   2
ATOM      2  N   UNL     1       3.982   5.367   1.436  0.00  0.00    -0.316 N 
ATOM      3  C   UNL     1       2.993   6.323   1.521  0.00  0.00    +0.150 C 
ATOM      4  N   UNL     1       2.862   7.213   0.590  0.00  0.00    -0.113 NA
ATOM      5  S   UNL     1       1.573   8.174   1.055  0.00  0.00    +0.101 S 
ATOM      6  O   UNL     1       2.083   9.464   1.363  0.00  0.00    -0.146 OA
ATOM      7  O   UNL     1       0.512   7.950   0.136  0.00  0.00    -0.146 OA
ATOM      8  C   UNL     1       1.141   7.385   2.582  0.00  0.00    +0.123 A 
ATOM      9  C   UNL     1       2.075   6.344   2.670  0.00  0.00    +0.043 A 
ATOM     10  C   UNL     1       2.004   5.507   3.794  0.00  0.00    +0.013 A 
ATOM     11  C   UNL     1       1.046   5.720   4.760  0.00  0.00    +0.001 A 
ATOM     12  C   UNL     1       0.133   6.753   4.642  0.00  0.00    +0.002 A 
ATOM     13  C   UNL     1       0.192   7.594   3.539  0.00  0.00    +0.030 A 
ATOM     14  H   UNL     1       4.075   4.702   2.137  0.00  0.00    +0.148 HD
ENDBRANCH   1   2
BRANCH   1  15
ATOM     15  C   UNL     1       6.185   4.687   0.680  0.00  0.00    +0.238 C 
ATOM     16  O   UNL     1       6.186   3.813   1.520  0.00  0.00    -0.273 OA
ATOM     17  N   UNL     1       7.340   5.063   0.096  0.00  0.00    -0.284 N 
ATOM     18  H   UNL     1       7.327   5.674  -0.657  0.00  0.00    +0.155 HD
BRANCH  17  19
ATOM     19  C   UNL     1       8.560   4.571   0.577  0.00  0.00    +0.037 A 
ATOM     20  C   UNL     1       8.628   3.296   1.124  0.00  0.00    +0.027 A 
ATOM     21  C   UNL     1       9.831   2.808   1.599  0.00  0.00    +0.051 A 
ATOM     22  C   UNL     1      10.971   3.589   1.530  0.00  0.00    +0.167 A 
ATOM     23  C   UNL     1      10.906   4.870   0.982  0.00  0.00    +0.169 A 
ATOM     24  C   UNL     1       9.704   5.356   0.502  0.00  0.00    +0.073 A 
ATOM     25  O   UNL     1      12.159   5.424   1.034  0.00  0.00    -0.447 OA
ATOM     26  C   UNL     1      12.828   4.665   2.051  0.00  0.00    +0.254 C 
ATOM     27  O   UNL     1      12.264   3.353   1.919  0.00  0.00    -0.448 OA
ATOM     28  C   UNL     1      14.344   4.645   1.821  0.00  0.00    +0.093 C 
ATOM     29  C   UNL     1      14.883   5.727   2.793  0.00  0.00    +0.008 C 
ATOM     30  C   UNL     1      13.970   5.563   4.034  0.00  0.00    +0.008 C 
ATOM     31  C   UNL     1      12.578   5.247   3.442  0.00  0.00    +0.093 C 
ENDBRANCH  17  19
ENDBRANCH   1  15
BRANCH   1  33
ATOM     32  C   UNL     1       3.839   3.187  -0.378  0.00  0.00    +0.009 C 
ATOM     33  C   UNL     1       4.247   4.579  -0.864  0.00  0.00    +0.012 C 
ATOM     34  C   UNL     1       3.009   5.332  -1.354  0.00  0.00    +0.009 C 
ENDBRANCH   1  33
TORSDOF 4
