REMARK  Name = ZINC04188025
REMARK  9 active torsions:
REMARK  status: ('A' for Active; 'I' for Inactive)
REMARK    1  A    between atoms: C_1  and  C_2
REMARK    2  A    between atoms: C_2  and  C_3
REMARK    3  A    between atoms: C_3  and  C_5
REMARK    4  A    between atoms: C_3  and  N_6
REMARK    5  A    between atoms: C_7  and  C_9
REMARK    6  A    between atoms: C_9  and  N_10
REMARK    7  A    between atoms: N_12  and  C_34
REMARK    8  A    between atoms: N_23  and  C_24
REMARK    9  A    between atoms: C_29  and  C_30
REMARK                            x       y       z     vdW  Elec       q    Type
REMARK                         _______ _______ _______ _____ _____    ______ ____
ROOT
ATOM      1  N   UNL     1       3.715   5.162   1.679  0.00  0.00    -0.275 N 
ATOM      2  C   UNL     1       2.901   3.959   1.891  0.00  0.00    +0.217 C 
ATOM      3  N   UNL     1       2.009   3.852   0.713  0.00  0.00    -0.300 N 
ATOM      4  C   UNL     1       1.881   5.253   0.261  0.00  0.00    +0.115 C 
ATOM      5  C   UNL     1       3.138   5.939   0.739  0.00  0.00    +0.241 C 
ATOM      6  O   UNL     1       3.557   7.007   0.345  0.00  0.00    -0.273 OA
ATOM      7  C   UNL     1       0.651   5.896   0.894  0.00  0.00    +0.054 C 
ATOM      8  C   UNL     1       0.558   7.362   0.455  0.00  0.00    +0.112 C 
ATOM      9  N   UNL     1       0.596   7.418  -1.012  0.00  0.00    -0.285 N 
ATOM     10  C   UNL     1       1.709   6.766  -1.717  0.00  0.00    +0.112 C 
ATOM     11  C   UNL     1       1.793   5.306  -1.261  0.00  0.00    +0.054 C 
ATOM     12  C   UNL     1      -0.372   8.055  -1.700  0.00  0.00    +0.306 C 
ATOM     13  O   UNL     1      -0.370   8.032  -2.916  0.00  0.00    -0.252 OA
ATOM     14  N   UNL     1      -1.343   8.717  -1.040  0.00  0.00    -0.269 N 
ATOM     15  H   UNL     1      -1.332   8.754  -0.071  0.00  0.00    +0.156 HD
ENDROOT
BRANCH  14  16
ATOM     16  C   UNL     1      -2.367   9.351  -1.753  0.00  0.00    +0.046 A 
ATOM     17  C   UNL     1      -2.183   9.681  -3.089  0.00  0.00    +0.024 A 
ATOM     18  C   UNL     1      -3.196  10.303  -3.792  0.00  0.00    +0.002 A 
ATOM     19  C   UNL     1      -4.390  10.606  -3.162  0.00  0.00    +0.001 A 
ATOM     20  C   UNL     1      -4.574  10.284  -1.831  0.00  0.00    +0.014 A 
ATOM     21  C   UNL     1      -3.566   9.657  -1.124  0.00  0.00    +0.076 A 
BRANCH  21  22
ATOM     22  C   UNL     1      -3.768   9.307   0.328  0.00  0.00    +0.419 C 
ATOM     23  F   UNL     1      -5.044   9.712   0.732  0.00  0.00    -0.166 F 
ATOM     24  F   UNL     1      -3.642   7.924   0.495  0.00  0.00    -0.166 F 
ATOM     25  F   UNL     1      -2.804   9.960   1.103  0.00  0.00    -0.166 F 
ENDBRANCH  21  22
ENDBRANCH  14  16
BRANCH   3  26
ATOM     26  C   UNL     1       0.765   3.326   1.072  0.00  0.00    +0.032 A 
ATOM     27  C   UNL     1      -0.260   3.261   0.137  0.00  0.00    +0.023 A 
ATOM     28  C   UNL     1      -1.487   2.741   0.496  0.00  0.00    +0.002 A 
ATOM     29  C   UNL     1      -1.699   2.291   1.786  0.00  0.00    +0.000 A 
ATOM     30  C   UNL     1      -0.679   2.349   2.718  0.00  0.00    +0.002 A 
ATOM     31  C   UNL     1       0.551   2.868   2.366  0.00  0.00    +0.023 A 
ENDBRANCH   3  26
BRANCH   1  32
ATOM     32  C   UNL     1       4.964   5.471   2.381  0.00  0.00    +0.205 C 
BRANCH  32  34
ATOM     33  N   UNL     1       5.658   6.649   4.442  0.00  0.00    -0.311 N 
ATOM     34  C   UNL     1       4.656   6.252   3.632  0.00  0.00    +0.231 C 
ATOM     35  O   UNL     1       3.508   6.524   3.911  0.00  0.00    -0.274 OA
ATOM     36  H   UNL     1       6.577   6.432   4.219  0.00  0.00    +0.149 HD
BRANCH  33  37
ATOM     37  C   UNL     1       5.359   7.408   5.659  0.00  0.00    +0.070 C 
ATOM     38  C   UNL     1       5.243   8.895   5.317  0.00  0.00    +0.028 C 
BRANCH  37  40
ATOM     39  C   UNL     1       6.518   5.738   7.112  0.00  0.00    +0.005 C 
ATOM     40  C   UNL     1       6.484   7.205   6.676  0.00  0.00    +0.018 C 
ENDBRANCH  37  40
ENDBRANCH  33  37
ENDBRANCH  32  34
ENDBRANCH   1  32
TORSDOF 7
