REMARK  Name = ZINC25493497
REMARK  8 active torsions:
REMARK  status: ('A' for Active; 'I' for Inactive)
REMARK    1  A    between atoms: C_1  and  C_2
REMARK    2  A    between atoms: C_2  and  C_31
REMARK    3  A    between atoms: C_6  and  N_16
REMARK    4  A    between atoms: C_8  and  C_10
REMARK    5  A    between atoms: N_16  and  N_17
REMARK    6  A    between atoms: N_17  and  C_18
REMARK    7  A    between atoms: C_18  and  N_20
REMARK    8  A    between atoms: C_21  and  C_23
REMARK                            x       y       z     vdW  Elec       q    Type
REMARK                         _______ _______ _______ _____ _____    ______ ____
ROOT
ATOM      1  C   UNL     1       6.267   6.030   1.869  0.00  0.00    +0.041 C 
ATOM      2  C   UNL     1       6.020   6.291   0.382  0.00  0.00    +0.070 C 
ATOM      3  C   UNL     1       4.667   5.704  -0.025  0.00  0.00    +0.090 C 
ATOM      4  C   UNL     1       4.745   4.200  -0.022  0.00  0.00    +0.055 A 
ATOM      5  C   UNL     1       5.957   3.546  -0.034  0.00  0.00    +0.041 A 
ATOM      6  C   UNL     1       5.964   2.147  -0.043  0.00  0.00    +0.144 A 
ATOM      7  N   UNL     1       4.806   1.498  -0.032  0.00  0.00    -0.211 NA
ATOM      8  C   UNL     1       3.660   2.164  -0.022  0.00  0.00    +0.162 A 
ATOM      9  N   UNL     1       3.626   3.489  -0.014  0.00  0.00    -0.232 NA
ATOM     10  C   UNL     1       7.261   4.295  -0.035  0.00  0.00    +0.201 C 
ATOM     11  O   UNL     1       7.044   5.660  -0.394  0.00  0.00    -0.369 OA
ATOM     12  C   UNL     1       6.030   7.798   0.117  0.00  0.00    +0.041 C 
ENDROOT
BRANCH   8  13
ATOM     13  C   UNL     1       2.384   1.407  -0.013  0.00  0.00    +0.019 A 
ATOM     14  C   UNL     1       1.167   2.088   0.002  0.00  0.00    +0.011 A 
ATOM     15  C   UNL     1      -0.017   1.379   0.010  0.00  0.00    +0.001 A 
ATOM     16  C   UNL     1       0.002  -0.004   0.002  0.00  0.00    +0.000 A 
ATOM     17  C   UNL     1       1.206  -0.685  -0.013  0.00  0.00    +0.001 A 
ATOM     18  C   UNL     1       2.397   0.014  -0.021  0.00  0.00    +0.011 A 
ENDBRANCH   8  13
BRANCH   6  19
ATOM     19  N   UNL     1       7.161   1.450  -0.058  0.00  0.00    -0.249 N 
ATOM     20  H   UNL     1       8.116   1.997  -0.063  0.00  0.00    +0.172 HD
BRANCH  19  21
ATOM     21  N   UNL     1       7.156   0.049  -0.067  0.00  0.00    -0.246 N 
ATOM     22  H   UNL     1       6.202  -0.497  -0.062  0.00  0.00    +0.172 HD
BRANCH  21  23
ATOM     23  C   UNL     1       8.321  -0.629  -0.082  0.00  0.00    +0.153 C 
ATOM     24  S   UNL     1       8.315  -2.341  -0.093  0.00  0.00    -0.017 S 
BRANCH  23  25
ATOM     25  N   UNL     1       9.491   0.041  -0.088  0.00  0.00    -0.263 N 
ATOM     26  C   UNL     1      10.655  -0.637  -0.103  0.00  0.00    +0.250 C 
ATOM     27  O   UNL     1      10.651  -1.852  -0.111  0.00  0.00    -0.270 OA
ATOM     28  H   UNL     1       9.495   1.141  -0.081  0.00  0.00    +0.157 HD
BRANCH  26  29
ATOM     29  C   UNL     1      11.938   0.097  -0.110  0.00  0.00    +0.037 A 
ATOM     30  C   UNL     1      11.946   1.493  -0.106  0.00  0.00    +0.013 A 
ATOM     31  C   UNL     1      13.147   2.173  -0.107  0.00  0.00    +0.001 A 
ATOM     32  C   UNL     1      14.341   1.473  -0.122  0.00  0.00    +0.000 A 
ATOM     33  C   UNL     1      14.339   0.090  -0.131  0.00  0.00    +0.001 A 
ATOM     34  C   UNL     1      13.146  -0.602  -0.125  0.00  0.00    +0.013 A 
ENDBRANCH  26  29
ENDBRANCH  23  25
ENDBRANCH  21  23
ENDBRANCH  19  21
ENDBRANCH   6  19
TORSDOF 6
