REMARK  Name = ZINC01811016
REMARK  13 active torsions:
REMARK  status: ('A' for Active; 'I' for Inactive)
REMARK    1  A    between atoms: C_1  and  C_2
REMARK    2  A    between atoms: C_4  and  O_10
REMARK    3  A    between atoms: C_6  and  C_9
REMARK    4  A    between atoms: O_10  and  C_11
REMARK    5  A    between atoms: C_16  and  O_22
REMARK    6  A    between atoms: O_22  and  C_23
REMARK    7  A    between atoms: C_23  and  C_24
REMARK    8  A    between atoms: C_24  and  C_26
REMARK    9  A    between atoms: C_24  and  O_35
REMARK   10  A    between atoms: C_26  and  N_63
REMARK   11  A    between atoms: C_27  and  N_63
REMARK   12  A    between atoms: C_28  and  C_29
REMARK   13  A    between atoms: C_28  and  N_63
REMARK                            x       y       z     vdW  Elec       q    Type
REMARK                         _______ _______ _______ _____ _____    ______ ____
ROOT
ATOM      1  C   UNL     1      -0.860   3.692   3.099  0.00  0.00    +0.210 A 
ATOM      2  C   UNL     1       0.299   4.365   2.954  0.00  0.00    +0.245 A 
ATOM      3  O   UNL     1       0.346   5.674   2.673  0.00  0.00    -0.459 OA
ATOM      4  C   UNL     1      -0.766   6.422   2.525  0.00  0.00    +0.142 A 
ATOM      5  C   UNL     1      -0.682   7.778   2.240  0.00  0.00    +0.092 A 
ATOM      6  C   UNL     1      -1.840   8.522   2.093  0.00  0.00    +0.124 A 
ATOM      7  C   UNL     1      -3.090   7.923   2.229  0.00  0.00    +0.046 A 
ATOM      8  C   UNL     1      -3.190   6.590   2.510  0.00  0.00    +0.019 A 
ATOM      9  C   UNL     1      -2.032   5.826   2.660  0.00  0.00    +0.068 A 
ATOM     10  C   UNL     1      -2.096   4.386   2.964  0.00  0.00    +0.234 A 
ATOM     11  O   UNL     1      -3.164   3.811   3.094  0.00  0.00    -0.283 OA
ENDROOT
BRANCH   1  12
ATOM     12  O   UNL     1      -0.848   2.361   3.379  0.00  0.00    -0.449 OA
BRANCH  12  16
ATOM     13  C   UNL     1       3.051   1.391   6.151  0.00  0.00    +0.045 C 
ATOM     14  C   UNL     1       2.285   1.252   4.860  0.00  0.00    -0.028 A 
ATOM     15  C   UNL     1       1.062   1.878   4.713  0.00  0.00    +0.051 A 
ATOM     16  C   UNL     1       0.357   1.750   3.525  0.00  0.00    +0.129 A 
ATOM     17  C   UNL     1       0.882   0.992   2.487  0.00  0.00    +0.051 A 
ATOM     18  C   UNL     1       2.104   0.367   2.639  0.00  0.00    -0.028 A 
ATOM     19  C   UNL     1       2.806   0.497   3.825  0.00  0.00    +0.047 A 
ATOM     20 CL   UNL     1       4.343  -0.289   4.013  0.00  0.00    -0.083 Cl
ATOM     21  C   UNL     1       2.674  -0.455   1.513  0.00  0.00    +0.045 C 
ENDBRANCH  12  16
ENDBRANCH   1  12
BRANCH   6  22
ATOM     22  O   UNL     1      -1.756   9.848   1.815  0.00  0.00    -0.489 OA
BRANCH  22  23
ATOM     23  C   UNL     1      -2.988  10.561   1.676  0.00  0.00    +0.258 C 
BRANCH  23  24
ATOM     24  C   UNL     1      -2.695  12.030   1.366  0.00  0.00    +0.135 C 
BRANCH  24  25
ATOM     25  O   UNL     1      -2.034  12.630   2.482  0.00  0.00    -0.390 OA
ATOM     26  H   UNL     1      -2.548  12.608   3.301  0.00  0.00    +0.210 HD
ENDBRANCH  24  25
BRANCH  24  27
ATOM     27  C   UNL     1      -4.008  12.766   1.095  0.00  0.00    -0.044 C 
BRANCH  27  29
ATOM     28  C   UNL     1      -4.920  15.008   1.014  0.00  0.00    -0.096 C 
ATOM     29  N   UNL     1      -3.707  14.186   0.817  0.00  0.00    +0.382 N 
ATOM     30  H   UNL     1      -2.979  14.505   1.467  0.00  0.00    -0.082 HD
BRANCH  29  31
ATOM     31  C   UNL     1      -3.214  14.336  -0.568  0.00  0.00    -0.043 C 
BRANCH  31  32
ATOM     32  C   UNL     1      -2.708  15.744  -0.754  0.00  0.00    -0.064 A 
ATOM     33  C   UNL     1      -3.562  16.730  -1.213  0.00  0.00    +0.002 A 
ATOM     34  C   UNL     1      -3.100  18.022  -1.379  0.00  0.00    +0.000 A 
ATOM     35  C   UNL     1      -1.781  18.326  -1.096  0.00  0.00    +0.000 A 
ATOM     36  C   UNL     1      -0.926  17.339  -0.642  0.00  0.00    +0.000 A 
ATOM     37  C   UNL     1      -1.390  16.048  -0.471  0.00  0.00    +0.002 A 
ENDBRANCH  31  32
ENDBRANCH  29  31
ENDBRANCH  27  29
ENDBRANCH  24  27
ENDBRANCH  23  24
ENDBRANCH  22  23
ENDBRANCH   6  22
TORSDOF 10
