REMARK  Name = ZINC07985944
REMARK  4 active torsions:
REMARK  status: ('A' for Active; 'I' for Inactive)
REMARK    1  A    between atoms: C_1  and  C_2
REMARK    2  A    between atoms: N_11  and  C_15
REMARK    3  A    between atoms: C_15  and  C_16
REMARK    4  A    between atoms: C_16  and  C_18
REMARK                            x       y       z     vdW  Elec       q    Type
REMARK                         _______ _______ _______ _____ _____    ______ ____
ROOT
ATOM      1  C   UNL     1      -0.666   7.432  -0.542  0.00  0.00    +0.010 C 
ATOM      2  C   UNL     1       0.407   8.388  -1.067  0.00  0.00    +0.018 C 
ATOM      3  C   UNL     1       0.145   9.796  -0.526  0.00  0.00    +0.006 C 
ATOM      4  C   UNL     1       1.230  10.747  -1.034  0.00  0.00    +0.000 C 
ATOM      5  C   UNL     1       2.599  10.269  -0.547  0.00  0.00    +0.003 C 
ATOM      6  C   UNL     1       2.870   8.863  -1.088  0.00  0.00    +0.035 C 
ATOM      7  C   UNL     1       1.780   7.913  -0.606  0.00  0.00    +0.115 C 
ATOM      8  C   UNL     1       2.051   6.511  -1.100  0.00  0.00    +0.247 C 
ATOM      9  O   UNL     1       2.119   6.138  -2.252  0.00  0.00    -0.273 OA
ATOM     10  N   UNL     1       2.200   5.759   0.011  0.00  0.00    -0.217 N 
ATOM     11  C   UNL     1       2.068   6.492   1.123  0.00  0.00    +0.310 C 
ATOM     12  O   UNL     1       2.165   6.039   2.247  0.00  0.00    -0.252 OA
ATOM     13  N   UNL     1       1.816   7.788   0.857  0.00  0.00    -0.285 N 
ATOM     14  H   UNL     1       1.685   8.499   1.504  0.00  0.00    +0.151 HD
ENDROOT
BRANCH  10  15
ATOM     15  C   UNL     1       2.478   4.321   0.001  0.00  0.00    +0.197 C 
BRANCH  15  16
ATOM     16  C   UNL     1       1.179   3.558   0.009  0.00  0.00    +0.182 C 
ATOM     17  O   UNL     1       0.124   4.157   0.022  0.00  0.00    -0.290 OA
BRANCH  16  18
ATOM     18  C   UNL     1       1.189   2.088   0.002  0.00  0.00    +0.037 A 
ATOM     19  C   UNL     1       2.404   1.394  -0.014  0.00  0.00    +0.014 A 
ATOM     20  C   UNL     1       2.406   0.016  -0.021  0.00  0.00    +0.021 A 
ATOM     21  C   UNL     1       1.209  -0.683  -0.013  0.00  0.00    +0.042 A 
ATOM     22  C   UNL     1       0.002  -0.004   0.002  0.00  0.00    +0.040 A 
ATOM     23  C   UNL     1      -0.017   1.376   0.010  0.00  0.00    +0.053 A 
ATOM     24 CL   UNL     1      -1.530   2.226   0.021  0.00  0.00    -0.083 Cl
ATOM     25 CL   UNL     1       1.223  -2.419  -0.023  0.00  0.00    -0.083 Cl
ENDBRANCH  16  18
ENDBRANCH  15  16
ENDBRANCH  10  15
TORSDOF 3
