REMARK  Name = ZINC15944197
REMARK  12 active torsions:
REMARK  status: ('A' for Active; 'I' for Inactive)
REMARK    1  A    between atoms: C_1  and  C_2
REMARK    2  A    between atoms: C_3  and  C_14
REMARK    3  A    between atoms: C_5  and  C_7
REMARK    4  A    between atoms: C_14  and  S_15
REMARK    5  A    between atoms: S_15  and  C_18
REMARK    6  A    between atoms: C_18  and  C_19
REMARK    7  A    between atoms: N_21  and  C_22
REMARK    8  A    between atoms: C_22  and  C_23
REMARK    9  A    between atoms: C_23  and  C_24
REMARK   10  A    between atoms: C_24  and  N_25
REMARK   11  A    between atoms: C_27  and  C_34
REMARK   12  A    between atoms: C_30  and  C_33
REMARK                            x       y       z     vdW  Elec       q    Type
REMARK                         _______ _______ _______ _____ _____    ______ ____
ROOT
ATOM      1  S   UNL     1      -3.101  -0.196  -1.694  0.00  0.00    -0.017 S 
ATOM      2  O   UNL     1      -2.386   0.871  -2.302  0.00  0.00    -0.174 OA
ATOM      3  O   UNL     1      -3.093  -1.475  -2.313  0.00  0.00    -0.174 OA
ENDROOT
BRANCH   1   4
ATOM      4  C   UNL     1      -2.513  -0.381   0.013  0.00  0.00    +0.225 C 
BRANCH   4   7
ATOM      5  C   UNL     1      -0.018   1.503   0.010  0.00  0.00    +0.088 C 
ATOM      6  C   UNL     1       0.002  -0.004   0.002  0.00  0.00    +0.127 A 
ATOM      7  C   UNL     1      -1.070  -0.816   0.003  0.00  0.00    +0.104 A 
ATOM      8  N   UNL     1      -0.627  -2.083  -0.007  0.00  0.00    -0.212 NA
ATOM      9  C   UNL     1       0.685  -2.068  -0.014  0.00  0.00    +0.230 A 
ATOM     10  O   UNL     1       1.098  -0.788  -0.013  0.00  0.00    -0.440 OA
BRANCH   9  11
ATOM     11  C   UNL     1       1.562  -3.257  -0.025  0.00  0.00    +0.072 A 
ATOM     12  C   UNL     1       1.006  -4.538  -0.036  0.00  0.00    +0.016 A 
ATOM     13  C   UNL     1       1.830  -5.644  -0.047  0.00  0.00    +0.001 A 
ATOM     14  C   UNL     1       3.205  -5.488  -0.047  0.00  0.00    +0.003 A 
ATOM     15  C   UNL     1       3.764  -4.224  -0.036  0.00  0.00    +0.039 A 
ATOM     16  C   UNL     1       2.951  -3.106  -0.031  0.00  0.00    +0.136 A 
ATOM     17  F   UNL     1       3.498  -1.871  -0.026  0.00  0.00    -0.205 F 
ENDBRANCH   9  11
ENDBRANCH   4   7
ENDBRANCH   1   4
BRANCH   1  18
ATOM     18  C   UNL     1      -4.824   0.323  -1.470  0.00  0.00    +0.261 C 
BRANCH  18  19
ATOM     19  C   UNL     1      -5.468   0.523  -2.817  0.00  0.00    +0.234 C 
ATOM     20  O   UNL     1      -4.827   0.335  -3.829  0.00  0.00    -0.274 OA
ATOM     21  N   UNL     1      -6.756   0.912  -2.898  0.00  0.00    -0.314 N 
ATOM     22  H   UNL     1      -7.269   1.063  -2.089  0.00  0.00    +0.149 HD
BRANCH  21  23
ATOM     23  C   UNL     1      -7.381   1.107  -4.208  0.00  0.00    +0.102 C 
BRANCH  23  24
ATOM     24  C   UNL     1      -8.835   1.545  -4.020  0.00  0.00    +0.000 C 
BRANCH  24  25
ATOM     25  C   UNL     1      -9.489   1.748  -5.388  0.00  0.00    -0.077 C 
BRANCH  25  26
ATOM     26  N   UNL     1     -10.884   2.169  -5.207  0.00  0.00    +0.380 N 
ATOM     27  C   UNL     1     -11.640   1.087  -4.563  0.00  0.00    -0.076 C 
ATOM     28  C   UNL     1     -13.074   1.549  -4.298  0.00  0.00    -0.031 C 
ATOM     29  C   UNL     1     -13.740   1.918  -5.628  0.00  0.00    +0.003 C 
ATOM     30  C   UNL     1     -12.902   2.994  -6.325  0.00  0.00    -0.031 C 
ATOM     31  C   UNL     1     -11.474   2.479  -6.514  0.00  0.00    -0.076 C 
ATOM     32  C   UNL     1     -13.516   3.315  -7.689  0.00  0.00    +0.005 C 
ATOM     33  C   UNL     1     -13.860   0.419  -3.629  0.00  0.00    +0.005 C 
ATOM     34  H   UNL     1     -10.914   2.990  -4.622  0.00  0.00    -0.082 HD
ENDBRANCH  25  26
ENDBRANCH  24  25
ENDBRANCH  23  24
ENDBRANCH  21  23
ENDBRANCH  18  19
ENDBRANCH   1  18
TORSDOF 9
