REMARK  Name = ZINC39608068
REMARK  9 active torsions:
REMARK  status: ('A' for Active; 'I' for Inactive)
REMARK    1  A    between atoms: C_1  and  C_2
REMARK    2  A    between atoms: C_3  and  C_15
REMARK    3  A    between atoms: C_4  and  C_7
REMARK    4  A    between atoms: C_19  and  C_28
REMARK    5  A    between atoms: N_30  and  C_31
REMARK    6  A    between atoms: C_31  and  C_33
REMARK    7  A    between atoms: C_31  and  C_34
REMARK    8  A    between atoms: C_34  and  C_35
REMARK    9  A    between atoms: C_34  and  C_36
REMARK                            x       y       z     vdW  Elec       q    Type
REMARK                         _______ _______ _______ _____ _____    ______ ____
ROOT
ATOM      1  C   UNL     1      -2.769   0.109   1.145  0.00  0.00    +0.252 C 
ATOM      2  O   UNL     1      -3.611   0.329   0.295  0.00  0.00    -0.270 OA
ATOM      3  N   UNL     1      -3.063   0.293   2.448  0.00  0.00    -0.296 N 
ATOM      4  C   UNL     1      -2.211  -0.008   3.622  0.00  0.00    +0.121 C 
ATOM      5  C   UNL     1      -2.457   1.167   4.595  0.00  0.00    +0.100 C 
ATOM      6  C   UNL     1      -3.838   1.719   4.202  0.00  0.00    -0.004 C 
ATOM      7  C   UNL     1      -4.309   0.847   3.029  0.00  0.00    +0.115 C 
ATOM      8  C   UNL     1      -3.719   3.173   3.755  0.00  0.00    -0.010 C 
ATOM      9  C   UNL     1      -5.112   3.716   3.424  0.00  0.00    -0.082 C 
ATOM     10  N   UNL     1      -5.972   3.616   4.609  0.00  0.00    +0.379 N 
ATOM     11  C   UNL     1      -6.157   2.207   4.977  0.00  0.00    -0.082 C 
ATOM     12  C   UNL     1      -4.808   1.599   5.373  0.00  0.00    -0.010 C 
ATOM     13  H   UNL     1      -5.543   4.109   5.378  0.00  0.00    -0.086 HD
ATOM     14  H   UNL     1      -6.870   4.029   4.407  0.00  0.00    -0.086 HD
ENDROOT
BRANCH   1  17
ATOM     15  C   UNL     1      -0.410   1.919   0.182  0.00  0.00    +0.090 C 
ATOM     16  C   UNL     1      -0.389   0.419   0.329  0.00  0.00    +0.147 A 
ATOM     17  C   UNL     1      -1.429  -0.356   0.751  0.00  0.00    +0.106 A 
ATOM     18  C   UNL     1      -0.952  -1.748   0.738  0.00  0.00    +0.128 A 
ATOM     19  N   UNL     1       0.290  -1.721   0.326  0.00  0.00    -0.077 NA
ATOM     20  O   UNL     1       0.648  -0.378   0.063  0.00  0.00    -0.359 OA
BRANCH  18  21
ATOM     21  C   UNL     1      -1.730  -2.951   1.118  0.00  0.00    +0.041 A 
ATOM     22  C   UNL     1      -2.904  -3.272   0.435  0.00  0.00    +0.052 A 
ATOM     23  C   UNL     1      -3.624  -4.394   0.793  0.00  0.00    +0.021 A 
ATOM     24  C   UNL     1      -3.184  -5.200   1.828  0.00  0.00    +0.003 A 
ATOM     25  C   UNL     1      -2.021  -4.888   2.509  0.00  0.00    +0.021 A 
ATOM     26  C   UNL     1      -1.289  -3.772   2.156  0.00  0.00    +0.052 A 
ATOM     27 CL   UNL     1       0.174  -3.385   3.008  0.00  0.00    -0.083 Cl
ATOM     28 CL   UNL     1      -3.458  -2.260  -0.863  0.00  0.00    -0.083 Cl
ENDBRANCH  18  21
ENDBRANCH   1  17
BRANCH   5  29
ATOM     29  C   UNL     1      -1.398   2.224   4.419  0.00  0.00    +0.218 C 
ATOM     30  O   UNL     1      -0.932   2.440   3.320  0.00  0.00    -0.275 OA
ATOM     31  N   UNL     1      -0.968   2.931   5.483  0.00  0.00    -0.312 N 
ATOM     32  H   UNL     1      -1.286   2.710   6.372  0.00  0.00    +0.149 HD
BRANCH  31  33
ATOM     33  C   UNL     1      -0.019   4.032   5.297  0.00  0.00    +0.072 C 
ATOM     34  C   UNL     1       1.398   3.469   5.177  0.00  0.00    +0.028 C 
BRANCH  33  35
ATOM     35  C   UNL     1      -0.094   4.978   6.497  0.00  0.00    +0.003 C 
ATOM     36  C   UNL     1       0.380   4.244   7.754  0.00  0.00    +0.009 C 
ATOM     37  C   UNL     1       0.804   6.191   6.247  0.00  0.00    +0.009 C 
ENDBRANCH  33  35
ENDBRANCH  31  33
ENDBRANCH   5  29
TORSDOF 5
