REMARK  Name = ZINC22748179
REMARK  8 active torsions:
REMARK  status: ('A' for Active; 'I' for Inactive)
REMARK    1  A    between atoms: C_1  and  C_2
REMARK    2  A    between atoms: C_5  and  C_26
REMARK    3  A    between atoms: C_7  and  N_8
REMARK    4  A    between atoms: C_9  and  C_11
REMARK    5  A    between atoms: C_12  and  C_13
REMARK    6  A    between atoms: C_16  and  C_18
REMARK    7  A    between atoms: C_21  and  C_25
REMARK    8  A    between atoms: C_29  and  C_34
REMARK                            x       y       z     vdW  Elec       q    Type
REMARK                         _______ _______ _______ _____ _____    ______ ____
ROOT
ATOM      1  N   UNL     1       0.025  -0.009   2.417  0.00  0.00    -0.282 N 
ATOM      2  C   UNL     1      -0.057  -0.684   3.580  0.00  0.00    +0.241 C 
ATOM      3  O   UNL     1      -0.040  -1.902   3.579  0.00  0.00    -0.270 OA
ATOM      4  H   UNL     1       0.093   0.959   2.421  0.00  0.00    +0.155 HD
ENDROOT
BRANCH   1  11
ATOM      5  C   UNL     1       1.226   1.227   0.157  0.00  0.00    +0.045 C 
ATOM      6  C   UNL     1       0.588  -0.136   0.072  0.00  0.00    -0.029 A 
ATOM      7  C   UNL     1       0.582  -0.820  -1.129  0.00  0.00    +0.006 A 
ATOM      8  C   UNL     1       0.000  -2.069  -1.214  0.00  0.00    +0.011 A 
ATOM      9  C   UNL     1      -0.586  -2.644  -0.085  0.00  0.00    +0.011 A 
ATOM     10  C   UNL     1      -0.580  -1.954   1.125  0.00  0.00    +0.034 A 
ATOM     11  C   UNL     1       0.012  -0.703   1.202  0.00  0.00    +0.037 A 
BRANCH   9  12
ATOM     12  C   UNL     1      -1.212  -3.982  -0.174  0.00  0.00    +0.132 A 
ATOM     13  N   UNL     1      -1.310  -4.776  -1.210  0.00  0.00    -0.156 NA
ATOM     14  N   UNL     1      -1.937  -6.011  -1.111  0.00  0.00    -0.190 N 
ATOM     15  C   UNL     1      -2.248  -7.101  -1.899  0.00  0.00    +0.153 A 
ATOM     16  N   UNL     1      -2.876  -7.969  -1.157  0.00  0.00    -0.132 NA
ATOM     17  N   UNL     1      -2.991  -7.521   0.045  0.00  0.00    -0.120 NA
ATOM     18  C   UNL     1      -2.442  -6.347   0.122  0.00  0.00    +0.218 A 
ATOM     19  S   UNL     1      -2.019  -4.931   1.105  0.00  0.00    -0.026 S 
ATOM     20  C   UNL     1      -1.921  -7.259  -3.361  0.00  0.00    +0.090 C 
ENDBRANCH   9  12
ENDBRANCH   1  11
BRANCH   2  21
ATOM     21  C   UNL     1      -0.161   0.021   4.801  0.00  0.00    +0.071 C 
ATOM     22  C   UNL     1      -0.243  -0.660   5.973  0.00  0.00    +0.051 C 
BRANCH  22  23
ATOM     23  C   UNL     1      -0.348   0.045   7.194  0.00  0.00    +0.129 A 
ATOM     24  C   UNL     1      -0.433  -0.520   8.454  0.00  0.00    +0.050 A 
ATOM     25  C   UNL     1      -0.520   0.537   9.363  0.00  0.00    +0.050 A 
ATOM     26  C   UNL     1      -0.486   1.695   8.640  0.00  0.00    +0.136 A 
ATOM     27  O   UNL     1      -0.376   1.387   7.335  0.00  0.00    -0.455 OA
BRANCH  26  28
ATOM     28  C   UNL     1      -0.552   3.060   9.198  0.00  0.00    +0.019 A 
ATOM     29  C   UNL     1      -0.654   3.250  10.578  0.00  0.00    +0.012 A 
ATOM     30  C   UNL     1      -0.715   4.527  11.094  0.00  0.00    +0.005 A 
ATOM     31  C   UNL     1      -0.677   5.621  10.247  0.00  0.00    -0.032 A 
ATOM     32  C   UNL     1      -0.576   5.442   8.877  0.00  0.00    +0.045 A 
ATOM     33  C   UNL     1      -0.508   4.168   8.349  0.00  0.00    +0.031 A 
ATOM     34 CL   UNL     1      -0.530   6.821   7.824  0.00  0.00    -0.083 Cl
ATOM     35  C   UNL     1      -0.746   7.014  10.817  0.00  0.00    +0.045 C 
ENDBRANCH  26  28
ENDBRANCH  22  23
ENDBRANCH   2  21
TORSDOF 5
