REMARK  Name = ZINC08926715
REMARK  17 active torsions:
REMARK  status: ('A' for Active; 'I' for Inactive)
REMARK    1  A    between atoms: C_1  and  C_2
REMARK    2  A    between atoms: C_2  and  C_3
REMARK    3  A    between atoms: C_3  and  C_4
REMARK    4  A    between atoms: C_4  and  O_5
REMARK    5  A    between atoms: O_5  and  C_6
REMARK    6  A    between atoms: C_9  and  C_13
REMARK    7  A    between atoms: C_10  and  C_12
REMARK    8  A    between atoms: C_13  and  C_15
REMARK    9  A    between atoms: C_16  and  O_34
REMARK   10  A    between atoms: N_19  and  C_29
REMARK   11  A    between atoms: C_20  and  C_22
REMARK   12  A    between atoms: C_25  and  O_28
REMARK   13  A    between atoms: C_29  and  C_30
REMARK   14  A    between atoms: C_30  and  C_31
REMARK   15  A    between atoms: C_31  and  N_68
REMARK   16  A    between atoms: C_32  and  N_68
REMARK   17  A    between atoms: C_33  and  N_68
REMARK                            x       y       z     vdW  Elec       q    Type
REMARK                         _______ _______ _______ _____ _____    ______ ____
ROOT
ATOM      1  C   UNL     1       1.264   1.762  -0.193  0.00  0.00    +0.071 C 
ATOM      2  C   UNL     1       2.477   1.162  -0.219  0.00  0.00    +0.188 C 
ATOM      3  C   UNL     1       3.521   2.187  -0.432  0.00  0.00    +0.282 C 
ATOM      4  O   UNL     1       4.713   1.963  -0.505  0.00  0.00    -0.267 OA
ATOM      5  N   UNL     1       2.957   3.405  -0.525  0.00  0.00    -0.284 N 
ATOM      6  C   UNL     1       1.505   3.241  -0.385  0.00  0.00    +0.144 C 
ENDROOT
BRANCH   6   7
ATOM      7  C   UNL     1       0.807   3.723  -1.630  0.00  0.00    -0.022 A 
ATOM      8  C   UNL     1       1.304   3.385  -2.875  0.00  0.00    +0.009 A 
ATOM      9  C   UNL     1       0.662   3.821  -4.018  0.00  0.00    +0.046 A 
ATOM     10  C   UNL     1      -0.476   4.607  -3.916  0.00  0.00    +0.117 A 
ATOM     11  C   UNL     1      -0.970   4.950  -2.666  0.00  0.00    +0.046 A 
ATOM     12  C   UNL     1      -0.328   4.507  -1.526  0.00  0.00    +0.009 A 
BRANCH  10  13
ATOM     13  O   UNL     1      -1.106   5.042  -5.039  0.00  0.00    -0.507 OA
ATOM     14  H   UNL     1      -0.787   5.894  -5.365  0.00  0.00    +0.292 HD
ENDBRANCH  10  13
ENDBRANCH   6   7
BRANCH   1  15
ATOM     15  C   UNL     1      -0.033   1.104  -0.008  0.00  0.00    +0.195 C 
ATOM     16  O   UNL     1      -0.098  -0.110   0.043  0.00  0.00    -0.287 OA
BRANCH  15  20
ATOM     17  C   UNL     1      -3.567   3.435   0.332  0.00  0.00    +0.121 A 
ATOM     18  C   UNL     1      -3.302   2.745  -0.846  0.00  0.00    +0.046 A 
ATOM     19  C   UNL     1      -2.155   1.993  -0.963  0.00  0.00    +0.015 A 
ATOM     20  C   UNL     1      -1.261   1.914   0.110  0.00  0.00    +0.025 A 
ATOM     21  C   UNL     1      -1.532   2.609   1.292  0.00  0.00    -0.036 A 
ATOM     22  C   UNL     1      -2.678   3.364   1.398  0.00  0.00    +0.049 A 
ATOM     23  C   UNL     1      -0.569   2.533   2.450  0.00  0.00    +0.044 C 
BRANCH  17  24
ATOM     24  O   UNL     1      -4.696   4.179   0.440  0.00  0.00    -0.492 OA
BRANCH  24  25
ATOM     25  C   UNL     1      -5.566   4.208  -0.693  0.00  0.00    +0.229 C 
BRANCH  25  26
ATOM     26  C   UNL     1      -6.776   5.092  -0.385  0.00  0.00    +0.041 C 
BRANCH  26  28
ATOM     27  C   UNL     1      -8.918   6.007  -1.291  0.00  0.00    +0.004 C 
ATOM     28  C   UNL     1      -7.707   5.123  -1.599  0.00  0.00    -0.000 C 
ENDBRANCH  26  28
ENDBRANCH  25  26
ENDBRANCH  24  25
ENDBRANCH  17  24
ENDBRANCH  15  20
ENDBRANCH   1  15
BRANCH   2  29
ATOM     29  O   UNL     1       2.698  -0.165  -0.077  0.00  0.00    -0.502 OA
ATOM     30  H   UNL     1       3.680  -0.347  -0.135  0.00  0.00    +0.292 HD
ENDBRANCH   2  29
BRANCH   5  31
ATOM     31  C   UNL     1       3.666   4.670  -0.732  0.00  0.00    +0.107 C 
BRANCH  31  32
ATOM     32  C   UNL     1       4.033   5.276   0.625  0.00  0.00    +0.000 C 
BRANCH  32  33
ATOM     33  C   UNL     1       4.774   6.597   0.409  0.00  0.00    -0.078 C 
BRANCH  33  36
ATOM     34  C   UNL     1       6.105   6.340   2.416  0.00  0.00    -0.097 C 
ATOM     35  C   UNL     1       5.624   8.552   1.557  0.00  0.00    -0.097 C 
ATOM     36  N   UNL     1       5.102   7.180   1.728  0.00  0.00    +0.376 N 
ATOM     37  H   UNL     1       4.249   7.215   2.298  0.00  0.00    -0.083 HD
ENDBRANCH  33  36
ENDBRANCH  32  33
ENDBRANCH  31  32
ENDBRANCH   5  31
TORSDOF 13
