REMARK  Name = ZINC17031180
REMARK  5 active torsions:
REMARK  status: ('A' for Active; 'I' for Inactive)
REMARK    1  A    between atoms: C_1  and  C_2
REMARK    2  A    between atoms: C_2  and  C_4
REMARK    3  A    between atoms: C_2  and  N_13
REMARK    4  A    between atoms: N_13  and  S_14
REMARK    5  A    between atoms: S_14  and  C_17
REMARK                            x       y       z     vdW  Elec       q    Type
REMARK                         _______ _______ _______ _____ _____    ______ ____
ROOT
ATOM      1  C   UNL     1       6.150   0.335  -2.508  0.00  0.00    +0.031 C 
ATOM      2  C   UNL     1       4.640   0.090  -2.484  0.00  0.00    +0.103 C 
ENDROOT
BRANCH   2   3
ATOM      3  C   UNL     1       4.154  -0.185  -3.884  0.00  0.00    -0.025 A 
ATOM      4  C   UNL     1       4.315  -1.443  -4.435  0.00  0.00    +0.009 A 
ATOM      5  C   UNL     1       3.871  -1.700  -5.718  0.00  0.00    +0.050 A 
ATOM      6  C   UNL     1       3.263  -0.698  -6.456  0.00  0.00    +0.166 A 
ATOM      7  C   UNL     1       3.100   0.569  -5.901  0.00  0.00    +0.167 A 
ATOM      8  C   UNL     1       3.543   0.819  -4.612  0.00  0.00    +0.054 A 
ATOM      9  O   UNL     1       2.482   1.371  -6.816  0.00  0.00    -0.453 OA
ATOM     10  C   UNL     1       1.900   0.474  -7.781  0.00  0.00    +0.466 C 
ATOM     11  O   UNL     1       2.746  -0.690  -7.719  0.00  0.00    -0.453 OA
ENDBRANCH   2   3
BRANCH   2  12
ATOM     12  N   UNL     1       4.345  -1.062  -1.629  0.00  0.00    -0.183 NA
ATOM     13  H   UNL     1       4.391  -1.960  -1.993  0.00  0.00    +0.149 HD
BRANCH  12  14
ATOM     14  S   UNL     1       3.934  -0.832  -0.042  0.00  0.00    +0.059 S 
ATOM     15  O   UNL     1       4.902   0.054   0.504  0.00  0.00    -0.153 OA
ATOM     16  O   UNL     1       3.686  -2.120   0.505  0.00  0.00    -0.153 OA
BRANCH  14  17
ATOM     17  C   UNL     1       2.396   0.029  -0.022  0.00  0.00    +0.105 A 
ATOM     18  C   UNL     1       1.208  -0.679  -0.014  0.00  0.00    +0.028 A 
ATOM     19  C   UNL     1       0.002  -0.004   0.002  0.00  0.00    +0.002 A 
ATOM     20  C   UNL     1      -0.017   1.378   0.010  0.00  0.00    +0.000 A 
ATOM     21  C   UNL     1       1.171   2.086   0.002  0.00  0.00    +0.002 A 
ATOM     22  C   UNL     1       2.377   1.411  -0.014  0.00  0.00    +0.028 A 
ENDBRANCH  14  17
ENDBRANCH  12  14
ENDBRANCH   2  12
TORSDOF 4
