REMARK  Name = ZINC02573164
REMARK  6 active torsions:
REMARK  status: ('A' for Active; 'I' for Inactive)
REMARK    1  A    between atoms: C_3  and  S_27
REMARK    2  A    between atoms: C_6  and  N_7
REMARK    3  A    between atoms: C_10  and  C_17
REMARK    4  A    between atoms: C_12  and  C_15
REMARK    5  A    between atoms: C_13  and  N_14
REMARK    6  A    between atoms: S_27  and  N_30
REMARK                            x       y       z     vdW  Elec       q    Type
REMARK                         _______ _______ _______ _____ _____    ______ ____
ROOT
ATOM      1  N   UNL     1      -4.190   1.887  -0.024  0.00  0.00    -0.260 N 
ATOM      2  C   UNL     1      -2.840   2.001   0.181  0.00  0.00    +0.024 C 
ATOM      3  C   UNL     1      -2.001   2.200  -0.858  0.00  0.00    +0.025 C 
ATOM      4  C   UNL     1      -2.522   2.281  -2.271  0.00  0.00    +0.098 C 
ATOM      5  C   UNL     1      -3.997   2.556  -2.289  0.00  0.00    +0.077 C 
ATOM      6  C   UNL     1      -4.763   2.349  -1.187  0.00  0.00    +0.107 C 
ATOM      7  C   UNL     1      -0.616   2.336  -0.655  0.00  0.00    +0.162 C 
ATOM      8  O   UNL     1       0.113   2.503  -1.613  0.00  0.00    -0.292 OA
ATOM      9  C   UNL     1      -0.020   2.278   0.725  0.00  0.00    +0.080 C 
ATOM     10  C   UNL     1      -1.060   2.764   1.740  0.00  0.00    +0.014 C 
ATOM     11  C   UNL     1      -2.318   1.902   1.593  0.00  0.00    +0.052 C 
ENDROOT
BRANCH   1  17
ATOM     12  C   UNL     1      -5.174  -0.082   0.972  0.00  0.00    +0.026 A 
ATOM     13  C   UNL     1      -5.963  -0.663   1.945  0.00  0.00    +0.030 A 
ATOM     14  C   UNL     1      -6.582   0.126   2.898  0.00  0.00    +0.105 A 
ATOM     15  C   UNL     1      -6.408   1.497   2.884  0.00  0.00    +0.030 A 
ATOM     16  C   UNL     1      -5.616   2.084   1.916  0.00  0.00    +0.026 A 
ATOM     17  C   UNL     1      -4.993   1.295   0.958  0.00  0.00    +0.040 A 
BRANCH  14  18
ATOM     18  S   UNL     1      -7.593  -0.619   4.134  0.00  0.00    +0.056 S 
ATOM     19  O   UNL     1      -7.156  -1.966   4.259  0.00  0.00    -0.153 OA
ATOM     20  O   UNL     1      -7.618   0.279   5.234  0.00  0.00    -0.153 OA
BRANCH  18  21
ATOM     21  N   UNL     1      -9.136  -0.676   3.535  0.00  0.00    -0.204 NA
ATOM     22  H   UNL     1      -9.737  -1.386   3.810  0.00  0.00    +0.144 HD
ATOM     23  H   UNL     1      -9.438  -0.000   2.908  0.00  0.00    +0.144 HD
ENDBRANCH  18  21
ENDBRANCH  14  18
ENDBRANCH   1  17
BRANCH   4  24
ATOM     24  C   UNL     1      -2.255   0.974  -2.971  0.00  0.00    -0.028 A 
ATOM     25  C   UNL     1      -1.470   0.935  -4.108  0.00  0.00    +0.012 A 
ATOM     26  C   UNL     1      -1.249  -0.258  -4.714  0.00  0.00    +0.045 A 
ATOM     27  S   UNL     1      -2.164  -1.378  -3.668  0.00  0.00    -0.105 S 
ATOM     28  C   UNL     1      -2.775  -0.183  -2.491  0.00  0.00    +0.049 A 
ENDBRANCH   4  24
BRANCH   6  29
ATOM     29  N   UNL     1      -6.113   2.603  -1.233  0.00  0.00    -0.345 N 
ATOM     30  H   UNL     1      -6.646   2.540  -0.425  0.00  0.00    +0.144 HD
ATOM     31  H   UNL     1      -6.533   2.844  -2.073  0.00  0.00    +0.144 HD
ENDBRANCH   6  29
BRANCH   5  32
ATOM     32  C   UNL     1      -4.606   3.046  -3.489  0.00  0.00    +0.099 C 
ATOM     33  N   UNL     1      -5.090   3.433  -4.441  0.00  0.00    -0.191 NA
ENDBRANCH   5  32
TORSDOF 6
