REMARK  Name = ZINC05381905
REMARK  8 active torsions:
REMARK  status: ('A' for Active; 'I' for Inactive)
REMARK    1  A    between atoms: C_1  and  C_2
REMARK    2  A    between atoms: C_9  and  C_14
REMARK    3  A    between atoms: C_14  and  O_15
REMARK    4  A    between atoms: O_15  and  C_16
REMARK    5  A    between atoms: C_16  and  C_18
REMARK    6  A    between atoms: C_18  and  C_19
REMARK    7  A    between atoms: C_19  and  C_20
REMARK    8  A    between atoms: C_20  and  C_21
REMARK                            x       y       z     vdW  Elec       q    Type
REMARK                         _______ _______ _______ _____ _____    ______ ____
ROOT
ATOM      1  O   UNL     1       3.197   9.259  -3.079  0.00  0.00    -0.460 OA
ENDROOT
BRANCH   1   2
ATOM      2  C   UNL     1       2.347   8.250  -2.831  0.00  0.00    +0.307 C 
ATOM      3  O   UNL     1       1.903   7.596  -3.745  0.00  0.00    -0.251 OA
BRANCH   2   4
ATOM      4  C   UNL     1       1.947   7.933  -1.413  0.00  0.00    +0.121 C 
BRANCH   4   5
ATOM      5  C   UNL     1       0.977   6.749  -1.410  0.00  0.00    +0.016 C 
BRANCH   5   6
ATOM      6  C   UNL     1       0.571   6.426   0.030  0.00  0.00    +0.038 C 
BRANCH   6   7
ATOM      7  C   UNL     1      -0.384   5.261   0.033  0.00  0.00    -0.022 A 
ATOM      8  C   UNL     1      -1.724   5.326   0.046  0.00  0.00    +0.087 A 
ATOM      9  N   UNL     1      -2.254   4.064   0.045  0.00  0.00    -0.360 N 
ATOM     10  H   UNL     1      -3.201   3.858   0.053  0.00  0.00    +0.165 HD
ATOM     11  C   UNL     1      -1.240   3.132   0.031  0.00  0.00    +0.047 A 
ATOM     12  C   UNL     1      -0.025   3.840   0.022  0.00  0.00    +0.003 A 
ATOM     13  C   UNL     1       1.186   3.146   0.007  0.00  0.00    +0.010 A 
ATOM     14  C   UNL     1       1.184   1.779   0.000  0.00  0.00    +0.001 A 
ATOM     15  C   UNL     1      -0.013   1.076   0.008  0.00  0.00    +0.002 A 
ATOM     16  C   UNL     1      -1.219   1.742   0.017  0.00  0.00    +0.026 A 
ENDBRANCH   6   7
ENDBRANCH   5   6
ENDBRANCH   4   5
ENDBRANCH   2   4
ENDBRANCH   1   2
BRANCH   1  17
ATOM     17  C   UNL     1       3.538   9.507  -4.468  0.00  0.00    +0.268 C 
BRANCH  17  26
ATOM     18  C   UNL     1       6.528  12.544  -9.582  0.00  0.00    +0.045 C 
ATOM     19  C   UNL     1       5.994  12.050  -8.262  0.00  0.00    -0.029 A 
ATOM     20  C   UNL     1       6.385  12.670  -7.094  0.00  0.00    +0.051 A 
ATOM     21  C   UNL     1       5.898  12.220  -5.874  0.00  0.00    +0.140 A 
ATOM     22  C   UNL     1       5.006  11.134  -5.843  0.00  0.00    +0.025 A 
ATOM     23  C   UNL     1       4.618  10.515  -7.036  0.00  0.00    +0.032 A 
ATOM     24  C   UNL     1       5.114  10.977  -8.235  0.00  0.00    +0.045 A 
ATOM     25 CL   UNL     1       4.636  10.214  -9.719  0.00  0.00    -0.083 Cl
ATOM     26  C   UNL     1       4.496  10.668  -4.550  0.00  0.00    +0.007 A 
ATOM     27  C   UNL     1       4.907  11.314  -3.429  0.00  0.00    +0.099 A 
ATOM     28  C   UNL     1       5.807  12.396  -3.533  0.00  0.00    +0.338 A 
ATOM     29  O   UNL     1       6.170  12.965  -2.520  0.00  0.00    -0.245 OA
ATOM     30  O   UNL     1       6.270  12.816  -4.721  0.00  0.00    -0.422 OA
ENDBRANCH  17  26
ENDBRANCH   1  17
TORSDOF 7
