REMARK  Name = ZINC38653508
REMARK  9 active torsions:
REMARK  status: ('A' for Active; 'I' for Inactive)
REMARK    1  A    between atoms: C_3  and  C_10
REMARK    2  A    between atoms: C_5  and  N_7
REMARK    3  A    between atoms: C_15  and  O_24
REMARK    4  A    between atoms: C_19  and  N_23
REMARK    5  A    between atoms: C_20  and  C_21
REMARK    6  A    between atoms: O_24  and  C_25
REMARK    7  A    between atoms: C_25  and  C_27
REMARK    8  A    between atoms: C_27  and  O_28
REMARK    9  A    between atoms: O_28  and  C_29
REMARK                            x       y       z     vdW  Elec       q    Type
REMARK                         _______ _______ _______ _____ _____    ______ ____
ROOT
ATOM      1  C   UNL     1       3.634   2.226   0.006  0.00  0.00    +0.098 C 
ATOM      2  C   UNL     1       3.699   3.080  -1.233  0.00  0.00    +0.008 A 
ATOM      3  C   UNL     1       4.084   2.509  -2.433  0.00  0.00    +0.012 A 
ATOM      4  C   UNL     1       4.150   3.276  -3.579  0.00  0.00    +0.047 A 
ATOM      5  C   UNL     1       3.829   4.626  -3.529  0.00  0.00    +0.135 A 
ATOM      6  C   UNL     1       3.443   5.200  -2.329  0.00  0.00    +0.093 A 
ATOM      7  C   UNL     1       3.377   4.427  -1.178  0.00  0.00    +0.138 A 
ATOM      8  O   UNL     1       2.998   5.004  -0.011  0.00  0.00    -0.441 OA
ATOM      9  C   UNL     1       3.291   4.409   1.157  0.00  0.00    +0.199 C 
ATOM     10  C   UNL     1       3.599   3.095   1.231  0.00  0.00    +0.098 C 
ENDROOT
BRANCH   1  13
ATOM     11  C   UNL     1       0.005   1.195  -0.136  0.00  0.00    +0.003 A 
ATOM     12  C   UNL     1       1.146   1.974  -0.094  0.00  0.00    +0.005 A 
ATOM     13  C   UNL     1       2.390   1.376  -0.039  0.00  0.00    -0.033 A 
ATOM     14  C   UNL     1       2.494  -0.003  -0.025  0.00  0.00    +0.037 A 
ATOM     15  C   UNL     1       1.354  -0.782  -0.066  0.00  0.00    +0.126 A 
ATOM     16  C   UNL     1       0.109  -0.183  -0.123  0.00  0.00    +0.033 A 
BRANCH  15  17
ATOM     17  N   UNL     1       1.465  -2.258  -0.053  0.00  0.00    +0.056 N 
ATOM     18  O   UNL     1       2.554  -2.782  -0.006  0.00  0.00    -0.126 OA
ATOM     19  O   UNL     1       0.468  -2.940  -0.089  0.00  0.00    -0.126 OA
ENDBRANCH  15  17
ENDBRANCH   1  13
BRANCH   9  20
ATOM     20  N   UNL     1       3.275   5.156   2.308  0.00  0.00    -0.328 N 
ATOM     21  H   UNL     1       3.055   6.100   2.271  0.00  0.00    +0.145 HD
ATOM     22  H   UNL     1       3.484   4.741   3.160  0.00  0.00    +0.145 HD
ENDBRANCH   9  20
BRANCH  10  23
ATOM     23  C   UNL     1       3.899   2.521   2.508  0.00  0.00    +0.101 C 
ATOM     24  N   UNL     1       4.138   2.065   3.521  0.00  0.00    -0.191 NA
ENDBRANCH  10  23
BRANCH   5  25
ATOM     25  O   UNL     1       3.894   5.383  -4.657  0.00  0.00    -0.423 OA
BRANCH  25  26
ATOM     26  C   UNL     1       4.858   6.314  -4.736  0.00  0.00    +0.350 C 
ATOM     27  O   UNL     1       5.697   6.389  -3.871  0.00  0.00    -0.247 OA
BRANCH  26  28
ATOM     28  C   UNL     1       4.893   7.264  -5.905  0.00  0.00    +0.349 C 
BRANCH  28  29
ATOM     29  O   UNL     1       6.003   8.153  -5.764  0.00  0.00    -0.481 OA
BRANCH  29  30
ATOM     30  C   UNL     1       6.179   9.081  -6.742  0.00  0.00    +0.121 A 
ATOM     31  C   UNL     1       5.299   9.137  -7.811  0.00  0.00    +0.048 A 
ATOM     32  C   UNL     1       5.479  10.081  -8.805  0.00  0.00    +0.042 A 
ATOM     33  C   UNL     1       6.539  10.969  -8.732  0.00  0.00    +0.124 A 
ATOM     34  C   UNL     1       7.419  10.913  -7.665  0.00  0.00    +0.042 A 
ATOM     35  C   UNL     1       7.237   9.975  -6.667  0.00  0.00    +0.048 A 
ATOM     36  F   UNL     1       6.715  11.890  -9.704  0.00  0.00    -0.205 F 
ENDBRANCH  29  30
ENDBRANCH  28  29
ENDBRANCH  26  28
ENDBRANCH  25  26
ENDBRANCH   5  25
TORSDOF 9
