REMARK  Name = ZINC08606576
REMARK  10 active torsions:
REMARK  status: ('A' for Active; 'I' for Inactive)
REMARK    1  A    between atoms: C_1  and  C_2
REMARK    2  A    between atoms: C_2  and  C_3
REMARK    3  A    between atoms: C_3  and  C_4
REMARK    4  A    between atoms: C_4  and  N_5
REMARK    5  A    between atoms: C_6  and  C_23
REMARK    6  A    between atoms: C_9  and  C_16
REMARK    7  A    between atoms: C_21  and  O_22
REMARK    8  A    between atoms: C_25  and  O_31
REMARK    9  A    between atoms: C_26  and  O_30
REMARK   10  A    between atoms: O_31  and  C_32
REMARK                            x       y       z     vdW  Elec       q    Type
REMARK                         _______ _______ _______ _____ _____    ______ ____
ROOT
ATOM      1  N   UNL     1      -2.787  -2.571   0.015  0.00  0.00    -0.285 N 
ATOM      2  C   UNL     1      -3.585  -2.869   1.211  0.00  0.00    +0.141 C 
ATOM      3  C   UNL     1      -4.917  -3.358   0.712  0.00  0.00    +0.035 A 
ATOM      4  C   UNL     1      -6.195  -3.830   1.031  0.00  0.00    +0.102 A 
ATOM      5  N   UNL     1      -6.825  -4.058  -0.105  0.00  0.00    -0.173 NA
ATOM      6  N   UNL     1      -6.073  -3.777  -1.108  0.00  0.00    -0.272 N 
ATOM      7  H   UNL     1      -6.329  -3.867  -2.039  0.00  0.00    +0.189 HD
ATOM      8  C   UNL     1      -4.859  -3.331  -0.668  0.00  0.00    +0.126 A 
ATOM      9  C   UNL     1      -3.537  -2.837  -1.070  0.00  0.00    +0.265 C 
ATOM     10  O   UNL     1      -3.170  -2.691  -2.220  0.00  0.00    -0.268 OA
ENDROOT
BRANCH   2  11
ATOM     11  C   UNL     1      -3.765  -1.623   2.039  0.00  0.00    -0.018 A 
ATOM     12  C   UNL     1      -3.688  -1.694   3.418  0.00  0.00    +0.055 A 
ATOM     13  C   UNL     1      -3.854  -0.549   4.181  0.00  0.00    +0.163 A 
ATOM     14  C   UNL     1      -4.096   0.671   3.556  0.00  0.00    +0.173 A 
ATOM     15  C   UNL     1      -4.171   0.735   2.174  0.00  0.00    +0.063 A 
ATOM     16  C   UNL     1      -4.001  -0.411   1.418  0.00  0.00    +0.025 A 
ATOM     17 BR   UNL     1      -4.501   2.390   1.321  0.00  0.00    -0.046 Br
BRANCH  14  18
ATOM     18  O   UNL     1      -4.260   1.797   4.301  0.00  0.00    -0.503 OA
ATOM     19  H   UNL     1      -3.438   2.275   4.476  0.00  0.00    +0.292 HD
ENDBRANCH  14  18
BRANCH  13  20
ATOM     20  O   UNL     1      -3.779  -0.617   5.537  0.00  0.00    -0.491 OA
ATOM     21  C   UNL     1      -3.528  -1.903   6.109  0.00  0.00    +0.277 C 
ENDBRANCH  13  20
ENDBRANCH   2  11
BRANCH   4  22
ATOM     22  C   UNL     1      -6.740  -4.037   2.395  0.00  0.00    +0.044 A 
ATOM     23  C   UNL     1      -5.959  -3.749   3.512  0.00  0.00    +0.014 A 
ATOM     24  C   UNL     1      -6.471  -3.942   4.779  0.00  0.00    +0.001 A 
ATOM     25  C   UNL     1      -7.757  -4.423   4.945  0.00  0.00    +0.004 A 
ATOM     26  C   UNL     1      -8.540  -4.713   3.844  0.00  0.00    +0.046 A 
ATOM     27  C   UNL     1      -8.041  -4.518   2.566  0.00  0.00    +0.126 A 
BRANCH  27  28
ATOM     28  O   UNL     1      -8.812  -4.797   1.483  0.00  0.00    -0.506 OA
ATOM     29  H   UNL     1      -8.730  -5.707   1.166  0.00  0.00    +0.292 HD
ENDBRANCH  27  28
ENDBRANCH   4  22
BRANCH   1  30
ATOM     30  C   UNL     1      -1.413  -2.063   0.004  0.00  0.00    +0.109 C 
BRANCH  30  31
ATOM     31  C   UNL     1      -1.433  -0.534   0.013  0.00  0.00    +0.019 C 
BRANCH  31  33
ATOM     32  C   UNL     1      -0.019   1.526   0.010  0.00  0.00    +0.004 C 
ATOM     33  C   UNL     1       0.002  -0.004   0.002  0.00  0.00    -0.002 C 
ENDBRANCH  31  33
ENDBRANCH  30  31
ENDBRANCH   1  30
TORSDOF 8
