REMARK  Name = ZINC63426768
REMARK  15 active torsions:
REMARK  status: ('A' for Active; 'I' for Inactive)
REMARK    1  A    between atoms: C_1  and  C_2
REMARK    2  A    between atoms: C_5  and  N_9
REMARK    3  A    between atoms: C_6  and  C_8
REMARK    4  A    between atoms: C_10  and  C_12
REMARK    5  A    between atoms: C_12  and  S_13
REMARK    6  A    between atoms: S_13  and  C_14
REMARK    7  A    between atoms: C_18  and  C_21
REMARK    8  A    between atoms: C_21  and  C_23
REMARK    9  A    between atoms: C_21  and  N_33
REMARK   10  A    between atoms: C_23  and  C_24
REMARK   11  A    between atoms: C_34  and  O_36
REMARK   12  A    between atoms: O_36  and  C_37
REMARK   13  A    between atoms: C_37  and  C_38
REMARK   14  A    between atoms: C_37  and  C_39
REMARK   15  A    between atoms: C_37  and  C_40
REMARK                            x       y       z     vdW  Elec       q    Type
REMARK                         _______ _______ _______ _____ _____    ______ ____
ROOT
ATOM      1  C   UNL     1      -1.375 -11.543  -1.915  0.00  0.00    +0.133 C 
ENDROOT
BRANCH   1   5
ATOM      2  C   UNL     1      -0.370  -8.741  -2.724  0.00  0.00    +0.319 C 
ATOM      3  N   UNL     1       0.800  -9.247  -1.995  0.00  0.00    -0.146 NA
ATOM      4  N   UNL     1       0.446 -10.077  -1.147  0.00  0.00    -0.155 NA
ATOM      5  C   UNL     1      -1.012 -10.248  -1.186  0.00  0.00    +0.280 C 
ATOM      6  O   UNL     1      -1.509  -9.106  -1.917  0.00  0.00    -0.316 OA
BRANCH   2   7
ATOM      7  S   UNL     1      -0.273  -6.938  -2.896  0.00  0.00    -0.095 S 
BRANCH   7   8
ATOM      8  C   UNL     1      -0.149  -6.340  -1.188  0.00  0.00    +0.169 C 
BRANCH   8  10
ATOM      9  N   UNL     1       0.039  -4.167  -0.021  0.00  0.00    -0.285 N 
ATOM     10  C   UNL     1      -0.061  -4.835  -1.187  0.00  0.00    +0.227 C 
ATOM     11  O   UNL     1      -0.080  -4.226  -2.236  0.00  0.00    -0.275 OA
ATOM     12  H   UNL     1       0.119  -4.655   0.813  0.00  0.00    +0.155 HD
BRANCH   9  17
ATOM     13  C   UNL     1      -0.010   1.506   0.008  0.00  0.00    +0.044 C 
ATOM     14  C   UNL     1       0.003  -0.001   0.000  0.00  0.00    -0.050 A 
ATOM     15  C   UNL     1       0.600  -0.680  -1.046  0.00  0.00    +0.005 A 
ATOM     16  C   UNL     1       0.613  -2.061  -1.056  0.00  0.00    +0.024 A 
ATOM     17  C   UNL     1       0.027  -2.768  -0.014  0.00  0.00    +0.036 A 
ATOM     18  C   UNL     1      -0.571  -2.082   1.035  0.00  0.00    -0.029 A 
ATOM     19  C   UNL     1      -0.577  -0.701   1.042  0.00  0.00    +0.008 A 
ATOM     20  C   UNL     1      -1.208  -2.845   2.168  0.00  0.00    +0.045 C 
ENDBRANCH   9  17
ENDBRANCH   8  10
ENDBRANCH   7   8
ENDBRANCH   2   7
ENDBRANCH   1   5
BRANCH   1  21
ATOM     21  N   UNL     1      -0.731 -11.561  -3.231  0.00  0.00    -0.274 N 
ATOM     22  C   UNL     1      -1.472 -11.737  -4.342  0.00  0.00    +0.401 C 
ATOM     23  O   UNL     1      -2.683 -11.789  -4.263  0.00  0.00    -0.226 OA
ATOM     24  H   UNL     1       0.230 -11.446  -3.301  0.00  0.00    +0.152 HD
BRANCH  22  25
ATOM     25  O   UNL     1      -0.870 -11.855  -5.541  0.00  0.00    -0.445 OA
BRANCH  25  26
ATOM     26  C   UNL     1      -1.718 -12.039  -6.677  0.00  0.00    +0.107 C 
ATOM     27  C   UNL     1      -2.663 -10.843  -6.807  0.00  0.00    +0.055 C 
ATOM     28  C   UNL     1      -0.861 -12.152  -7.939  0.00  0.00    +0.055 C 
ATOM     29  C   UNL     1      -2.536 -13.319  -6.500  0.00  0.00    +0.055 C 
ENDBRANCH  25  26
ENDBRANCH  22  25
ENDBRANCH   1  21
BRANCH   1  30
ATOM     30  C   UNL     1      -0.894 -12.742  -1.095  0.00  0.00    +0.060 C 
BRANCH  30  31
ATOM     31  C   UNL     1      -1.359 -14.018  -1.750  0.00  0.00    -0.040 C 
ATOM     32  C   UNL     1      -0.659 -14.791  -2.611  0.00  0.00    -0.001 A 
ATOM     33  C   UNL     1       0.692 -14.681  -3.175  0.00  0.00    +0.010 A 
ATOM     34  C   UNL     1       1.125 -15.633  -4.032  0.00  0.00    +0.001 A 
ATOM     35  C   UNL     1       0.318 -16.719  -4.396  0.00  0.00    +0.002 A 
ATOM     36  C   UNL     1      -0.934 -16.890  -3.920  0.00  0.00    +0.026 A 
ATOM     37  C   UNL     1      -1.491 -15.949  -3.010  0.00  0.00    +0.043 A 
ATOM     38  N   UNL     1      -2.660 -15.893  -2.419  0.00  0.00    -0.380 N 
ATOM     39  C   UNL     1      -2.699 -14.695  -1.572  0.00  0.00    +0.144 C 
ATOM     40  H   UNL     1      -3.377 -16.537  -2.522  0.00  0.00    +0.160 HD
ENDBRANCH  30  31
ENDBRANCH   1  30
TORSDOF 10
