REMARK  Name = ZINC48300072
REMARK  5 active torsions:
REMARK  status: ('A' for Active; 'I' for Inactive)
REMARK    1  A    between atoms: C_1  and  C_2
REMARK    2  A    between atoms: C_2  and  N_3
REMARK    3  A    between atoms: N_3  and  C_4
REMARK    4  A    between atoms: C_4  and  C_5
REMARK    5  A    between atoms: C_14  and  C_16
REMARK                            x       y       z     vdW  Elec       q    Type
REMARK                         _______ _______ _______ _____ _____    ______ ____
ROOT
ATOM      1  N   UNL     1       0.679  -0.530  -1.183  0.00  0.00    -0.292 N 
ATOM      2  C   UNL     1      -0.025  -0.801  -2.300  0.00  0.00    +0.263 C 
ATOM      3  O   UNL     1       0.542  -1.231  -3.288  0.00  0.00    -0.268 OA
ENDROOT
BRANCH   2   4
ATOM      4  C   UNL     1      -1.474  -0.577  -2.326  0.00  0.00    +0.103 A 
ATOM      5  C   UNL     1      -2.338  -0.953  -3.333  0.00  0.00    +0.052 A 
ATOM      6  C   UNL     1      -3.620  -0.546  -2.947  0.00  0.00    +0.059 A 
ATOM      7  C   UNL     1      -3.518   0.057  -1.738  0.00  0.00    +0.103 A 
ATOM      8  N   UNL     1      -2.219   0.040  -1.348  0.00  0.00    -0.356 N 
ATOM      9  H   UNL     1      -1.873   0.404  -0.518  0.00  0.00    +0.166 HD
ATOM     10 CL   UNL     1      -5.082  -0.774  -3.856  0.00  0.00    -0.082 Cl
ENDBRANCH   2   4
BRANCH   1  12
ATOM     11  C   UNL     1      -0.201   1.380   0.066  0.00  0.00    +0.024 C 
ATOM     12  C   UNL     1      -0.018  -0.139   0.044  0.00  0.00    +0.105 C 
ENDBRANCH   1  12
BRANCH   1  13
ATOM     13  C   UNL     1       2.141  -0.626  -1.197  0.00  0.00    +0.143 C 
BRANCH  13  14
ATOM     14  C   UNL     1       2.556  -2.024  -0.817  0.00  0.00    -0.026 A 
ATOM     15  C   UNL     1       2.773  -2.341   0.511  0.00  0.00    +0.009 A 
ATOM     16  C   UNL     1       3.153  -3.623   0.866  0.00  0.00    +0.050 A 
ATOM     17  C   UNL     1       3.318  -4.591  -0.111  0.00  0.00    +0.166 A 
ATOM     18  C   UNL     1       3.100  -4.271  -1.448  0.00  0.00    +0.167 A 
ATOM     19  C   UNL     1       2.714  -2.987  -1.796  0.00  0.00    +0.054 A 
ATOM     20  O   UNL     1       3.326  -5.384  -2.206  0.00  0.00    -0.453 OA
ATOM     21  C   UNL     1       4.079  -6.277  -1.363  0.00  0.00    +0.466 C 
ATOM     22  O   UNL     1       3.681  -5.905  -0.030  0.00  0.00    -0.453 OA
ENDBRANCH  13  14
ENDBRANCH   1  13
TORSDOF 4
