REMARK  Name = ZINC39669383
REMARK  5 active torsions:
REMARK  status: ('A' for Active; 'I' for Inactive)
REMARK    1  A    between atoms: C_11  and  C_14
REMARK    2  A    between atoms: C_14  and  N_15
REMARK    3  A    between atoms: C_16  and  C_18
REMARK    4  A    between atoms: C_29  and  C_31
REMARK    5  A    between atoms: C_31  and  C_32
REMARK                            x       y       z     vdW  Elec       q    Type
REMARK                         _______ _______ _______ _____ _____    ______ ____
ROOT
ATOM      1  C   UNL     1       1.738  -6.706  -1.600  0.00  0.00    +0.100 C 
ATOM      2  C   UNL     1       0.811  -6.420  -0.398  0.00  0.00    +0.121 C 
ATOM      3  N   UNL     1       0.033  -7.668  -0.220  0.00  0.00    -0.300 N 
ATOM      4  C   UNL     1       1.013  -8.752  -0.468  0.00  0.00    +0.115 C 
ATOM      5  C   UNL     1       1.869  -8.238  -1.642  0.00  0.00    -0.004 C 
ATOM      6  C   UNL     1       3.326  -8.649  -1.452  0.00  0.00    -0.010 C 
ATOM      7  C   UNL     1       3.439 -10.173  -1.556  0.00  0.00    -0.082 C 
ATOM      8  N   UNL     1       2.953 -10.613  -2.869  0.00  0.00    +0.379 N 
ATOM      9  C   UNL     1       1.526 -10.297  -3.006  0.00  0.00    -0.082 C 
ATOM     10  C   UNL     1       1.332  -8.778  -2.964  0.00  0.00    -0.010 C 
ATOM     11  C   UNL     1      -1.272  -7.790   0.096  0.00  0.00    +0.220 C 
ATOM     12  O   UNL     1      -1.768  -8.891   0.208  0.00  0.00    -0.275 OA
ATOM     13  H   UNL     1       3.472 -10.142  -3.594  0.00  0.00    -0.086 HD
ATOM     14  H   UNL     1       3.085 -11.610  -2.958  0.00  0.00    -0.086 HD
ENDROOT
BRANCH   1  16
ATOM     15  N   UNL     1       3.827  -5.684  -2.445  0.00  0.00    -0.315 N 
ATOM     16  C   UNL     1       3.088  -6.070  -1.386  0.00  0.00    +0.218 C 
ATOM     17  O   UNL     1       3.508  -5.905  -0.260  0.00  0.00    -0.275 OA
ATOM     18  H   UNL     1       3.490  -5.816  -3.345  0.00  0.00    +0.149 HD
BRANCH  15  19
ATOM     19  C   UNL     1       5.138  -5.066  -2.236  0.00  0.00    +0.109 C 
BRANCH  19  30
ATOM     20  C   UNL     1       3.655  -3.337  -9.088  0.00  0.00    +0.039 A 
ATOM     21  C   UNL     1       4.977  -2.926  -9.014  0.00  0.00    +0.116 A 
ATOM     22  N   UNL     1       5.582  -2.908  -7.837  0.00  0.00    -0.223 NA
ATOM     23  C   UNL     1       4.938  -3.277  -6.739  0.00  0.00    +0.218 A 
ATOM     24  N   UNL     1       3.675  -3.675  -6.776  0.00  0.00    -0.223 NA
ATOM     25  C   UNL     1       3.012  -3.716  -7.920  0.00  0.00    +0.116 A 
ATOM     26  N   UNL     1       5.601  -3.246  -5.525  0.00  0.00    -0.299 N 
ATOM     27  C   UNL     1       7.001  -2.804  -5.447  0.00  0.00    +0.108 C 
ATOM     28  C   UNL     1       7.820  -3.886  -4.737  0.00  0.00    +0.019 C 
ATOM     29  C   UNL     1       7.183  -4.195  -3.380  0.00  0.00    +0.008 C 
ATOM     30  C   UNL     1       5.763  -4.725  -3.591  0.00  0.00    +0.024 C 
ATOM     31  C   UNL     1       4.918  -3.648  -4.288  0.00  0.00    +0.113 C 
ENDBRANCH  19  30
ENDBRANCH  15  19
ENDBRANCH   1  16
BRANCH  11  32
ATOM     32  C   UNL     1      -2.113  -6.559   0.311  0.00  0.00    +0.131 C 
BRANCH  32  33
ATOM     33  C   UNL     1      -3.524  -6.967   0.650  0.00  0.00    -0.039 A 
ATOM     34  C   UNL     1      -4.452  -7.151  -0.358  0.00  0.00    +0.005 A 
ATOM     35  C   UNL     1      -5.745  -7.526  -0.048  0.00  0.00    +0.020 A 
ATOM     36  C   UNL     1      -6.111  -7.717   1.273  0.00  0.00    +0.041 A 
ATOM     37  C   UNL     1      -5.183  -7.533   2.281  0.00  0.00    +0.020 A 
ATOM     38  C   UNL     1      -3.888  -7.164   1.969  0.00  0.00    +0.005 A 
ATOM     39 CL   UNL     1      -7.736  -8.187   1.664  0.00  0.00    -0.084 Cl
ENDBRANCH  32  33
ENDBRANCH  11  32
TORSDOF 5
