REMARK  Name = ZINC39354250
REMARK  6 active torsions:
REMARK  status: ('A' for Active; 'I' for Inactive)
REMARK    1  A    between atoms: C_4  and  C_7
REMARK    2  A    between atoms: C_9  and  C_17
REMARK    3  A    between atoms: N_18  and  N_19
REMARK    4  A    between atoms: C_24  and  C_27
REMARK    5  A    between atoms: C_27  and  C_28
REMARK    6  A    between atoms: C_28  and  C_30
REMARK                            x       y       z     vdW  Elec       q    Type
REMARK                         _______ _______ _______ _____ _____    ______ ____
ROOT
ATOM      1  C   UNL     1       4.245  -0.438   2.493  0.00  0.00    +0.141 C 
ATOM      2  N   UNL     1       4.536  -1.025   3.641  0.00  0.00    -0.155 NA
ENDROOT
BRANCH   1   4
ATOM      3  C   UNL     1       3.711  -0.707  -0.038  0.00  0.00    +0.142 C 
ATOM      4  C   UNL     1       4.049  -1.204   1.351  0.00  0.00    +0.008 C 
ATOM      5  C   UNL     1       4.122  -2.599   1.243  0.00  0.00    +0.005 A 
ATOM      6  C   UNL     1       4.397  -3.613   2.181  0.00  0.00    +0.010 A 
ATOM      7  C   UNL     1       4.401  -4.914   1.787  0.00  0.00    +0.001 A 
ATOM      8  C   UNL     1       4.139  -5.277   0.466  0.00  0.00    +0.002 A 
ATOM      9  C   UNL     1       3.867  -4.353  -0.489  0.00  0.00    +0.026 A 
ATOM     10  C   UNL     1       3.845  -2.976  -0.151  0.00  0.00    +0.044 A 
ATOM     11  N   UNL     1       3.611  -1.900  -0.883  0.00  0.00    -0.373 N 
ATOM     12  H   UNL     1       3.405  -1.900  -1.831  0.00  0.00    +0.161 HD
BRANCH   3  16
ATOM     13  C   UNL     1      -0.017   1.378   0.010  0.00  0.00    +0.000 A 
ATOM     14  C   UNL     1       1.171   2.086   0.002  0.00  0.00    +0.000 A 
ATOM     15  C   UNL     1       2.377   1.411  -0.013  0.00  0.00    +0.006 A 
ATOM     16  C   UNL     1       2.396   0.029  -0.020  0.00  0.00    -0.021 A 
ATOM     17  C   UNL     1       1.208  -0.679  -0.012  0.00  0.00    +0.006 A 
ATOM     18  C   UNL     1       0.002  -0.004   0.002  0.00  0.00    +0.000 A 
ENDBRANCH   3  16
ENDBRANCH   1   4
BRANCH   2  19
ATOM     19  N   UNL     1       4.718  -0.314   4.702  0.00  0.00    -0.127 NA
ATOM     20  C   UNL     1       5.011  -0.905   5.857  0.00  0.00    +0.183 C 
ATOM     21  N   UNL     1       5.159  -2.243   6.083  0.00  0.00    -0.263 N 
ATOM     22  C   UNL     1       5.454  -2.734   7.279  0.00  0.00    +0.232 C 
ATOM     23  O   UNL     1       5.589  -3.919   7.499  0.00  0.00    -0.274 OA
ATOM     24  C   UNL     1       5.604  -1.661   8.347  0.00  0.00    +0.147 C 
ATOM     25  S   UNL     1       5.282  -0.157   7.339  0.00  0.00    -0.075 S 
ATOM     26  H   UNL     1       5.045  -2.857   5.341  0.00  0.00    +0.157 HD
BRANCH  24  27
ATOM     27  C   UNL     1       4.561  -1.829   9.454  0.00  0.00    +0.103 C 
BRANCH  27  28
ATOM     28  C   UNL     1       4.823  -0.825  10.547  0.00  0.00    +0.165 C 
ATOM     29  O   UNL     1       5.752  -0.051  10.450  0.00  0.00    -0.292 OA
BRANCH  28  30
ATOM     30  C   UNL     1       3.951  -0.783  11.732  0.00  0.00    +0.017 A 
ATOM     31  C   UNL     1       2.882  -1.677  11.850  0.00  0.00    +0.011 A 
ATOM     32  C   UNL     1       2.070  -1.631  12.963  0.00  0.00    +0.001 A 
ATOM     33  C   UNL     1       2.311  -0.705  13.962  0.00  0.00    +0.000 A 
ATOM     34  C   UNL     1       3.366   0.184  13.853  0.00  0.00    +0.001 A 
ATOM     35  C   UNL     1       4.191   0.147  12.748  0.00  0.00    +0.011 A 
ENDBRANCH  28  30
ENDBRANCH  27  28
ENDBRANCH  24  27
ENDBRANCH   2  19
TORSDOF 6
