REMARK  Name = ZINC12605792
REMARK  4 active torsions:
REMARK  status: ('A' for Active; 'I' for Inactive)
REMARK    1  A    between atoms: C_3  and  N_19
REMARK    2  A    between atoms: C_6  and  N_7
REMARK    3  A    between atoms: N_7  and  S_8
REMARK    4  A    between atoms: S_8  and  C_11
REMARK                            x       y       z     vdW  Elec       q    Type
REMARK                         _______ _______ _______ _____ _____    ______ ____
ROOT
ATOM      1  N   UNL     1      -0.893   2.006  -1.281  0.00  0.00    -0.216 N 
ATOM      2  H   UNL     1      -1.271   1.389  -1.928  0.00  0.00    +0.174 HD
ENDROOT
BRANCH   1   8
ATOM      3  C   UNL     1      -1.549   4.071  -0.219  0.00  0.00    +0.026 A 
ATOM      4  C   UNL     1      -1.832   5.420  -0.298  0.00  0.00    +0.030 A 
ATOM      5  C   UNL     1      -1.766   6.073  -1.522  0.00  0.00    +0.069 A 
ATOM      6  C   UNL     1      -1.408   5.371  -2.665  0.00  0.00    +0.030 A 
ATOM      7  C   UNL     1      -1.119   4.024  -2.586  0.00  0.00    +0.026 A 
ATOM      8  C   UNL     1      -1.186   3.370  -1.362  0.00  0.00    +0.048 A 
BRANCH   5   9
ATOM      9  N   UNL     1      -2.059   7.443  -1.603  0.00  0.00    -0.200 N 
ATOM     10  C   UNL     1      -2.420   8.265  -0.594  0.00  0.00    +0.250 A 
ATOM     11  N   UNL     1      -2.598   9.454  -1.107  0.00  0.00    -0.116 NA
ATOM     12  N   UNL     1      -2.374   9.440  -2.372  0.00  0.00    -0.023 NA
ATOM     13  N   UNL     1      -2.035   8.255  -2.750  0.00  0.00    -0.039 NA
ENDBRANCH   5   9
ENDBRANCH   1   8
BRANCH   1  14
ATOM     14  S   UNL     1       0.099   1.441  -0.081  0.00  0.00    +0.074 S 
ATOM     15  O   UNL     1      -0.424   1.935   1.144  0.00  0.00    -0.150 OA
ATOM     16  O   UNL     1       0.284   0.054  -0.327  0.00  0.00    -0.150 OA
BRANCH  14  17
ATOM     17  C   UNL     1       1.671   2.206  -0.302  0.00  0.00    +0.127 A 
ATOM     18  C   UNL     1       2.163   3.064   0.663  0.00  0.00    +0.031 A 
ATOM     19  C   UNL     1       3.396   3.665   0.491  0.00  0.00    +0.017 A 
ATOM     20  C   UNL     1       4.138   3.407  -0.648  0.00  0.00    +0.019 A 
ATOM     21  C   UNL     1       3.646   2.548  -1.614  0.00  0.00    +0.037 A 
ATOM     22  C   UNL     1       2.414   1.943  -1.439  0.00  0.00    +0.069 A 
ATOM     23 CL   UNL     1       1.799   0.860  -2.647  0.00  0.00    -0.081 Cl
ATOM     24 BR   UNL     1       5.825   4.228  -0.884  0.00  0.00    -0.050 Br
ENDBRANCH  14  17
ENDBRANCH   1  14
TORSDOF 4
