REMARK  Name = ZINC00128052
REMARK  7 active torsions:
REMARK  status: ('A' for Active; 'I' for Inactive)
REMARK    1  A    between atoms: C_1  and  C_2
REMARK    2  A    between atoms: C_2  and  C_3
REMARK    3  A    between atoms: C_3  and  C_4
REMARK    4  A    between atoms: C_7  and  O_20
REMARK    5  A    between atoms: C_9  and  C_18
REMARK    6  A    between atoms: C_10  and  C_11
REMARK    7  A    between atoms: C_10  and  C_13
REMARK                            x       y       z     vdW  Elec       q    Type
REMARK                         _______ _______ _______ _____ _____    ______ ____
ROOT
ATOM      1  C   UNL     1       2.633   3.649  -0.275  0.00  0.00    +0.029 C 
ATOM      2  C   UNL     1       2.224   2.381   0.477  0.00  0.00    +0.061 C 
ATOM      3  C   UNL     1       3.460   1.478   0.644  0.00  0.00    +0.135 C 
ATOM      4  C   UNL     1       4.428   2.235   1.596  0.00  0.00    +0.088 C 
ATOM      5  C   UNL     1       4.948   3.307   0.595  0.00  0.00    +0.168 C 
ATOM      6  C   UNL     1       3.808   4.330   0.431  0.00  0.00    +0.172 C 
ATOM      7  C   UNL     1       5.032   2.520  -0.705  0.00  0.00    +0.238 C 
ATOM      8  O   UNL     1       5.752   2.787  -1.644  0.00  0.00    -0.274 OA
ATOM      9  N   UNL     1       4.169   1.460  -0.652  0.00  0.00    -0.286 N 
ATOM     10  H   UNL     1       4.031   0.802  -1.351  0.00  0.00    +0.151 HD
ENDROOT
BRANCH   6  11
ATOM     11  C   UNL     1       4.277   5.467  -0.378  0.00  0.00    +0.087 C 
ATOM     12  N   UNL     1       4.640   6.344  -1.003  0.00  0.00    -0.195 NA
ENDBRANCH   6  11
BRANCH   6  13
ATOM     13  C   UNL     1       3.378   4.811   1.754  0.00  0.00    +0.087 C 
ATOM     14  N   UNL     1       3.047   5.181   2.775  0.00  0.00    -0.195 NA
ENDBRANCH   6  13
BRANCH   5  15
ATOM     15  C   UNL     1       6.221   3.921   1.007  0.00  0.00    +0.081 C 
ATOM     16  N   UNL     1       7.203   4.395   1.325  0.00  0.00    -0.195 NA
ENDBRANCH   5  15
BRANCH   3  17
ATOM     17  O   UNL     1       3.130   0.169   1.114  0.00  0.00    -0.372 OA
ATOM     18  H   UNL     1       3.893  -0.413   1.225  0.00  0.00    +0.212 HD
ENDBRANCH   3  17
BRANCH   1  19
ATOM     19  C   UNL     1       3.043   3.282  -1.702  0.00  0.00    +0.006 C 
BRANCH  19  21
ATOM     20  C   UNL     1       2.457   3.523  -4.119  0.00  0.00    +0.004 C 
ATOM     21  C   UNL     1       2.047   3.890  -2.691  0.00  0.00    -0.003 C 
ENDBRANCH  19  21
ENDBRANCH   1  19
TORSDOF 6
