REMARK  Name = ZINC08970938
REMARK  7 active torsions:
REMARK  status: ('A' for Active; 'I' for Inactive)
REMARK    1  A    between atoms: C_1  and  C_2
REMARK    2  A    between atoms: C_2  and  C_3
REMARK    3  A    between atoms: C_3  and  C_4
REMARK    4  A    between atoms: C_4  and  N_5
REMARK    5  A    between atoms: C_10  and  C_26
REMARK    6  A    between atoms: C_26  and  C_27
REMARK    7  A    between atoms: C_30  and  O_33
REMARK                            x       y       z     vdW  Elec       q    Type
REMARK                         _______ _______ _______ _____ _____    ______ ____
ROOT
ATOM      1  N   UNL     1       3.342   2.894   2.783  0.00  0.00    -0.242 N 
ATOM      2  C   UNL     1       4.219   2.730   1.736  0.00  0.00    +0.224 C 
ATOM      3  O   UNL     1       5.429   2.670   1.780  0.00  0.00    -0.275 OA
ATOM      4  C   UNL     1       3.367   2.646   0.574  0.00  0.00    +0.073 C 
ATOM      5  C   UNL     1       3.393   2.381  -0.865  0.00  0.00    -0.053 C 
ATOM      6  C   UNL     1       1.178   2.124   0.002  0.00  0.00    +0.050 C 
ATOM      7  C   UNL     1       2.135   1.844   1.141  0.00  0.00    +0.088 C 
ATOM      8  C   UNL     1       2.056   2.571   2.447  0.00  0.00    +0.225 C 
ATOM      9  O   UNL     1       1.053   2.821   3.080  0.00  0.00    -0.275 OA
ATOM     10  C   UNL     1       0.614   3.512   0.009  0.00  0.00    -0.028 A 
ATOM     11  C   UNL     1       1.171   4.772   0.002  0.00  0.00    +0.004 A 
ATOM     12  C   UNL     1       0.361   5.893   0.011  0.00  0.00    +0.000 A 
ATOM     13  C   UNL     1      -1.015   5.748   0.027  0.00  0.00    +0.002 A 
ATOM     14  C   UNL     1      -1.579   4.490   0.032  0.00  0.00    +0.023 A 
ATOM     15  C   UNL     1      -0.771   3.356   0.023  0.00  0.00    +0.036 A 
ATOM     16  N   UNL     1      -1.105   2.000   0.017  0.00  0.00    -0.286 N 
ATOM     17  C   UNL     1      -0.014   1.209   0.009  0.00  0.00    +0.211 C 
ATOM     18  O   UNL     1       0.002  -0.004   0.002  0.00  0.00    -0.277 OA
ATOM     19  H   UNL     1      -2.016   1.667   0.022  0.00  0.00    +0.155 HD
ATOM     20  N   UNL     1       2.024   1.894  -1.188  0.00  0.00    +0.394 N 
ATOM     21  H   UNL     1       2.053   0.891  -1.409  0.00  0.00    -0.083 HD
ATOM     22  H   UNL     1       1.648   2.411  -1.991  0.00  0.00    -0.083 HD
ENDROOT
BRANCH   1  23
ATOM     23  C   UNL     1       3.741   3.354   4.116  0.00  0.00    +0.116 C 
BRANCH  23  24
ATOM     24  C   UNL     1       4.119   2.148   4.979  0.00  0.00    +0.019 C 
BRANCH  24  26
ATOM     25  C   UNL     1       4.915   1.423   7.234  0.00  0.00    +0.004 C 
ATOM     26  C   UNL     1       4.536   2.628   6.371  0.00  0.00    -0.002 C 
ENDBRANCH  24  26
ENDBRANCH  23  24
ENDBRANCH   1  23
BRANCH   5  27
ATOM     27  C   UNL     1       4.439   1.312  -1.189  0.00  0.00    +0.020 C 
BRANCH  27  28
ATOM     28  C   UNL     1       4.495   1.100  -2.679  0.00  0.00    -0.049 A 
ATOM     29  C   UNL     1       3.685   0.150  -3.273  0.00  0.00    +0.007 A 
ATOM     30  C   UNL     1       3.731  -0.043  -4.640  0.00  0.00    +0.045 A 
ATOM     31  C   UNL     1       4.599   0.711  -5.416  0.00  0.00    +0.117 A 
ATOM     32  C   UNL     1       5.416   1.659  -4.818  0.00  0.00    +0.045 A 
ATOM     33  C   UNL     1       5.362   1.852  -3.451  0.00  0.00    +0.007 A 
BRANCH  31  34
ATOM     34  O   UNL     1       4.651   0.519  -6.761  0.00  0.00    -0.507 OA
ATOM     35  H   UNL     1       5.294  -0.147  -7.039  0.00  0.00    +0.292 HD
ENDBRANCH  31  34
ENDBRANCH  27  28
ENDBRANCH   5  27
TORSDOF 6
