REMARK  Name = ZINC14749275
REMARK  14 active torsions:
REMARK  status: ('A' for Active; 'I' for Inactive)
REMARK    1  A    between atoms: C_1  and  C_2
REMARK    2  A    between atoms: C_2  and  C_3
REMARK    3  A    between atoms: C_3  and  C_5
REMARK    4  A    between atoms: C_3  and  C_6
REMARK    5  A    between atoms: N_8  and  C_9
REMARK    6  A    between atoms: C_12  and  N_29
REMARK    7  A    between atoms: N_16  and  C_22
REMARK    8  A    between atoms: C_17  and  C_18
REMARK    9  A    between atoms: C_18  and  O_20
REMARK   10  A    between atoms: O_20  and  C_21
REMARK   11  A    between atoms: C_22  and  C_23
REMARK   12  A    between atoms: N_29  and  C_30
REMARK   13  A    between atoms: C_30  and  C_31
REMARK   14  A    between atoms: C_32  and  C_36
REMARK                            x       y       z     vdW  Elec       q    Type
REMARK                         _______ _______ _______ _____ _____    ______ ____
ROOT
ATOM      1  C   UNL     1       2.385   4.228   0.013  0.00  0.00    +0.075 A 
ATOM      2  C   UNL     1       1.649   4.797  -1.117  0.00  0.00    +0.043 A 
ATOM      3  C   UNL     1       1.970   5.038  -2.458  0.00  0.00    +0.038 A 
ATOM      4  C   UNL     1       1.002   5.614  -3.267  0.00  0.00    +0.047 A 
ATOM      5  C   UNL     1      -0.241   5.928  -2.722  0.00  0.00    +0.136 A 
ATOM      6  N   UNL     1      -0.517   5.692  -1.459  0.00  0.00    -0.235 NA
ATOM      7  C   UNL     1       0.371   5.142  -0.638  0.00  0.00    +0.143 A 
ATOM      8  N   UNL     1       0.317   4.805   0.694  0.00  0.00    -0.316 N 
ATOM      9  C   UNL     1       1.525   4.251   1.092  0.00  0.00    +0.151 A 
ENDROOT
BRANCH   1  12
ATOM     10  C   UNL     1       4.719   4.604   0.203  0.00  0.00    +0.220 C 
ATOM     11  O   UNL     1       4.500   5.763   0.482  0.00  0.00    -0.275 OA
ATOM     12  N   UNL     1       3.692   3.754   0.000  0.00  0.00    -0.283 N 
ATOM     13  H   UNL     1       3.866   2.812  -0.155  0.00  0.00    +0.155 HD
BRANCH  10  14
ATOM     14  C   UNL     1       6.138   4.112   0.083  0.00  0.00    +0.072 C 
ATOM     15  C   UNL     1       6.375   3.578  -1.331  0.00  0.00    +0.017 C 
BRANCH  14  17
ATOM     16  C   UNL     1       8.540   4.743   0.360  0.00  0.00    +0.004 C 
ATOM     17  C   UNL     1       7.103   5.268   0.359  0.00  0.00    +0.009 C 
ENDBRANCH  14  17
ENDBRANCH  10  14
ENDBRANCH   1  12
BRANCH   9  18
ATOM     18  C   UNL     1       1.829   3.789   2.397  0.00  0.00    +0.358 C 
ATOM     19  O   UNL     1       2.926   3.319   2.636  0.00  0.00    -0.243 OA
BRANCH  18  20
ATOM     20  O   UNL     1       0.903   3.871   3.375  0.00  0.00    -0.463 OA
ATOM     21  C   UNL     1       1.278   3.387   4.667  0.00  0.00    +0.280 C 
ENDBRANCH  18  20
ENDBRANCH   9  18
BRANCH   4  22
ATOM     22  N   UNL     1       1.271   5.876  -4.616  0.00  0.00    -0.338 N 
ATOM     23  H   UNL     1       2.138   5.654  -4.990  0.00  0.00    +0.146 HD
BRANCH  22  24
ATOM     24  C   UNL     1       0.242   6.484  -5.463  0.00  0.00    +0.144 C 
BRANCH  24  25
ATOM     25  C   UNL     1       0.781   6.659  -6.860  0.00  0.00    +0.010 A 
ATOM     26  C   UNL     1       0.735   5.798  -7.906  0.00  0.00    -0.039 A 
ATOM     27  C   UNL     1       1.298   6.177  -9.111  0.00  0.00    +0.011 A 
ATOM     28  C   UNL     1       1.888   7.394  -9.207  0.00  0.00    +0.046 A 
ATOM     29  S   UNL     1       1.650   8.050  -7.564  0.00  0.00    -0.100 S 
ATOM     30  C   UNL     1       0.078   4.451  -7.760  0.00  0.00    +0.044 C 
ENDBRANCH  24  25
ENDBRANCH  22  24
ENDBRANCH   4  22
BRANCH   8  31
ATOM     31  C   UNL     1      -0.845   5.002   1.564  0.00  0.00    +0.155 C 
BRANCH  31  32
ATOM     32  C   UNL     1      -0.763   6.382   2.219  0.00  0.00    +0.138 C 
ATOM     33  C   UNL     1      -1.921   6.553   3.226  0.00  0.00    +0.035 C 
ATOM     34  C   UNL     1      -2.334   8.034   3.005  0.00  0.00    +0.031 C 
ATOM     35  C   UNL     1      -2.075   8.188   1.485  0.00  0.00    +0.160 C 
ATOM     36  O   UNL     1      -0.902   7.402   1.223  0.00  0.00    -0.375 OA
ENDBRANCH  31  32
ENDBRANCH   8  31
TORSDOF 10
