REMARK  Name = ZINC09138273
REMARK  9 active torsions:
REMARK  status: ('A' for Active; 'I' for Inactive)
REMARK    1  A    between atoms: C_1  and  N_2
REMARK    2  A    between atoms: C_10  and  C_12
REMARK    3  A    between atoms: C_12  and  C_14
REMARK    4  A    between atoms: C_12  and  N_73
REMARK    5  A    between atoms: C_14  and  N_15
REMARK    6  A    between atoms: C_16  and  C_18
REMARK    7  A    between atoms: N_20  and  C_21
REMARK    8  A    between atoms: C_21  and  C_22
REMARK    9  A    between atoms: C_22  and  C_23
REMARK                            x       y       z     vdW  Elec       q    Type
REMARK                         _______ _______ _______ _____ _____    ______ ____
ROOT
ATOM      1  C   UNL     1       3.212  -2.374   4.249  0.00  0.00    -0.020 C 
ENDROOT
BRANCH   1  11
ATOM      2  C   UNL     1      -0.610  -0.893  -0.557  0.00  0.00    +0.129 C 
ATOM      3  N   UNL     1       0.723  -0.293  -0.407  0.00  0.00    -0.333 N 
ATOM      4  C   UNL     1       0.652   1.167  -0.476  0.00  0.00    +0.105 C 
ATOM      5  C   UNL     1       2.063   1.737  -0.286  0.00  0.00    +0.024 C 
ATOM      6  C   UNL     1       2.490   1.465   1.158  0.00  0.00    +0.038 C 
ATOM      7  C   UNL     1       2.196   0.029   1.512  0.00  0.00    -0.026 A 
ATOM      8  C   UNL     1       1.353  -0.757   0.747  0.00  0.00    +0.033 A 
ATOM      9  C   UNL     1       1.112  -2.078   1.130  0.00  0.00    +0.023 A 
ATOM     10  C   UNL     1       1.709  -2.597   2.259  0.00  0.00    +0.004 A 
ATOM     11  C   UNL     1       2.555  -1.808   3.017  0.00  0.00    -0.059 A 
ATOM     12  C   UNL     1       2.796  -0.501   2.643  0.00  0.00    +0.007 A 
ENDBRANCH   1  11
BRANCH   1  18
ATOM     13  C   UNL     1       1.048  -2.460   5.331  0.00  0.00    -0.078 C 
ATOM     14  C   UNL     1       0.014  -3.403   5.950  0.00  0.00    -0.019 C 
ATOM     15  C   UNL     1       0.613  -4.065   7.194  0.00  0.00    -0.004 C 
ATOM     16  C   UNL     1       1.892  -4.809   6.801  0.00  0.00    -0.019 C 
ATOM     17  C   UNL     1       2.872  -3.825   6.157  0.00  0.00    -0.078 C 
ATOM     18  N   UNL     1       2.244  -3.242   4.953  0.00  0.00    +0.385 N 
ATOM     19  H   UNL     1       1.960  -4.002   4.324  0.00  0.00    -0.081 HD
ENDBRANCH   1  18
BRANCH   1  20
ATOM     20  C   UNL     1       4.424  -3.214   3.841  0.00  0.00    +0.094 C 
BRANCH  20  21
ATOM     21  N   UNL     1       5.417  -2.354   3.191  0.00  0.00    -0.309 N 
ATOM     22  C   UNL     1       6.610  -2.861   2.824  0.00  0.00    +0.299 C 
ATOM     23  O   UNL     1       6.863  -4.030   3.032  0.00  0.00    -0.265 OA
ATOM     24  H   UNL     1       5.215  -1.420   3.025  0.00  0.00    +0.149 HD
BRANCH  22  25
ATOM     25  C   UNL     1       7.623  -1.984   2.161  0.00  0.00    +0.299 C 
ATOM     26  O   UNL     1       7.370  -0.816   1.954  0.00  0.00    -0.265 OA
ATOM     27  N   UNL     1       8.816  -2.491   1.794  0.00  0.00    -0.307 N 
ATOM     28  H   UNL     1       9.018  -3.425   1.960  0.00  0.00    +0.149 HD
BRANCH  27  29
ATOM     29  C   UNL     1       9.809  -1.632   1.145  0.00  0.00    +0.109 C 
BRANCH  29  30
ATOM     30  C   UNL     1      11.065  -2.448   0.834  0.00  0.00    +0.049 C 
BRANCH  30  31
ATOM     31  C   UNL     1      12.086  -1.563   0.166  0.00  0.00    -0.072 C 
ATOM     32  C   UNL     1      12.990  -1.010   0.909  0.00  0.00    -0.028 C 
ATOM     33  C   UNL     1      14.064  -0.100   0.391  0.00  0.00    +0.027 C 
ATOM     34  C   UNL     1      14.202  -0.258  -1.125  0.00  0.00    +0.004 C 
ATOM     35  C   UNL     1      12.806  -0.157  -1.752  0.00  0.00    +0.005 C 
ATOM     36  C   UNL     1      11.996  -1.383  -1.321  0.00  0.00    +0.030 C 
ENDBRANCH  30  31
ENDBRANCH  29  30
ENDBRANCH  27  29
ENDBRANCH  22  25
ENDBRANCH  20  21
ENDBRANCH   1  20
TORSDOF 8
