REMARK  Name = ZINC39279799
REMARK  9 active torsions:
REMARK  status: ('A' for Active; 'I' for Inactive)
REMARK    1  A    between atoms: C_1  and  C_2
REMARK    2  A    between atoms: C_2  and  O_3
REMARK    3  A    between atoms: O_3  and  C_4
REMARK    4  A    between atoms: C_7  and  C_10
REMARK    5  A    between atoms: C_16  and  C_24
REMARK    6  A    between atoms: C_18  and  C_22
REMARK    7  A    between atoms: C_19  and  N_21
REMARK    8  A    between atoms: C_25  and  C_37
REMARK    9  A    between atoms: N_27  and  C_31
REMARK                            x       y       z     vdW  Elec       q    Type
REMARK                         _______ _______ _______ _____ _____    ______ ____
ROOT
ATOM      1  C   UNL     1       1.566  -6.230  -1.905  0.00  0.00    +0.084 C 
ATOM      2  N   UNL     1       1.251  -7.183  -1.069  0.00  0.00    -0.150 NA
ATOM      3  N   UNL     1       1.255  -8.439  -1.675  0.00  0.00    -0.115 NA
ATOM      4  C   UNL     1       1.511  -8.368  -2.932  0.00  0.00    +0.227 C 
ATOM      5  C   UNL     1       1.846  -6.908  -3.227  0.00  0.00    +0.140 C 
ATOM      6  C   UNL     1       0.845  -6.456  -4.297  0.00  0.00    +0.083 C 
ATOM      7  C   UNL     1       0.689  -7.551  -5.317  0.00  0.00    +0.095 C 
ATOM      8  C   UNL     1       0.992  -8.847  -5.096  0.00  0.00    +0.200 C 
ATOM      9  O   UNL     1       1.501  -9.294  -3.915  0.00  0.00    -0.425 OA
ENDROOT
BRANCH   6  10
ATOM     10  C   UNL     1       1.356  -5.208  -4.969  0.00  0.00    -0.006 C 
ATOM     11  C   UNL     1       0.700  -4.075  -5.109  0.00  0.00    +0.022 C 
ATOM     12  N   UNL     1       1.450  -3.124  -5.773  0.00  0.00    -0.267 N 
ATOM     13  N   UNL     1       2.708  -3.644  -6.110  0.00  0.00    -0.231 N 
ATOM     14  C   UNL     1       2.718  -5.025  -5.600  0.00  0.00    +0.213 C 
ATOM     15 CL   UNL     1       2.944  -6.191  -6.956  0.00  0.00    -0.094 Cl
ATOM     16  C   UNL     1      -0.702  -3.845  -4.606  0.00  0.00    +0.062 C 
ATOM     17  H   UNL     1       1.149  -2.225  -5.977  0.00  0.00    +0.170 HD
BRANCH  13  18
ATOM     18  C   UNL     1       3.739  -2.986  -6.784  0.00  0.00    +0.050 A 
ATOM     19  C   UNL     1       4.931  -3.648  -7.049  0.00  0.00    +0.025 A 
ATOM     20  C   UNL     1       5.948  -2.995  -7.716  0.00  0.00    +0.002 A 
ATOM     21  C   UNL     1       5.781  -1.683  -8.121  0.00  0.00    +0.000 A 
ATOM     22  C   UNL     1       4.596  -1.021  -7.859  0.00  0.00    +0.002 A 
ATOM     23  C   UNL     1       3.572  -1.670  -7.197  0.00  0.00    +0.025 A 
ENDBRANCH  13  18
ENDBRANCH   6  10
BRANCH   1  27
ATOM     24  C   UNL     1       1.747  -2.071  -1.085  0.00  0.00    +0.121 A 
ATOM     25  C   UNL     1       2.519  -2.609  -2.108  0.00  0.00    +0.046 A 
ATOM     26  C   UNL     1       2.463  -3.959  -2.378  0.00  0.00    +0.013 A 
ATOM     27  C   UNL     1       1.629  -4.788  -1.621  0.00  0.00    -0.001 A 
ATOM     28  C   UNL     1       0.855  -4.241  -0.592  0.00  0.00    +0.013 A 
ATOM     29  C   UNL     1       0.921  -2.891  -0.327  0.00  0.00    +0.046 A 
BRANCH  24  30
ATOM     30  O   UNL     1       1.805  -0.740  -0.823  0.00  0.00    -0.492 OA
BRANCH  30  32
ATOM     31  C   UNL     1       2.607   1.509  -1.199  0.00  0.00    +0.048 C 
ATOM     32  C   UNL     1       2.675   0.045  -1.641  0.00  0.00    +0.225 C 
ENDBRANCH  30  32
ENDBRANCH  24  30
ENDBRANCH   1  27
BRANCH   8  33
ATOM     33  N   UNL     1       0.786  -9.752  -6.106  0.00  0.00    -0.328 N 
ATOM     34  H   UNL     1       0.428  -9.456  -6.958  0.00  0.00    +0.145 HD
ATOM     35  H   UNL     1       0.997 -10.689  -5.969  0.00  0.00    +0.145 HD
ENDBRANCH   8  33
BRANCH   7  36
ATOM     36  C   UNL     1       0.183  -7.195  -6.609  0.00  0.00    +0.100 C 
ATOM     37  N   UNL     1      -0.218  -6.912  -7.633  0.00  0.00    -0.191 NA
ENDBRANCH   7  36
TORSDOF 7
