REMARK  Name = ZINC39979477
REMARK  9 active torsions:
REMARK  status: ('A' for Active; 'I' for Inactive)
REMARK    1  A    between atoms: C_1  and  C_2
REMARK    2  A    between atoms: C_2  and  C_3
REMARK    3  A    between atoms: C_3  and  C_4
REMARK    4  A    between atoms: C_4  and  O_5
REMARK    5  A    between atoms: O_5  and  C_6
REMARK    6  A    between atoms: C_10  and  N_12
REMARK    7  A    between atoms: N_12  and  C_13
REMARK    8  A    between atoms: N_16  and  S_17
REMARK    9  A    between atoms: S_17  and  C_20
REMARK                            x       y       z     vdW  Elec       q    Type
REMARK                         _______ _______ _______ _____ _____    ______ ____
ROOT
ATOM      1  C   UNL     1       3.116  -7.692  -5.121  0.00  0.00    +0.237 C 
ATOM      2  C   UNL     1       4.590  -7.927  -5.361  0.00  0.00    +0.192 C 
ATOM      3  N   UNL     1       5.474  -7.498  -4.509  0.00  0.00    -0.110 NA
ATOM      4  N   UNL     1       4.973  -8.586  -6.466  0.00  0.00    -0.226 NA
ATOM      5  C   UNL     1       4.098  -9.030  -7.343  0.00  0.00    +0.089 A 
ATOM      6  C   UNL     1       4.538  -9.722  -8.500  0.00  0.00    +0.030 A 
ATOM      7  C   UNL     1       3.645 -10.180  -9.404  0.00  0.00    +0.002 A 
ATOM      8  C   UNL     1       2.259 -10.004  -9.258  0.00  0.00    +0.002 A 
ATOM      9  C   UNL     1       1.733  -9.358  -8.194  0.00  0.00    +0.027 A 
ATOM     10  C   UNL     1       2.639  -8.830  -7.164  0.00  0.00    +0.063 A 
ATOM     11  N   UNL     1       2.168  -8.202  -6.123  0.00  0.00    -0.359 N 
ATOM     12  H   UNL     1       1.213  -8.075  -6.012  0.00  0.00    +0.162 HD
ENDROOT
BRANCH   3  13
ATOM     13  S   UNL     1       7.086  -7.763  -4.784  0.00  0.00    +0.100 S 
ATOM     14  O   UNL     1       7.286  -9.168  -4.703  0.00  0.00    -0.146 OA
ATOM     15  O   UNL     1       7.430  -7.010  -5.938  0.00  0.00    -0.146 OA
BRANCH  13  16
ATOM     16  C   UNL     1       7.968  -7.050  -3.435  0.00  0.00    +0.113 A 
ATOM     17  C   UNL     1       8.378  -5.731  -3.498  0.00  0.00    +0.030 A 
ATOM     18  C   UNL     1       9.070  -5.172  -2.441  0.00  0.00    +0.022 A 
ATOM     19  C   UNL     1       9.353  -5.931  -1.319  0.00  0.00    +0.041 A 
ATOM     20  C   UNL     1       8.942  -7.251  -1.257  0.00  0.00    +0.022 A 
ATOM     21  C   UNL     1       8.245  -7.808  -2.313  0.00  0.00    +0.030 A 
ATOM     22 CL   UNL     1      10.222  -5.229   0.009  0.00  0.00    -0.084 Cl
ENDBRANCH  13  16
ENDBRANCH   3  13
BRANCH   1  23
ATOM     23  N   UNL     1       2.908  -6.247  -5.003  0.00  0.00    -0.318 N 
ATOM     24  H   UNL     1       3.250  -5.650  -5.687  0.00  0.00    +0.148 HD
BRANCH  23  29
ATOM     25  C   UNL     1       0.896  -6.065  -1.929  0.00  0.00    +0.122 A 
ATOM     26  C   UNL     1       0.846  -4.692  -1.733  0.00  0.00    +0.046 A 
ATOM     27  C   UNL     1       1.478  -3.841  -2.619  0.00  0.00    +0.005 A 
ATOM     28  C   UNL     1       2.162  -4.354  -3.704  0.00  0.00    +0.023 A 
ATOM     29  C   UNL     1       2.216  -5.728  -3.906  0.00  0.00    +0.032 A 
ATOM     30  C   UNL     1       1.587  -6.584  -3.013  0.00  0.00    +0.068 A 
BRANCH  25  31
ATOM     31  O   UNL     1       0.274  -6.901  -1.056  0.00  0.00    -0.492 OA
BRANCH  31  32
ATOM     32  C   UNL     1      -0.418  -6.296   0.038  0.00  0.00    +0.229 C 
BRANCH  32  33
ATOM     33  C   UNL     1      -1.050  -7.387   0.906  0.00  0.00    +0.041 C 
BRANCH  33  35
ATOM     34  C   UNL     1      -2.423  -7.830   2.945  0.00  0.00    +0.004 C 
ATOM     35  C   UNL     1      -1.791  -6.740   2.078  0.00  0.00    -0.000 C 
ENDBRANCH  33  35
ENDBRANCH  32  33
ENDBRANCH  31  32
ENDBRANCH  25  31
ENDBRANCH  23  29
ENDBRANCH   1  23
TORSDOF 8
