REMARK  Name = ZINC35778451
REMARK  12 active torsions:
REMARK  status: ('A' for Active; 'I' for Inactive)
REMARK    1  A    between atoms: C_1  and  C_2
REMARK    2  A    between atoms: C_3  and  C_21
REMARK    3  A    between atoms: C_4  and  O_14
REMARK    4  A    between atoms: N_5  and  C_7
REMARK    5  A    between atoms: O_14  and  C_15
REMARK    6  A    between atoms: C_21  and  N_22
REMARK    7  A    between atoms: N_22  and  C_23
REMARK    8  A    between atoms: N_22  and  C_29
REMARK    9  A    between atoms: C_23  and  C_24
REMARK   10  A    between atoms: C_24  and  C_25
REMARK   11  A    between atoms: C_24  and  C_26
REMARK   12  A    between atoms: C_24  and  O_28
REMARK                            x       y       z     vdW  Elec       q    Type
REMARK                         _______ _______ _______ _____ _____    ______ ____
ROOT
ATOM      1  C   UNL     1       0.232   2.446   0.591  0.00  0.00    +0.068 C 
ATOM      2  C   UNL     1       0.555   0.976   0.511  0.00  0.00    +0.065 A 
ATOM      3  C   UNL     1       0.463   0.181  -0.635  0.00  0.00    +0.021 A 
ATOM      4  C   UNL     1       0.839  -1.082  -0.298  0.00  0.00    +0.225 A 
ATOM      5  N   UNL     1       1.157  -1.075   1.024  0.00  0.00    -0.200 N 
ATOM      6  N   UNL     1       0.974   0.230   1.501  0.00  0.00    -0.168 NA
ENDROOT
BRANCH   5   7
ATOM      7  C   UNL     1       1.594  -2.174   1.775  0.00  0.00    +0.070 A 
ATOM      8  C   UNL     1       0.963  -3.404   1.640  0.00  0.00    +0.028 A 
ATOM      9  C   UNL     1       1.395  -4.486   2.381  0.00  0.00    +0.003 A 
ATOM     10  C   UNL     1       2.456  -4.347   3.256  0.00  0.00    +0.020 A 
ATOM     11  C   UNL     1       3.088  -3.124   3.393  0.00  0.00    +0.043 A 
ATOM     12  C   UNL     1       2.663  -2.038   2.650  0.00  0.00    +0.048 A 
ATOM     13 CL   UNL     1       4.420  -2.953   4.494  0.00  0.00    -0.083 Cl
ENDBRANCH   5   7
BRANCH   4  14
ATOM     14  O   UNL     1       0.888  -2.154  -1.129  0.00  0.00    -0.438 OA
BRANCH  14  15
ATOM     15  C   UNL     1      -0.250  -2.875  -1.308  0.00  0.00    +0.130 A 
ATOM     16  C   UNL     1      -1.443  -2.442  -0.745  0.00  0.00    +0.046 A 
ATOM     17  C   UNL     1      -2.598  -3.177  -0.929  0.00  0.00    +0.004 A 
ATOM     18  C   UNL     1      -2.567  -4.341  -1.673  0.00  0.00    +0.000 A 
ATOM     19  C   UNL     1      -1.381  -4.774  -2.236  0.00  0.00    +0.004 A 
ATOM     20  C   UNL     1      -0.224  -4.041  -2.060  0.00  0.00    +0.046 A 
ENDBRANCH  14  15
ENDBRANCH   4  14
BRANCH   3  21
ATOM     21  C   UNL     1       0.025   0.641  -2.002  0.00  0.00    -0.035 C 
BRANCH  21  22
ATOM     22  N   UNL     1       1.196   1.096  -2.764  0.00  0.00    +0.386 N 
ATOM     23  H   UNL     1       1.659   1.835  -2.258  0.00  0.00    -0.081 HD
BRANCH  22  24
ATOM     24  C   UNL     1       2.124  -0.026  -2.952  0.00  0.00    -0.068 C 
ATOM     25  C   UNL     1       3.407  -0.029  -2.119  0.00  0.00    -0.017 C 
ATOM     26  C   UNL     1       3.469   0.273  -3.617  0.00  0.00    -0.017 C 
ENDBRANCH  22  24
BRANCH  22  27
ATOM     27  C   UNL     1       0.761   1.597  -4.075  0.00  0.00    -0.039 C 
BRANCH  27  28
ATOM     28  C   UNL     1      -0.051   2.880  -3.887  0.00  0.00    +0.067 C 
ATOM     29  C   UNL     1       0.747   3.869  -3.035  0.00  0.00    +0.044 C 
BRANCH  28  30
ATOM     30  C   UNL     1      -0.340   3.494  -5.232  0.00  0.00    -0.003 C 
ATOM     31  C   UNL     1      -1.579   3.664  -5.622  0.00  0.00    +0.006 C 
ENDBRANCH  28  30
BRANCH  28  32
ATOM     32  O   UNL     1      -1.282   2.571  -3.230  0.00  0.00    -0.387 OA
ATOM     33  H   UNL     1      -1.841   1.948  -3.714  0.00  0.00    +0.210 HD
ENDBRANCH  28  32
ENDBRANCH  27  28
ENDBRANCH  22  27
ENDBRANCH  21  22
ENDBRANCH   3  21
TORSDOF 10
