REMARK  Name = ZINC06077421
REMARK  15 active torsions:
REMARK  status: ('A' for Active; 'I' for Inactive)
REMARK    1  A    between atoms: C_1  and  C_2
REMARK    2  A    between atoms: C_2  and  C_3
REMARK    3  A    between atoms: C_3  and  C_4
REMARK    4  A    between atoms: C_3  and  C_5
REMARK    5  A    between atoms: C_3  and  N_6
REMARK    6  A    between atoms: C_7  and  C_9
REMARK    7  A    between atoms: C_9  and  C_11
REMARK    8  A    between atoms: C_9  and  N_20
REMARK    9  A    between atoms: C_14  and  N_17
REMARK   10  A    between atoms: N_17  and  C_18
REMARK   11  A    between atoms: N_17  and  C_19
REMARK   12  A    between atoms: N_20  and  C_21
REMARK   13  A    between atoms: C_28  and  C_30
REMARK   14  A    between atoms: C_31  and  N_38
REMARK   15  A    between atoms: C_32  and  C_35
REMARK                            x       y       z     vdW  Elec       q    Type
REMARK                         _______ _______ _______ _____ _____    ______ ____
ROOT
ATOM      1  N   UNL     1      -1.034   3.406   0.773  0.00  0.00    -0.251 N 
ATOM      2  C   UNL     1      -2.198   3.847   1.290  0.00  0.00    +0.262 C 
ATOM      3  O   UNL     1      -3.255   3.465   0.822  0.00  0.00    -0.269 OA
ENDROOT
BRANCH   1   4
ATOM      4  C   UNL     1       0.179   3.767   1.371  0.00  0.00    +0.038 A 
ATOM      5  C   UNL     1       0.912   2.825   2.080  0.00  0.00    +0.026 A 
ATOM      6  C   UNL     1       2.111   3.182   2.666  0.00  0.00    +0.040 A 
ATOM      7  C   UNL     1       2.576   4.481   2.555  0.00  0.00    +0.124 A 
ATOM      8  C   UNL     1       1.844   5.424   1.854  0.00  0.00    +0.040 A 
ATOM      9  C   UNL     1       0.647   5.070   1.262  0.00  0.00    +0.026 A 
ATOM     10  F   UNL     1       3.747   4.830   3.132  0.00  0.00    -0.205 F 
ENDBRANCH   1   4
BRANCH   2  11
ATOM     11  C   UNL     1      -2.191   4.785   2.414  0.00  0.00    +0.116 A 
ATOM     12  C   UNL     1      -3.259   5.453   3.015  0.00  0.00    +0.076 A 
ATOM     13  C   UNL     1      -2.853   6.268   4.072  0.00  0.00    +0.155 A 
ATOM     14  N   UNL     1      -1.576   6.334   4.379  0.00  0.00    -0.203 NA
ATOM     15  S   UNL     1      -0.818   5.384   3.376  0.00  0.00    +0.019 S 
BRANCH  13  16
ATOM     16  C   UNL     1      -3.844   7.051   4.833  0.00  0.00    +0.262 C 
ATOM     17  O   UNL     1      -5.023   6.985   4.543  0.00  0.00    -0.269 OA
ATOM     18  N   UNL     1      -3.442   7.839   5.849  0.00  0.00    -0.324 N 
ATOM     19  H   UNL     1      -2.502   7.892   6.080  0.00  0.00    +0.145 HD
ATOM     20  H   UNL     1      -4.094   8.355   6.350  0.00  0.00    +0.145 HD
ENDBRANCH  13  16
BRANCH  12  21
ATOM     21  N   UNL     1      -4.580   5.320   2.607  0.00  0.00    -0.355 N 
ATOM     22  H   UNL     1      -4.802   4.736   1.866  0.00  0.00    +0.142 HD
ATOM     23  H   UNL     1      -5.280   5.811   3.064  0.00  0.00    +0.142 HD
ENDBRANCH  12  21
ENDBRANCH   2  11
BRANCH   1  24
ATOM     24  C   UNL     1      -1.038   2.548  -0.415  0.00  0.00    +0.197 C 
BRANCH  24  25
ATOM     25  C   UNL     1       0.367   2.089  -0.708  0.00  0.00    -0.018 A 
ATOM     26  C   UNL     1       1.360   3.020  -0.957  0.00  0.00    +0.008 A 
ATOM     27  C   UNL     1       2.647   2.602  -1.231  0.00  0.00    +0.023 A 
ATOM     28  C   UNL     1       2.945   1.246  -1.256  0.00  0.00    +0.029 A 
ATOM     29  C   UNL     1       1.946   0.314  -1.006  0.00  0.00    +0.023 A 
ATOM     30  C   UNL     1       0.661   0.738  -0.732  0.00  0.00    +0.008 A 
BRANCH  28  31
ATOM     31  N   UNL     1       4.246   0.820  -1.534  0.00  0.00    -0.336 N 
ATOM     32  C   UNL     1       4.535  -0.610  -1.675  0.00  0.00    +0.129 C 
ATOM     33  C   UNL     1       5.322   1.802  -1.684  0.00  0.00    +0.129 C 
ENDBRANCH  28  31
ENDBRANCH  24  25
BRANCH  24  35
ATOM     34  N   UNL     1      -1.663   2.735  -2.801  0.00  0.00    -0.308 N 
ATOM     35  C   UNL     1      -1.568   3.325  -1.593  0.00  0.00    +0.239 C 
ATOM     36  O   UNL     1      -1.909   4.480  -1.454  0.00  0.00    -0.273 OA
ATOM     37  H   UNL     1      -1.390   1.810  -2.912  0.00  0.00    +0.149 HD
BRANCH  34  38
ATOM     38  C   UNL     1      -2.179   3.489  -3.946  0.00  0.00    +0.029 C 
ATOM     39  C   UNL     1      -3.606   3.955  -3.649  0.00  0.00    +0.031 C 
ATOM     40  C   UNL     1      -1.287   4.706  -4.198  0.00  0.00    +0.031 C 
BRANCH  38  42
ATOM     41  C   UNL     1      -2.721   3.381  -6.382  0.00  0.00    +0.006 C 
ATOM     42  C   UNL     1      -2.183   2.594  -5.186  0.00  0.00    +0.022 C 
ENDBRANCH  38  42
ENDBRANCH  34  38
ENDBRANCH  24  35
ENDBRANCH   1  24
TORSDOF 10
