REMARK  Name = ZINC13501089
REMARK  11 active torsions:
REMARK  status: ('A' for Active; 'I' for Inactive)
REMARK    1  A    between atoms: C_1  and  C_2
REMARK    2  A    between atoms: C_2  and  C_3
REMARK    3  A    between atoms: C_3  and  C_5
REMARK    4  A    between atoms: C_3  and  N_72
REMARK    5  A    between atoms: N_9  and  C_10
REMARK    6  A    between atoms: C_10  and  C_11
REMARK    7  A    between atoms: C_17  and  C_18
REMARK    8  A    between atoms: C_17  and  N_72
REMARK    9  A    between atoms: C_22  and  C_31
REMARK   10  A    between atoms: C_24  and  C_30
REMARK   11  A    between atoms: C_32  and  N_72
REMARK                            x       y       z     vdW  Elec       q    Type
REMARK                         _______ _______ _______ _____ _____    ______ ____
ROOT
ATOM      1  N   UNL     1      -3.202   1.013  -1.371  0.00  0.00    +0.391 N 
ATOM      2  H   UNL     1      -2.395   0.752  -1.949  0.00  0.00    -0.080 HD
ENDROOT
BRANCH   1   3
ATOM      3  C   UNL     1      -3.782   2.268  -1.893  0.00  0.00    -0.067 C 
ATOM      4  C   UNL     1      -5.090   2.598  -1.170  0.00  0.00    -0.015 C 
ATOM      5  C   UNL     1      -5.670   3.897  -1.732  0.00  0.00    -0.002 C 
ATOM      6  C   UNL     1      -5.943   3.729  -3.228  0.00  0.00    -0.000 C 
ATOM      7  C   UNL     1      -4.636   3.400  -3.951  0.00  0.00    -0.002 C 
ATOM      8  C   UNL     1      -4.055   2.100  -3.389  0.00  0.00    -0.015 C 
ENDBRANCH   1   3
BRANCH   1   9
ATOM      9  C   UNL     1      -4.206  -0.070  -1.431  0.00  0.00    +0.003 C 
BRANCH   9  10
ATOM     10  C   UNL     1      -5.186   0.055  -0.292  0.00  0.00    +0.138 A 
ATOM     11  N   UNL     1      -4.896   0.197   0.978  0.00  0.00    -0.115 NA
ATOM     12  N   UNL     1      -6.003   0.271   1.633  0.00  0.00    -0.023 NA
ATOM     13  N   UNL     1      -6.991   0.172   0.815  0.00  0.00    -0.044 NA
ATOM     14  N   UNL     1      -6.529   0.038  -0.382  0.00  0.00    -0.226 N 
BRANCH  14  15
ATOM     15  C   UNL     1      -7.317  -0.107  -1.609  0.00  0.00    +0.182 C 
BRANCH  15  16
ATOM     16  C   UNL     1      -7.580  -1.568  -1.868  0.00  0.00    -0.026 A 
ATOM     17  C   UNL     1      -6.694  -2.305  -2.631  0.00  0.00    +0.005 A 
ATOM     18  C   UNL     1      -6.932  -3.646  -2.865  0.00  0.00    +0.000 A 
ATOM     19  C   UNL     1      -8.062  -4.249  -2.343  0.00  0.00    +0.000 A 
ATOM     20  C   UNL     1      -8.950  -3.511  -1.584  0.00  0.00    +0.000 A 
ATOM     21  C   UNL     1      -8.709  -2.170  -1.346  0.00  0.00    +0.005 A 
ENDBRANCH  15  16
ENDBRANCH  14  15
ENDBRANCH   9  10
BRANCH   9  23
ATOM     22  C   UNL     1      -2.590  -1.603  -2.563  0.00  0.00    +0.002 C 
ATOM     23  C   UNL     1      -3.482  -1.415  -1.335  0.00  0.00    -0.011 C 
ENDBRANCH   9  23
ENDBRANCH   1   9
BRANCH   1  24
ATOM     24  C   UNL     1      -2.751   1.208   0.024  0.00  0.00    -0.036 C 
BRANCH  24  25
ATOM     25  C   UNL     1      -1.487   2.027   0.013  0.00  0.00    +0.001 A 
ATOM     26  C   UNL     1      -1.518   3.323   0.412  0.00  0.00    +0.017 A 
ATOM     27  C   UNL     1      -0.274   4.093   0.384  0.00  0.00    -0.001 A 
ATOM     28  C   UNL     1      -0.245   5.436   0.777  0.00  0.00    +0.013 A 
ATOM     29  C   UNL     1       0.932   6.127   0.739  0.00  0.00    -0.050 A 
ATOM     30  C   UNL     1       2.101   5.510   0.313  0.00  0.00    +0.008 A 
ATOM     31  C   UNL     1       2.096   4.189  -0.078  0.00  0.00    -0.026 A 
ATOM     32  C   UNL     1       0.909   3.464  -0.048  0.00  0.00    +0.052 A 
ATOM     33  N   UNL     1       0.875   2.141  -0.435  0.00  0.00    -0.322 N 
ATOM     34  H   UNL     1       1.691   1.709  -0.732  0.00  0.00    +0.169 HD
ATOM     35  C   UNL     1      -0.273   1.442  -0.406  0.00  0.00    +0.251 A 
ATOM     36  O   UNL     1      -0.266   0.274  -0.755  0.00  0.00    -0.268 OA
ATOM     37  C   UNL     1       3.372   3.531  -0.537  0.00  0.00    +0.046 C 
ATOM     38  C   UNL     1       0.963   7.574   1.161  0.00  0.00    +0.044 C 
ENDBRANCH  24  25
ENDBRANCH   1  24
TORSDOF 8
