REMARK  Name = ZINC39663668
REMARK  14 active torsions:
REMARK  status: ('A' for Active; 'I' for Inactive)
REMARK    1  A    between atoms: C_1  and  C_2
REMARK    2  A    between atoms: C_2  and  C_3
REMARK    3  A    between atoms: C_3  and  C_4
REMARK    4  A    between atoms: C_4  and  C_6
REMARK    5  A    between atoms: C_4  and  C_7
REMARK    6  A    between atoms: C_11  and  C_20
REMARK    7  A    between atoms: N_22  and  C_23
REMARK    8  A    between atoms: C_23  and  C_24
REMARK    9  A    between atoms: C_24  and  C_26
REMARK   10  A    between atoms: C_24  and  N_34
REMARK   11  A    between atoms: C_29  and  O_32
REMARK   12  A    between atoms: O_32  and  C_33
REMARK   13  A    between atoms: N_34  and  C_35
REMARK   14  A    between atoms: N_34  and  C_36
REMARK                            x       y       z     vdW  Elec       q    Type
REMARK                         _______ _______ _______ _____ _____    ______ ____
ROOT
ATOM      1  C   UNL     1      -2.938  -2.501   1.709  0.00  0.00    +0.218 C 
ATOM      2  O   UNL     1      -3.868  -1.791   2.026  0.00  0.00    -0.275 OA
ATOM      3  N   UNL     1      -3.122  -3.828   1.562  0.00  0.00    -0.300 N 
ATOM      4  C   UNL     1      -2.114  -4.849   1.190  0.00  0.00    +0.121 C 
ATOM      5  C   UNL     1      -2.452  -6.071   2.073  0.00  0.00    +0.100 C 
ATOM      6  C   UNL     1      -3.939  -5.900   2.427  0.00  0.00    -0.004 C 
ATOM      7  C   UNL     1      -4.376  -4.597   1.743  0.00  0.00    +0.115 C 
ATOM      8  C   UNL     1      -4.111  -5.779   3.938  0.00  0.00    -0.010 C 
ATOM      9  C   UNL     1      -5.602  -5.668   4.270  0.00  0.00    -0.082 C 
ATOM     10  N   UNL     1      -6.306  -6.855   3.770  0.00  0.00    +0.379 N 
ATOM     11  C   UNL     1      -6.213  -6.913   2.306  0.00  0.00    -0.082 C 
ATOM     12  C   UNL     1      -4.748  -7.077   1.892  0.00  0.00    -0.010 C 
ATOM     13  H   UNL     1      -5.888  -7.684   4.165  0.00  0.00    -0.086 HD
ATOM     14  H   UNL     1      -7.277  -6.808   4.043  0.00  0.00    -0.086 HD
ENDROOT
BRANCH   5  15
ATOM     15  C   UNL     1      -2.237  -7.349   1.304  0.00  0.00    +0.218 C 
ATOM     16  O   UNL     1      -2.402  -7.370   0.103  0.00  0.00    -0.275 OA
ATOM     17  N   UNL     1      -1.861  -8.470   1.952  0.00  0.00    -0.316 N 
ATOM     18  H   UNL     1      -1.728  -8.454   2.913  0.00  0.00    +0.149 HD
BRANCH  17  19
ATOM     19  C   UNL     1      -1.651  -9.713   1.205  0.00  0.00    +0.093 C 
BRANCH  19  20
ATOM     20  C   UNL     1      -1.353 -10.851   2.183  0.00  0.00    -0.021 C 
BRANCH  20  21
ATOM     21  C   UNL     1      -2.557 -11.091   3.057  0.00  0.00    -0.059 A 
ATOM     22  C   UNL     1      -3.621 -11.834   2.578  0.00  0.00    +0.005 A 
ATOM     23  C   UNL     1      -4.726 -12.055   3.377  0.00  0.00    +0.046 A 
ATOM     24  C   UNL     1      -4.768 -11.531   4.661  0.00  0.00    +0.120 A 
ATOM     25  C   UNL     1      -3.699 -10.787   5.139  0.00  0.00    +0.046 A 
ATOM     26  C   UNL     1      -2.594 -10.573   4.338  0.00  0.00    +0.005 A 
BRANCH  24  27
ATOM     27  O   UNL     1      -5.854 -11.747   5.449  0.00  0.00    -0.495 OA
ATOM     28  C   UNL     1      -5.828 -11.178   6.759  0.00  0.00    +0.277 C 
ENDBRANCH  24  27
ENDBRANCH  20  21
BRANCH  20  29
ATOM     29  N   UNL     1      -1.043 -12.074   1.430  0.00  0.00    +0.382 N 
ATOM     30  C   UNL     1       0.155 -11.853   0.610  0.00  0.00    -0.096 C 
ATOM     31  C   UNL     1      -0.798 -13.178   2.369  0.00  0.00    -0.096 C 
ATOM     32  H   UNL     1      -1.821 -12.308   0.832  0.00  0.00    -0.082 HD
ENDBRANCH  20  29
ENDBRANCH  19  20
ENDBRANCH  17  19
ENDBRANCH   5  15
BRANCH   1  33
ATOM     33  C   UNL     1      -1.575  -1.899   1.478  0.00  0.00    +0.072 C 
ATOM     34  C   UNL     1      -1.131  -2.178   0.041  0.00  0.00    +0.017 C 
BRANCH  33  35
ATOM     35  C   UNL     1      -1.640  -0.388   1.709  0.00  0.00    +0.012 C 
BRANCH  35  37
ATOM     36  C   UNL     1      -0.298   1.716   1.828  0.00  0.00    +0.004 C 
ATOM     37  C   UNL     1      -0.234   0.205   1.597  0.00  0.00    -0.003 C 
ENDBRANCH  35  37
ENDBRANCH  33  35
ENDBRANCH   1  33
TORSDOF 9
