REMARK  Name = ZINC12506457
REMARK  5 active torsions:
REMARK  status: ('A' for Active; 'I' for Inactive)
REMARK    1  A    between atoms: C_1  and  C_2
REMARK    2  A    between atoms: C_4  and  C_13
REMARK    3  A    between atoms: C_6  and  C_12
REMARK    4  A    between atoms: C_7  and  O_8
REMARK    5  A    between atoms: O_8  and  C_9
REMARK                            x       y       z     vdW  Elec       q    Type
REMARK                         _______ _______ _______ _____ _____    ______ ____
ROOT
ATOM      1  C   UNL     1       0.028  -2.816  -2.516  0.00  0.00    +0.209 C 
ATOM      2  N   UNL     1      -0.832  -4.010  -2.415  0.00  0.00    -0.294 N 
ATOM      3  C   UNL     1      -0.300  -5.143  -1.815  0.00  0.00    +0.159 C 
ATOM      4  N   UNL     1       0.931  -5.585  -2.303  0.00  0.00    -0.259 N 
ATOM      5  C   UNL     1       1.799  -4.575  -2.714  0.00  0.00    +0.205 A 
ATOM      6  N   UNL     1       1.388  -3.268  -2.827  0.00  0.00    -0.288 N 
ATOM      7  C   UNL     1       2.467  -2.530  -3.261  0.00  0.00    +0.076 A 
ATOM      8  C   UNL     1       2.664  -1.187  -3.559  0.00  0.00    +0.077 A 
ATOM      9  C   UNL     1       3.907  -0.753  -3.976  0.00  0.00    +0.164 A 
ATOM     10  C   UNL     1       4.963  -1.650  -4.104  0.00  0.00    +0.164 A 
ATOM     11  C   UNL     1       4.783  -2.987  -3.817  0.00  0.00    +0.079 A 
ATOM     12  C   UNL     1       3.530  -3.441  -3.392  0.00  0.00    +0.095 A 
ATOM     13  N   UNL     1       3.054  -4.672  -3.043  0.00  0.00    -0.214 NA
ATOM     14  O   UNL     1       6.186  -1.199  -4.513  0.00  0.00    -0.488 OA
ATOM     15  C   UNL     1       6.265  -0.753  -5.869  0.00  0.00    +0.232 C 
ATOM     16  C   UNL     1       5.816   0.695  -5.987  0.00  0.00    +0.082 C 
ATOM     17  C   UNL     1       4.347   0.875  -5.641  0.00  0.00    +0.232 C 
ATOM     18  O   UNL     1       4.107   0.567  -4.267  0.00  0.00    -0.488 OA
ATOM     19  N   UNL     1      -0.917  -5.760  -0.849  0.00  0.00    -0.375 N 
ATOM     20  H   UNL     1      -1.740  -4.004  -2.756  0.00  0.00    +0.151 HD
ATOM     21  H   UNL     1      -1.772  -5.431  -0.529  0.00  0.00    +0.158 HD
ATOM     22  H   UNL     1       1.164  -6.525  -2.351  0.00  0.00    +0.158 HD
ATOM     23  H   UNL     1      -0.522  -6.550  -0.448  0.00  0.00    +0.158 HD
ENDROOT
BRANCH   1  27
ATOM     24  C   UNL     1      -0.018   1.503   0.010  0.00  0.00    +0.047 C 
ATOM     25  C   UNL     1       0.002  -0.004   0.002  0.00  0.00    -0.008 A 
ATOM     26  C   UNL     1       0.006  -0.689  -1.198  0.00  0.00    +0.014 A 
ATOM     27  C   UNL     1       0.024  -2.071  -1.206  0.00  0.00    -0.006 A 
ATOM     28  C   UNL     1       0.040  -2.772  -0.014  0.00  0.00    +0.014 A 
ATOM     29  C   UNL     1       0.036  -2.092   1.188  0.00  0.00    -0.008 A 
ATOM     30  C   UNL     1       0.023  -0.705   1.199  0.00  0.00    +0.133 A 
ATOM     31  C   UNL     1       0.052  -2.856   2.487  0.00  0.00    +0.047 C 
BRANCH  30  32
ATOM     32  O   UNL     1       0.025  -0.033   2.381  0.00  0.00    -0.434 OA
BRANCH  32  33
ATOM     33  C   UNL     1      -1.246   0.270   2.957  0.00  0.00    +0.541 C 
ATOM     34  F   UNL     1      -1.980   1.068   2.073  0.00  0.00    -0.166 F 
ATOM     35  F   UNL     1      -1.943  -0.918   3.201  0.00  0.00    -0.166 F 
ENDBRANCH  32  33
ENDBRANCH  30  32
ENDBRANCH   1  27
TORSDOF 3
