REMARK  Name = ZINC39448874
REMARK  4 active torsions:
REMARK  status: ('A' for Active; 'I' for Inactive)
REMARK    1  A    between atoms: C_10  and  C_11
REMARK    2  A    between atoms: C_16  and  S_18
REMARK    3  A    between atoms: S_18  and  C_19
REMARK    4  A    between atoms: C_19  and  C_20
REMARK                            x       y       z     vdW  Elec       q    Type
REMARK                         _______ _______ _______ _____ _____    ______ ____
ROOT
ATOM      1  C   UNL     1       4.960   0.161  -0.046  0.00  0.00    +0.201 C 
ATOM      2  N   UNL     1       4.779   1.432   0.664  0.00  0.00    -0.336 N 
ATOM      3  C   UNL     1       5.052   1.521   1.939  0.00  0.00    +0.190 C 
ATOM      4  N   UNL     1       5.544   0.484   2.636  0.00  0.00    -0.195 NA
ATOM      5  C   UNL     1       6.010  -0.588   2.020  0.00  0.00    +0.159 C 
ATOM      6  N   UNL     1       6.006  -0.610   0.644  0.00  0.00    -0.300 N 
ATOM      7  N   UNL     1       4.828   2.718   2.589  0.00  0.00    -0.329 N 
ATOM      8  H   UNL     1       4.474   3.477   2.100  0.00  0.00    +0.145 HD
ATOM      9  H   UNL     1       5.025   2.801   3.535  0.00  0.00    +0.145 HD
ATOM     10  H   UNL     1       6.668  -1.115   0.147  0.00  0.00    +0.150 HD
ATOM     11  H   UNL     1       4.456   2.211   0.185  0.00  0.00    +0.164 HD
ENDROOT
BRANCH   1  21
ATOM     12  C   UNL     1       2.877  -3.501  -2.953  0.00  0.00    +0.001 A 
ATOM     13  C   UNL     1       4.077  -2.793  -2.979  0.00  0.00    +0.001 A 
ATOM     14  C   UNL     1       4.354  -1.849  -2.038  0.00  0.00    +0.009 A 
ATOM     15  C   UNL     1       3.418  -1.582  -1.025  0.00  0.00    -0.011 A 
ATOM     16  C   UNL     1       2.197  -2.301  -0.999  0.00  0.00    -0.018 A 
ATOM     17  C   UNL     1       1.946  -3.268  -1.988  0.00  0.00    +0.008 A 
ATOM     18  C   UNL     1       1.260  -2.033   0.013  0.00  0.00    +0.008 A 
ATOM     19  C   UNL     1       1.537  -1.089   0.954  0.00  0.00    +0.001 A 
ATOM     20  C   UNL     1       2.737  -0.382   0.929  0.00  0.00    +0.008 A 
ATOM     21  C   UNL     1       3.668  -0.615  -0.037  0.00  0.00    +0.000 A 
ENDBRANCH   1  21
BRANCH   5  22
ATOM     22  S   UNL     1       6.624  -1.960   2.940  0.00  0.00    -0.081 S 
BRANCH  22  23
ATOM     23  C   UNL     1       6.419  -1.455   4.670  0.00  0.00    +0.173 C 
BRANCH  23  24
ATOM     24  C   UNL     1       6.912  -2.553   5.577  0.00  0.00    +0.234 C 
ATOM     25  O   UNL     1       7.358  -3.576   5.102  0.00  0.00    -0.274 OA
ATOM     26  N   UNL     1       6.858  -2.399   6.914  0.00  0.00    -0.239 N 
ATOM     27  C   UNL     1       6.341  -1.228   7.487  0.00  0.00    +0.044 A 
ATOM     28  C   UNL     1       5.048  -0.851   7.144  0.00  0.00    +0.024 A 
ATOM     29  C   UNL     1       4.473   0.271   7.703  0.00  0.00    +0.002 A 
ATOM     30  C   UNL     1       5.199   1.016   8.614  0.00  0.00    +0.000 A 
ATOM     31  C   UNL     1       6.484   0.651   8.943  0.00  0.00    +0.005 A 
ATOM     32  C   UNL     1       7.092  -0.470   8.373  0.00  0.00    -0.025 A 
ATOM     33  C   UNL     1       8.533  -0.681   8.775  0.00  0.00    +0.042 C 
ATOM     34  C   UNL     1       9.185  -1.862   8.078  0.00  0.00    +0.042 C 
ATOM     35  C   UNL     1       8.496  -3.157   8.427  0.00  0.00    -0.025 A 
ATOM     36  C   UNL     1       7.310  -3.406   7.777  0.00  0.00    +0.044 A 
ATOM     37  C   UNL     1       6.616  -4.585   7.987  0.00  0.00    +0.024 A 
ATOM     38  C   UNL     1       7.127  -5.505   8.889  0.00  0.00    +0.002 A 
ATOM     39  C   UNL     1       8.305  -5.244   9.564  0.00  0.00    +0.000 A 
ATOM     40  C   UNL     1       9.009  -4.055   9.334  0.00  0.00    +0.005 A 
ENDBRANCH  23  24
ENDBRANCH  22  23
ENDBRANCH   5  22
TORSDOF 4
