REMARK  Name = ZINC13495865
REMARK  17 active torsions:
REMARK  status: ('A' for Active; 'I' for Inactive)
REMARK    1  A    between atoms: C_1  and  C_2
REMARK    2  A    between atoms: C_2  and  C_3
REMARK    3  A    between atoms: C_3  and  C_5
REMARK    4  A    between atoms: C_3  and  N_72
REMARK    5  A    between atoms: N_9  and  C_10
REMARK    6  A    between atoms: C_10  and  C_11
REMARK    7  A    between atoms: C_11  and  O_13
REMARK    8  A    between atoms: O_13  and  C_14
REMARK    9  A    between atoms: C_14  and  C_15
REMARK   10  A    between atoms: C_16  and  C_17
REMARK   11  A    between atoms: C_16  and  N_72
REMARK   12  A    between atoms: C_17  and  C_18
REMARK   13  A    between atoms: C_24  and  C_25
REMARK   14  A    between atoms: C_24  and  N_72
REMARK   15  A    between atoms: C_29  and  O_37
REMARK   16  A    between atoms: O_37  and  C_38
REMARK   17  A    between atoms: C_38  and  C_39
REMARK                            x       y       z     vdW  Elec       q    Type
REMARK                         _______ _______ _______ _____ _____    ______ ____
ROOT
ATOM      1  N   UNL     1      -0.847   1.555  -1.367  0.00  0.00    +0.389 N 
ATOM      2  H   UNL     1      -0.896   2.528  -1.689  0.00  0.00    -0.080 HD
ENDROOT
BRANCH   1   3
ATOM      3  C   UNL     1      -0.329   1.533   0.018  0.00  0.00    +0.003 C 
BRANCH   3   4
ATOM      4  C   UNL     1      -1.380   2.086   0.946  0.00  0.00    +0.139 A 
ATOM      5  N   UNL     1      -2.112   3.155   0.751  0.00  0.00    -0.115 NA
ATOM      6  N   UNL     1      -2.891   3.295   1.768  0.00  0.00    -0.023 NA
ATOM      7  N   UNL     1      -2.669   2.347   2.610  0.00  0.00    -0.043 NA
ATOM      8  N   UNL     1      -1.744   1.581   2.140  0.00  0.00    -0.220 N 
BRANCH   8   9
ATOM      9  C   UNL     1      -1.192   0.386   2.784  0.00  0.00    +0.267 C 
BRANCH   9  10
ATOM     10  C   UNL     1      -0.017   0.775   3.643  0.00  0.00    +0.329 C 
ATOM     11  O   UNL     1       0.324   1.933   3.711  0.00  0.00    -0.249 OA
BRANCH  10  12
ATOM     12  O   UNL     1       0.650  -0.163   4.333  0.00  0.00    -0.464 OA
BRANCH  12  13
ATOM     13  C   UNL     1       1.771   0.285   5.141  0.00  0.00    +0.229 C 
ATOM     14  C   UNL     1       2.402  -0.916   5.848  0.00  0.00    +0.048 C 
ENDBRANCH  12  13
ENDBRANCH  10  12
ENDBRANCH   9  10
ENDBRANCH   8   9
ENDBRANCH   3   4
BRANCH   3  16
ATOM     15  C   UNL     1       0.565   3.847  -0.282  0.00  0.00    +0.002 C 
ATOM     16  C   UNL     1       0.925   2.406   0.089  0.00  0.00    -0.011 C 
ENDBRANCH   3  16
ENDBRANCH   1   3
BRANCH   1  17
ATOM     17  C   UNL     1      -2.202   0.966  -1.409  0.00  0.00    -0.073 C 
BRANCH  17  18
ATOM     18  C   UNL     1      -2.825   1.261  -2.775  0.00  0.00    +0.016 C 
BRANCH  18  19
ATOM     19  C   UNL     1      -4.251   0.776  -2.792  0.00  0.00    -0.049 A 
ATOM     20  C   UNL     1      -4.530  -0.540  -3.111  0.00  0.00    +0.003 A 
ATOM     21  C   UNL     1      -5.838  -0.986  -3.122  0.00  0.00    +0.000 A 
ATOM     22  C   UNL     1      -6.869  -0.114  -2.823  0.00  0.00    +0.000 A 
ATOM     23  C   UNL     1      -6.590   1.203  -2.509  0.00  0.00    +0.000 A 
ATOM     24  C   UNL     1      -5.282   1.648  -2.493  0.00  0.00    +0.003 A 
ENDBRANCH  18  19
ENDBRANCH  17  18
ENDBRANCH   1  17
BRANCH   1  25
ATOM     25  C   UNL     1       0.060   0.800  -2.257  0.00  0.00    -0.037 C 
BRANCH  25  26
ATOM     26  C   UNL     1       0.072  -0.660  -1.884  0.00  0.00    +0.001 A 
ATOM     27  C   UNL     1      -0.761  -1.525  -2.513  0.00  0.00    +0.017 A 
ATOM     28  C   UNL     1      -0.725  -2.937  -2.127  0.00  0.00    +0.002 A 
ATOM     29  C   UNL     1      -1.561  -3.875  -2.742  0.00  0.00    +0.055 A 
ATOM     30  C   UNL     1      -1.501  -5.199  -2.355  0.00  0.00    +0.121 A 
ATOM     31  C   UNL     1      -0.614  -5.600  -1.359  0.00  0.00    +0.047 A 
ATOM     32  C   UNL     1       0.214  -4.686  -0.746  0.00  0.00    +0.030 A 
ATOM     33  C   UNL     1       0.170  -3.348  -1.121  0.00  0.00    +0.049 A 
ATOM     34  N   UNL     1       0.992  -2.416  -0.519  0.00  0.00    -0.322 N 
ATOM     35  H   UNL     1       1.608  -2.700   0.174  0.00  0.00    +0.169 HD
ATOM     36  C   UNL     1       0.955  -1.123  -0.884  0.00  0.00    +0.251 A 
ATOM     37  O   UNL     1       1.700  -0.329  -0.335  0.00  0.00    -0.268 OA
BRANCH  30  38
ATOM     38  O   UNL     1      -2.311  -6.114  -2.949  0.00  0.00    -0.492 OA
BRANCH  38  39
ATOM     39  C   UNL     1      -2.199  -7.467  -2.501  0.00  0.00    +0.225 C 
ATOM     40  C   UNL     1      -3.182  -8.345  -3.279  0.00  0.00    +0.048 C 
ENDBRANCH  38  39
ENDBRANCH  30  38
ENDBRANCH  25  26
ENDBRANCH   1  25
TORSDOF 14
