REMARK  Name = ZINC39920123
REMARK  10 active torsions:
REMARK  status: ('A' for Active; 'I' for Inactive)
REMARK    1  A    between atoms: C_1  and  C_2
REMARK    2  A    between atoms: C_7  and  O_8
REMARK    3  A    between atoms: O_8  and  C_9
REMARK    4  A    between atoms: C_9  and  C_10
REMARK    5  A    between atoms: N_12  and  N_13
REMARK    6  A    between atoms: C_14  and  C_25
REMARK    7  A    between atoms: C_28  and  O_33
REMARK    8  A    between atoms: C_29  and  O_31
REMARK    9  A    between atoms: O_31  and  C_32
REMARK   10  A    between atoms: O_33  and  C_34
REMARK                            x       y       z     vdW  Elec       q    Type
REMARK                         _______ _______ _______ _____ _____    ______ ____
ROOT
ATOM      1  N   UNL     1       0.081   0.571   7.325  0.00  0.00    -0.191 N 
ATOM      2  C   UNL     1       1.472   0.588   7.777  0.00  0.00    +0.212 C 
ATOM      3  N   UNL     1       1.531   0.710   9.239  0.00  0.00    -0.320 N 
ATOM      4  C   UNL     1       0.697   1.631   9.863  0.00  0.00    +0.041 A 
ATOM      5  C   UNL     1       1.049   2.253  11.048  0.00  0.00    +0.024 A 
ATOM      6  C   UNL     1       0.185   3.164  11.625  0.00  0.00    +0.002 A 
ATOM      7  C   UNL     1      -1.030   3.459  11.026  0.00  0.00    +0.001 A 
ATOM      8  C   UNL     1      -1.397   2.847   9.845  0.00  0.00    +0.015 A 
ATOM      9  C   UNL     1      -0.536   1.926   9.254  0.00  0.00    +0.059 A 
ATOM     10  C   UNL     1      -0.880   1.241   7.995  0.00  0.00    +0.266 C 
ATOM     11  O   UNL     1      -2.018   1.276   7.567  0.00  0.00    -0.268 OA
ATOM     12  H   UNL     1       2.138   0.160   9.758  0.00  0.00    +0.148 HD
ENDROOT
BRANCH   2  13
ATOM     13  C   UNL     1       2.184   1.760   7.153  0.00  0.00    -0.004 A 
ATOM     14  C   UNL     1       1.667   3.035   7.292  0.00  0.00    +0.011 A 
ATOM     15  C   UNL     1       2.317   4.114   6.721  0.00  0.00    +0.050 A 
ATOM     16  C   UNL     1       3.489   3.919   6.009  0.00  0.00    +0.162 A 
ATOM     17  C   UNL     1       4.010   2.636   5.870  0.00  0.00    +0.162 A 
ATOM     18  C   UNL     1       3.356   1.560   6.448  0.00  0.00    +0.056 A 
BRANCH  17  19
ATOM     19  O   UNL     1       5.160   2.439   5.172  0.00  0.00    -0.491 OA
ATOM     20  C   UNL     1       5.636   1.095   5.070  0.00  0.00    +0.277 C 
ENDBRANCH  17  19
BRANCH  16  21
ATOM     21  O   UNL     1       4.130   4.979   5.447  0.00  0.00    -0.491 OA
ATOM     22  C   UNL     1       3.537   6.266   5.630  0.00  0.00    +0.277 C 
ENDBRANCH  16  21
ENDBRANCH   2  13
BRANCH   1  25
ATOM     23  C   UNL     1      -0.483   0.499   5.014  0.00  0.00    +0.267 C 
ATOM     24  O   UNL     1      -0.480   1.711   4.987  0.00  0.00    -0.271 OA
ATOM     25  N   UNL     1      -0.259  -0.150   6.173  0.00  0.00    -0.227 N 
ATOM     26  H   UNL     1      -0.334  -1.117   6.210  0.00  0.00    +0.173 HD
BRANCH  23  27
ATOM     27  C   UNL     1      -0.738  -0.282   3.750  0.00  0.00    +0.326 C 
BRANCH  27  28
ATOM     28  O   UNL     1      -0.946   0.623   2.664  0.00  0.00    -0.482 OA
BRANCH  28  35
ATOM     29  C   UNL     1      -1.359   2.396   0.505  0.00  0.00    +0.047 C 
ATOM     30  C   UNL     1      -1.401   0.898   0.346  0.00  0.00    -0.007 A 
ATOM     31  C   UNL     1      -1.643   0.342  -0.895  0.00  0.00    +0.027 A 
ATOM     32  C   UNL     1      -1.682  -1.034  -1.042  0.00  0.00    +0.041 A 
ATOM     33  C   UNL     1      -1.478  -1.854   0.053  0.00  0.00    +0.023 A 
ATOM     34  C   UNL     1      -1.235  -1.301   1.296  0.00  0.00    +0.047 A 
ATOM     35  C   UNL     1      -1.190   0.078   1.444  0.00  0.00    +0.124 A 
ATOM     36 CL   UNL     1      -1.987  -1.731  -2.602  0.00  0.00    -0.084 Cl
ENDBRANCH  28  35
ENDBRANCH  27  28
ENDBRANCH  23  27
ENDBRANCH   1  25
TORSDOF 7
