REMARK  Name = ZINC22366753
REMARK  11 active torsions:
REMARK  status: ('A' for Active; 'I' for Inactive)
REMARK    1  A    between atoms: C_1  and  C_2
REMARK    2  A    between atoms: C_6  and  C_8
REMARK    3  A    between atoms: C_8  and  C_10
REMARK    4  A    between atoms: C_8  and  N_16
REMARK    5  A    between atoms: C_17  and  C_19
REMARK    6  A    between atoms: C_19  and  N_20
REMARK    7  A    between atoms: N_20  and  C_21
REMARK    8  A    between atoms: N_20  and  S_30
REMARK    9  A    between atoms: C_25  and  C_27
REMARK   10  A    between atoms: C_27  and  C_29
REMARK   11  A    between atoms: S_30  and  C_33
REMARK                            x       y       z     vdW  Elec       q    Type
REMARK                         _______ _______ _______ _____ _____    ______ ____
ROOT
ATOM      1  N   UNL     1      -1.825  -0.883   3.707  0.00  0.00    -0.303 N 
ATOM      2  C   UNL     1      -1.093   0.027   3.036  0.00  0.00    +0.233 C 
ATOM      3  O   UNL     1       0.098   0.121   3.245  0.00  0.00    -0.274 OA
ATOM      4  H   UNL     1      -2.906  -0.968   3.518  0.00  0.00    +0.150 HD
ENDROOT
BRANCH   1   5
ATOM      5  C   UNL     1      -1.183  -1.760   4.690  0.00  0.00    +0.134 C 
BRANCH   5  11
ATOM      6  C   UNL     1      -1.389  -6.730   5.236  0.00  0.00    +0.044 C 
ATOM      7  C   UNL     1      -2.088  -5.402   5.099  0.00  0.00    -0.050 A 
ATOM      8  C   UNL     1      -3.470  -5.344   5.109  0.00  0.00    +0.003 A 
ATOM      9  C   UNL     1      -4.111  -4.126   4.982  0.00  0.00    +0.001 A 
ATOM     10  C   UNL     1      -3.371  -2.966   4.847  0.00  0.00    +0.006 A 
ATOM     11  C   UNL     1      -1.990  -3.024   4.838  0.00  0.00    -0.023 A 
ATOM     12  C   UNL     1      -1.349  -4.243   4.959  0.00  0.00    +0.009 A 
ENDBRANCH   5  11
BRANCH   5  13
ATOM     13  C   UNL     1      -1.107  -1.054   6.019  0.00  0.00    -0.023 A 
ATOM     14  C   UNL     1      -2.167  -0.280   6.452  0.00  0.00    +0.006 A 
ATOM     15  C   UNL     1      -2.099   0.364   7.673  0.00  0.00    +0.000 A 
ATOM     16  C   UNL     1      -0.967   0.241   8.457  0.00  0.00    +0.000 A 
ATOM     17  C   UNL     1       0.095  -0.529   8.022  0.00  0.00    +0.000 A 
ATOM     18  C   UNL     1       0.025  -1.177   6.803  0.00  0.00    +0.006 A 
ENDBRANCH   5  13
ENDBRANCH   1   5
BRANCH   2  19
ATOM     19  C   UNL     1      -1.753   0.929   2.025  0.00  0.00    +0.226 C 
BRANCH  19  20
ATOM     20  N   UNL     1      -0.751   1.822   1.438  0.00  0.00    -0.199 N 
BRANCH  20  21
ATOM     21  C   UNL     1      -0.414   3.014   2.083  0.00  0.00    +0.052 A 
ATOM     22  C   UNL     1      -0.595   3.137   3.457  0.00  0.00    +0.025 A 
ATOM     23  C   UNL     1      -0.259   4.312   4.102  0.00  0.00    +0.003 A 
ATOM     24  C   UNL     1       0.250   5.377   3.386  0.00  0.00    +0.011 A 
ATOM     25  C   UNL     1       0.432   5.267   2.004  0.00  0.00    +0.019 A 
ATOM     26  C   UNL     1       0.096   4.076   1.354  0.00  0.00    +0.036 A 
BRANCH  25  27
ATOM     27  C   UNL     1       0.974   6.400   1.238  0.00  0.00    +0.160 C 
ATOM     28  O   UNL     1       1.130   6.303   0.039  0.00  0.00    -0.292 OA
ATOM     29  C   UNL     1       1.335   7.683   1.942  0.00  0.00    +0.091 C 
ENDBRANCH  25  27
ENDBRANCH  20  21
BRANCH  20  30
ATOM     30  S   UNL     1      -0.017   1.417   0.010  0.00  0.00    +0.043 S 
ATOM     31  O   UNL     1       0.002  -0.004   0.002  0.00  0.00    -0.155 OA
ATOM     32  O   UNL     1       1.195   2.158   0.002  0.00  0.00    -0.155 OA
ATOM     33  C   UNL     1      -1.135   2.034  -1.279  0.00  0.00    +0.218 C 
ENDBRANCH  20  30
ENDBRANCH  19  20
ENDBRANCH   2  19
TORSDOF 8
