REMARK  Name = ZINC08209878
REMARK  4 active torsions:
REMARK  status: ('A' for Active; 'I' for Inactive)
REMARK    1  A    between atoms: C_1  and  C_2
REMARK    2  A    between atoms: C_5  and  C_9
REMARK    3  A    between atoms: C_6  and  C_8
REMARK    4  A    between atoms: C_11  and  C_14
REMARK                            x       y       z     vdW  Elec       q    Type
REMARK                         _______ _______ _______ _____ _____    ______ ____
ROOT
ATOM      1  C   UNL     1       4.875   1.101  -0.452  0.00  0.00    +0.109 A 
ATOM      2  N   UNL     1       3.727   1.722  -0.673  0.00  0.00    -0.239 NA
ATOM      3  C   UNL     1       2.634   1.052  -0.987  0.00  0.00    +0.079 A 
ATOM      4  C   UNL     1       2.686  -0.314  -1.080  0.00  0.00    +0.075 A 
ATOM      5  S   UNL     1       4.409  -0.607  -0.701  0.00  0.00    -0.075 S 
ENDROOT
BRANCH   3   6
ATOM      6  C   UNL     1       1.360   1.772  -1.230  0.00  0.00    +0.001 A 
ATOM      7  C   UNL     1       0.184   1.058  -1.458  0.00  0.00    +0.012 A 
ATOM      8  C   UNL     1      -0.998   1.725  -1.690  0.00  0.00    +0.024 A 
ATOM      9  C   UNL     1      -1.032   3.119  -1.687  0.00  0.00    +0.037 A 
ATOM     10  C   UNL     1       0.144   3.824  -1.459  0.00  0.00    -0.017 A 
ATOM     11  C   UNL     1       1.330   3.166  -1.233  0.00  0.00    +0.016 A 
ATOM     12  C   UNL     1      -0.219   5.290  -1.525  0.00  0.00    +0.133 C 
ATOM     13  C   UNL     1      -1.706   5.288  -1.811  0.00  0.00    +0.222 C 
ATOM     14  O   UNL     1      -2.415   6.263  -1.944  0.00  0.00    -0.275 OA
ATOM     15  N   UNL     1      -2.092   4.004  -1.889  0.00  0.00    -0.285 N 
ATOM     16  H   UNL     1      -3.004   3.724  -2.065  0.00  0.00    +0.155 HD
ENDBRANCH   3   6
BRANCH   1  21
ATOM     17  C   UNL     1      10.002   3.311   0.944  0.00  0.00    +0.044 C 
ATOM     18  C   UNL     1       8.659   2.732   0.579  0.00  0.00    -0.050 A 
ATOM     19  C   UNL     1       7.610   3.575   0.257  0.00  0.00    +0.004 A 
ATOM     20  C   UNL     1       6.380   3.052  -0.083  0.00  0.00    +0.011 A 
ATOM     21  C   UNL     1       6.192   1.669  -0.093  0.00  0.00    +0.010 A 
ATOM     22  C   UNL     1       7.254   0.824   0.232  0.00  0.00    -0.041 A 
ATOM     23  C   UNL     1       8.481   1.361   0.565  0.00  0.00    +0.007 A 
ATOM     24  C   UNL     1       7.062  -0.670   0.217  0.00  0.00    +0.044 C 
ENDBRANCH   1  21
TORSDOF 2
