REMARK  Name = ZINC57671878
REMARK  8 active torsions:
REMARK  status: ('A' for Active; 'I' for Inactive)
REMARK    1  A    between atoms: C_1  and  C_2
REMARK    2  A    between atoms: C_2  and  C_3
REMARK    3  A    between atoms: C_2  and  C_4
REMARK    4  A    between atoms: C_4  and  C_6
REMARK    5  A    between atoms: C_4  and  N_16
REMARK    6  A    between atoms: C_17  and  C_19
REMARK    7  A    between atoms: C_19  and  C_20
REMARK    8  A    between atoms: C_20  and  N_21
REMARK                            x       y       z     vdW  Elec       q    Type
REMARK                         _______ _______ _______ _____ _____    ______ ____
ROOT
ATOM      1  N   UNL     1      -2.105  -0.148  -1.230  0.00  0.00    -0.305 N 
ATOM      2  C   UNL     1      -1.970  -0.910  -2.334  0.00  0.00    +0.215 C 
ATOM      3  O   UNL     1      -1.291  -1.915  -2.297  0.00  0.00    -0.276 OA
ATOM      4  H   UNL     1      -2.648   0.655  -1.260  0.00  0.00    +0.149 HD
ENDROOT
BRANCH   1   5
ATOM      5  C   UNL     1      -1.433  -0.534   0.013  0.00  0.00    +0.141 C 
BRANCH   5   6
ATOM      6  C   UNL     1      -2.175   0.051   1.187  0.00  0.00    +0.129 A 
ATOM      7  N   UNL     1      -3.351   0.731   1.106  0.00  0.00    -0.340 N 
ATOM      8  H   UNL     1      -3.850   0.921   0.296  0.00  0.00    +0.167 HD
ATOM      9  C   UNL     1      -3.702   1.099   2.389  0.00  0.00    +0.066 A 
ATOM     10  C   UNL     1      -4.770   1.796   2.937  0.00  0.00    +0.028 A 
ATOM     11  C   UNL     1      -4.825   2.001   4.299  0.00  0.00    +0.002 A 
ATOM     12  C   UNL     1      -3.820   1.516   5.125  0.00  0.00    +0.002 A 
ATOM     13  C   UNL     1      -2.762   0.828   4.603  0.00  0.00    +0.030 A 
ATOM     14  C   UNL     1      -2.685   0.608   3.225  0.00  0.00    +0.089 A 
ATOM     15  N   UNL     1      -1.788  -0.026   2.427  0.00  0.00    -0.231 NA
ENDBRANCH   5   6
BRANCH   5  17
ATOM     16  C   UNL     1      -0.019   1.526   0.010  0.00  0.00    +0.009 C 
ATOM     17  C   UNL     1       0.002  -0.004   0.002  0.00  0.00    +0.011 C 
ATOM     18  C   UNL     1       0.742  -0.511   1.242  0.00  0.00    +0.009 C 
ENDBRANCH   5  17
ENDBRANCH   1   5
BRANCH   2  19
ATOM     19  C   UNL     1      -2.661  -0.514  -3.613  0.00  0.00    +0.115 C 
BRANCH  19  20
ATOM     20  C   UNL     1      -2.345  -1.540  -4.703  0.00  0.00    +0.126 C 
BRANCH  20  21
ATOM     21  N   UNL     1      -3.018  -1.155  -5.946  0.00  0.00    -0.234 N 
ATOM     22  C   UNL     1      -4.259  -1.541  -6.291  0.00  0.00    +0.254 C 
ATOM     23  O   UNL     1      -4.990  -2.252  -5.631  0.00  0.00    -0.270 OA
ATOM     24  C   UNL     1      -4.586  -0.954  -7.607  0.00  0.00    +0.049 A 
ATOM     25  C   UNL     1      -5.693  -1.002  -8.440  0.00  0.00    +0.015 A 
ATOM     26  C   UNL     1      -5.677  -0.318  -9.645  0.00  0.00    +0.016 A 
ATOM     27  C   UNL     1      -4.564   0.413 -10.021  0.00  0.00    +0.019 A 
ATOM     28  C   UNL     1      -3.449   0.470  -9.197  0.00  0.00    +0.029 A 
ATOM     29  C   UNL     1      -3.452  -0.209  -7.990  0.00  0.00    +0.050 A 
ATOM     30  C   UNL     1      -2.477  -0.365  -6.890  0.00  0.00    +0.254 C 
ATOM     31  O   UNL     1      -1.370   0.135  -6.848  0.00  0.00    -0.270 OA
ATOM     32 BR   UNL     1      -4.562   1.340 -11.669  0.00  0.00    -0.050 Br
ENDBRANCH  20  21
ENDBRANCH  19  20
ENDBRANCH   2  19
TORSDOF 6
