REMARK  Name = ZINC09015591
REMARK  5 active torsions:
REMARK  status: ('A' for Active; 'I' for Inactive)
REMARK    1  A    between atoms: C_3  and  C_10
REMARK    2  A    between atoms: C_5  and  N_7
REMARK    3  A    between atoms: C_13  and  C_15
REMARK    4  A    between atoms: N_17  and  C_18
REMARK    5  A    between atoms: C_18  and  N_20
REMARK                            x       y       z     vdW  Elec       q    Type
REMARK                         _______ _______ _______ _____ _____    ______ ____
ROOT
ATOM      1  C   UNL     1       1.495   8.579   0.027  0.00  0.00    +0.285 C 
ATOM      2  O   UNL     1       1.019   9.699   0.040  0.00  0.00    -0.266 OA
ATOM      3  N   UNL     1       2.833   8.416   0.018  0.00  0.00    -0.261 N 
ATOM      4  H   UNL     1       3.213   7.523   0.008  0.00  0.00    +0.157 HD
ENDROOT
BRANCH   1   8
ATOM      5  C   UNL     1      -0.069   5.321   0.009  0.00  0.00    +0.136 A 
ATOM      6  C   UNL     1      -1.190   6.101   0.022  0.00  0.00    +0.050 A 
ATOM      7  C   UNL     1      -0.763   7.433   0.031  0.00  0.00    +0.055 A 
ATOM      8  C   UNL     1       0.615   7.409   0.022  0.00  0.00    +0.190 A 
ATOM      9  O   UNL     1       1.012   6.119   0.015  0.00  0.00    -0.450 OA
BRANCH   5  12
ATOM     10  C   UNL     1      -1.220   1.747  -0.017  0.00  0.00    +0.003 A 
ATOM     11  C   UNL     1      -1.246   3.126  -0.001  0.00  0.00    +0.012 A 
ATOM     12  C   UNL     1      -0.049   3.844  -0.003  0.00  0.00    +0.019 A 
ATOM     13  C   UNL     1       1.168   3.159  -0.015  0.00  0.00    +0.044 A 
ATOM     14  C   UNL     1       1.180   1.780  -0.026  0.00  0.00    +0.127 A 
ATOM     15  C   UNL     1      -0.011   1.075  -0.023  0.00  0.00    +0.033 A 
BRANCH  14  16
ATOM     16  N   UNL     1       2.469   1.053  -0.039  0.00  0.00    +0.056 N 
ATOM     17  O   UNL     1       2.481  -0.165  -0.048  0.00  0.00    -0.126 OA
ATOM     18  O   UNL     1       3.518   1.672  -0.042  0.00  0.00    -0.126 OA
ENDBRANCH  14  16
ENDBRANCH   5  12
ENDBRANCH   1   8
BRANCH   3  19
ATOM     19  C   UNL     1       3.643   9.493   0.023  0.00  0.00    +0.142 C 
ATOM     20  S   UNL     1       2.973  11.068   0.040  0.00  0.00    -0.018 S 
BRANCH  19  21
ATOM     21  N   UNL     1       4.981   9.330   0.014  0.00  0.00    -0.282 N 
ATOM     22  C   UNL     1       5.817  10.439  -0.091  0.00  0.00    +0.124 A 
ATOM     23  C   UNL     1       7.191  10.257  -0.209  0.00  0.00    +0.045 A 
ATOM     24  C   UNL     1       8.010  11.367  -0.318  0.00  0.00    +0.019 A 
ATOM     25  C   UNL     1       7.425  12.627  -0.294  0.00  0.00    +0.032 A 
ATOM     26  C   UNL     1       6.053  12.733  -0.169  0.00  0.00    +0.127 A 
ATOM     27  N   UNL     1       5.298  11.656  -0.073  0.00  0.00    -0.239 NA
ATOM     28  I   UNL     1       8.610  14.347  -0.448  0.00  0.00    -0.042 I 
ATOM     29  H   UNL     1       5.362   8.440   0.080  0.00  0.00    +0.155 HD
ENDBRANCH  19  21
ENDBRANCH   3  19
TORSDOF 5
