REMARK  Name = ZINC65403676
REMARK  1 active torsions:
REMARK  status: ('A' for Active; 'I' for Inactive)
REMARK    1  A    between atoms: C_3  and  C_10
REMARK                            x       y       z     vdW  Elec       q    Type
REMARK                         _______ _______ _______ _____ _____    ______ ____
ROOT
ATOM      1  C   UNL     1       3.629   2.335  -0.021  0.00  0.00    +0.068 C 
ATOM      2  C   UNL     1       3.667   3.176   1.246  0.00  0.00    +0.109 C 
ATOM      3  C   UNL     1       4.958   3.931   1.340  0.00  0.00    +0.214 C 
ATOM      4  O   UNL     1       5.749   3.629   2.208  0.00  0.00    -0.276 OA
ATOM      5  N   UNL     1       5.266   4.919   0.506  0.00  0.00    -0.310 N 
ATOM      6  C   UNL     1       4.296   5.479  -0.420  0.00  0.00    +0.160 C 
ATOM      7  C   UNL     1       3.883   4.474  -1.476  0.00  0.00    +0.071 A 
ATOM      8  C   UNL     1       3.642   3.174  -1.256  0.00  0.00    +0.024 A 
ATOM      9  S   UNL     1       3.297   2.568  -2.899  0.00  0.00    -0.057 S 
ATOM     10  C   UNL     1       3.421   4.036  -3.709  0.00  0.00    +0.156 A 
ATOM     11  N   UNL     1       3.733   4.867  -2.754  0.00  0.00    -0.228 NA
ATOM     12  N   UNL     1       3.241   4.297  -5.059  0.00  0.00    -0.338 N 
ATOM     13  H   UNL     1       6.168   5.277   0.516  0.00  0.00    +0.149 HD
ATOM     14  H   UNL     1       3.011   3.576  -5.665  0.00  0.00    +0.144 HD
ATOM     15  H   UNL     1       3.344   5.201  -5.396  0.00  0.00    +0.144 HD
ENDROOT
BRANCH   1  18
ATOM     16  C   UNL     1      -0.016   1.349   0.009  0.00  0.00    +0.003 A 
ATOM     17  C   UNL     1       1.163   2.094   0.002  0.00  0.00    +0.006 A 
ATOM     18  C   UNL     1       2.377   1.496  -0.013  0.00  0.00    -0.011 A 
ATOM     19  C   UNL     1       2.474   0.079  -0.021  0.00  0.00    +0.104 A 
ATOM     20  C   UNL     1       1.241  -0.701  -0.014  0.00  0.00    +0.100 A 
ATOM     21  C   UNL     1       0.002  -0.004   0.002  0.00  0.00    +0.030 A 
ATOM     22  N   UNL     1       1.452  -2.017  -0.023  0.00  0.00    -0.191 NA
ATOM     23  S   UNL     1       3.051  -2.200  -0.039  0.00  0.00    +0.116 S 
ATOM     24  N   UNL     1       3.572  -0.678  -0.036  0.00  0.00    -0.190 NA
ENDBRANCH   1  18
TORSDOF 1
