REMARK  Name = ZINC19522970
REMARK  6 active torsions:
REMARK  status: ('A' for Active; 'I' for Inactive)
REMARK    1  A    between atoms: C_1  and  C_2
REMARK    2  A    between atoms: C_2  and  C_3
REMARK    3  A    between atoms: C_10  and  C_15
REMARK    4  A    between atoms: C_15  and  C_17
REMARK    5  A    between atoms: C_15  and  N_28
REMARK    6  A    between atoms: N_21  and  C_22
REMARK                            x       y       z     vdW  Elec       q    Type
REMARK                         _______ _______ _______ _____ _____    ______ ____
ROOT
ATOM      1  C   UNL     1       0.005   1.186  -2.409  0.00  0.00    +0.163 C 
ENDROOT
BRANCH   1   9
ATOM      2  C   UNL     1       6.152   0.829  -3.018  0.00  0.00    -0.047 A 
ATOM      3  C   UNL     1       6.406   2.182  -2.837  0.00  0.00    +0.005 A 
ATOM      4  C   UNL     1       5.373   3.067  -2.612  0.00  0.00    +0.026 A 
ATOM      5  C   UNL     1       4.063   2.601  -2.564  0.00  0.00    +0.049 A 
ATOM      6  C   UNL     1       3.811   1.229  -2.748  0.00  0.00    -0.001 A 
ATOM      7  C   UNL     1       4.874   0.349  -2.976  0.00  0.00    +0.013 A 
ATOM      8  C   UNL     1       2.429   0.748  -2.690  0.00  0.00    +0.021 A 
ATOM      9  C   UNL     1       1.439   1.647  -2.470  0.00  0.00    +0.042 A 
ATOM     10  C   UNL     1       1.746   3.013  -2.291  0.00  0.00    +0.254 A 
ATOM     11  O   UNL     1       0.841   3.804  -2.089  0.00  0.00    -0.268 OA
ATOM     12  N   UNL     1       3.012   3.463  -2.338  0.00  0.00    -0.322 N 
ATOM     13  H   UNL     1       3.202   4.537  -2.194  0.00  0.00    +0.169 HD
BRANCH   2  15
ATOM     14  C   UNL     1       7.558  -0.225  -4.768  0.00  0.00    +0.009 C 
ATOM     15  C   UNL     1       7.298  -0.119  -3.264  0.00  0.00    +0.032 C 
ENDBRANCH   2  15
ENDBRANCH   1   9
BRANCH   1  16
ATOM     16  N   UNL     1      -0.602   1.638  -1.150  0.00  0.00    -0.284 NA
ATOM     17  C   UNL     1       0.186   1.185   0.008  0.00  0.00    +0.090 C 
ATOM     18  C   UNL     1      -0.264   1.974   1.238  0.00  0.00    +0.051 C 
ATOM     19  C   UNL     1      -1.766   1.926   1.359  0.00  0.00    -0.042 A 
ATOM     20  C   UNL     1      -2.343   2.268   2.573  0.00  0.00    +0.004 A 
ATOM     21  C   UNL     1      -3.714   2.241   2.725  0.00  0.00    +0.000 A 
ATOM     22  C   UNL     1      -4.517   1.871   1.662  0.00  0.00    +0.000 A 
ATOM     23  C   UNL     1      -3.944   1.529   0.454  0.00  0.00    +0.005 A 
ATOM     24  C   UNL     1      -2.562   1.558   0.300  0.00  0.00    -0.030 A 
ATOM     25  C   UNL     1      -1.987   1.169  -1.036  0.00  0.00    +0.120 C 
ENDBRANCH   1  16
BRANCH   1  26
ATOM     26  C   UNL     1      -0.758   1.765  -3.572  0.00  0.00    +0.173 A 
ATOM     27  N   UNL     1      -1.212   2.990  -3.678  0.00  0.00    -0.111 NA
ATOM     28  N   UNL     1      -1.806   3.097  -4.816  0.00  0.00    -0.023 NA
ATOM     29  N   UNL     1      -1.751   1.970  -5.435  0.00  0.00    -0.044 NA
ATOM     30  N   UNL     1      -1.113   1.123  -4.700  0.00  0.00    -0.224 N 
BRANCH  30  31
ATOM     31  C   UNL     1      -0.827  -0.275  -5.033  0.00  0.00    +0.111 C 
ATOM     32  C   UNL     1       0.007  -0.334  -6.314  0.00  0.00    +0.027 C 
ATOM     33  C   UNL     1       0.306  -1.794  -6.661  0.00  0.00    +0.002 C 
ATOM     34  C   UNL     1      -1.009  -2.547  -6.873  0.00  0.00    +0.000 C 
ATOM     35  C   UNL     1      -1.843  -2.488  -5.592  0.00  0.00    +0.002 C 
ATOM     36  C   UNL     1      -2.142  -1.028  -5.245  0.00  0.00    +0.027 C 
ENDBRANCH  30  31
ENDBRANCH   1  26
TORSDOF 5
