REMARK  Name = ZINC09608343
REMARK  9 active torsions:
REMARK  status: ('A' for Active; 'I' for Inactive)
REMARK    1  A    between atoms: C_1  and  C_2
REMARK    2  A    between atoms: C_7  and  N_12
REMARK    3  A    between atoms: C_9  and  C_11
REMARK    4  A    between atoms: N_12  and  C_13
REMARK    5  A    between atoms: C_14  and  C_16
REMARK    6  A    between atoms: C_19  and  C_22
REMARK    7  A    between atoms: C_22  and  N_23
REMARK    8  A    between atoms: N_23  and  S_24
REMARK    9  A    between atoms: S_24  and  C_27
REMARK                            x       y       z     vdW  Elec       q    Type
REMARK                         _______ _______ _______ _____ _____    ______ ____
ROOT
ATOM      1  C   UNL     1       4.566   3.298   2.542  0.00  0.00    +0.075 C 
ATOM      2  C   UNL     1       5.751   2.395   2.194  0.00  0.00    +0.013 C 
ATOM      3  C   UNL     1       7.058   3.162   2.409  0.00  0.00    +0.005 C 
ATOM      4  C   UNL     1       7.159   3.596   3.873  0.00  0.00    +0.005 C 
ATOM      5  C   UNL     1       5.974   4.499   4.221  0.00  0.00    +0.005 C 
ATOM      6  C   UNL     1       4.668   3.732   4.006  0.00  0.00    +0.013 C 
ENDROOT
BRANCH   1   9
ATOM      7  N   UNL     1       2.888   2.216   1.083  0.00  0.00    -0.301 N 
ATOM      8  C   UNL     1       1.578   1.596   0.865  0.00  0.00    +0.132 C 
ATOM      9  C   UNL     1       3.280   2.542   2.330  0.00  0.00    +0.219 C 
ATOM     10  O   UNL     1       2.597   2.228   3.282  0.00  0.00    -0.275 OA
BRANCH   7  16
ATOM     11  C   UNL     1       6.239   1.956  -1.544  0.00  0.00    +0.008 C 
ATOM     12  C   UNL     1       4.880   1.473  -2.055  0.00  0.00    -0.009 C 
ATOM     13  C   UNL     1       4.257   2.550  -2.944  0.00  0.00    +0.003 C 
ATOM     14  C   UNL     1       4.070   3.835  -2.134  0.00  0.00    +0.002 C 
ATOM     15  C   UNL     1       3.147   3.558  -0.945  0.00  0.00    +0.023 C 
ATOM     16  C   UNL     1       3.771   2.481  -0.056  0.00  0.00    +0.079 C 
ATOM     17  C   UNL     1       3.958   1.196  -0.866  0.00  0.00    +0.009 C 
ATOM     18  C   UNL     1       4.581   0.119   0.024  0.00  0.00    +0.009 C 
ENDBRANCH   7  16
ENDBRANCH   1   9
BRANCH   4  19
ATOM     19  C   UNL     1       8.465   4.363   4.088  0.00  0.00    +0.109 C 
BRANCH  19  20
ATOM     20  N   UNL     1       9.601   3.463   3.871  0.00  0.00    -0.190 NA
ATOM     21  H   UNL     1       9.462   2.504   3.846  0.00  0.00    +0.148 HD
BRANCH  20  22
ATOM     22  S   UNL     1      11.123   4.085   3.668  0.00  0.00    +0.061 S 
ATOM     23  O   UNL     1      11.997   2.976   3.508  0.00  0.00    -0.153 OA
ATOM     24  O   UNL     1      11.014   5.115   2.696  0.00  0.00    -0.153 OA
BRANCH  22  25
ATOM     25  C   UNL     1      11.572   4.866   5.182  0.00  0.00    +0.133 A 
ATOM     26  C   UNL     1      12.602   4.380   5.915  0.00  0.00    +0.031 A 
ATOM     27  C   UNL     1      12.986   4.973   7.117  0.00  0.00    +0.004 A 
ATOM     28  C   UNL     1      12.346   6.062   7.606  0.00  0.00    +0.031 A 
ATOM     29  C   UNL     1      11.257   6.626   6.892  0.00  0.00    +0.102 A 
ATOM     30  C   UNL     1      10.859   6.009   5.630  0.00  0.00    +0.126 A 
ATOM     31  N   UNL     1       9.833   6.642   5.065  0.00  0.00    -0.189 NA
ATOM     32  S   UNL     1       9.472   7.830   6.021  0.00  0.00    +0.117 S 
ATOM     33  N   UNL     1      10.501   7.680   7.193  0.00  0.00    -0.191 NA
ENDBRANCH  22  25
ENDBRANCH  20  22
ENDBRANCH  19  20
ENDBRANCH   4  19
TORSDOF 6
