REMARK  Name = ZINC28049685
REMARK  7 active torsions:
REMARK  status: ('A' for Active; 'I' for Inactive)
REMARK    1  A    between atoms: C_1  and  C_2
REMARK    2  A    between atoms: C_2  and  C_23
REMARK    3  A    between atoms: N_3  and  N_4
REMARK    4  A    between atoms: C_8  and  C_11
REMARK    5  A    between atoms: C_11  and  C_12
REMARK    6  A    between atoms: N_14  and  C_15
REMARK    7  A    between atoms: C_26  and  N_29
REMARK                            x       y       z     vdW  Elec       q    Type
REMARK                         _______ _______ _______ _____ _____    ______ ____
ROOT
ATOM      1  N   UNL     1       4.761   0.255   3.246  0.00  0.00    -0.126 NA
ATOM      2  C   UNL     1       4.090   0.602   2.103  0.00  0.00    +0.183 C 
ATOM      3  N   UNL     1       4.480   1.451   1.155  0.00  0.00    -0.263 N 
ATOM      4  C   UNL     1       3.790   1.731   0.098  0.00  0.00    +0.233 C 
ATOM      5  C   UNL     1       2.456   1.000   0.006  0.00  0.00    +0.149 C 
ATOM      6  S   UNL     1       2.539   0.032   1.566  0.00  0.00    -0.075 S 
ATOM      7  O   UNL     1       4.213   2.592  -0.837  0.00  0.00    -0.274 OA
ATOM      8  H   UNL     1       5.447   1.967   1.243  0.00  0.00    +0.157 HD
ENDROOT
BRANCH   1  11
ATOM      9  C   UNL     1       5.966  -0.556   5.587  0.00  0.00    +0.068 C 
ATOM     10  C   UNL     1       6.576   0.432   4.626  0.00  0.00    +0.068 C 
ATOM     11  N   UNL     1       5.915   0.774   3.499  0.00  0.00    -0.152 NA
BRANCH  10  12
ATOM     12  C   UNL     1       7.830   0.996   4.901  0.00  0.00    -0.002 A 
ATOM     13  C   UNL     1       8.526   0.647   6.082  0.00  0.00    +0.012 A 
ATOM     14  C   UNL     1       9.748   1.198   6.334  0.00  0.00    +0.033 A 
ATOM     15  C   UNL     1      10.304   2.108   5.444  0.00  0.00    +0.126 A 
ATOM     16  C   UNL     1       9.629   2.465   4.283  0.00  0.00    +0.033 A 
ATOM     17  C   UNL     1       8.408   1.924   4.003  0.00  0.00    +0.012 A 
BRANCH  15  18
ATOM     18  N   UNL     1      11.628   2.703   5.734  0.00  0.00    +0.056 N 
ATOM     19  O   UNL     1      12.161   3.566   4.894  0.00  0.00    -0.126 OA
ATOM     20  O   UNL     1      12.273   2.369   6.832  0.00  0.00    -0.126 OA
ENDBRANCH  15  18
ENDBRANCH  10  12
ENDBRANCH   1  11
BRANCH   5  21
ATOM     21  C   UNL     1       1.280   1.979   0.018  0.00  0.00    +0.120 C 
BRANCH  21  22
ATOM     22  C   UNL     1      -0.015   1.208   0.015  0.00  0.00    +0.219 C 
ATOM     23  O   UNL     1       0.001  -0.004   0.004  0.00  0.00    -0.275 OA
ATOM     24  N   UNL     1      -1.191   1.867   0.018  0.00  0.00    -0.285 N 
ATOM     25  H   UNL     1      -1.207   2.963   0.102  0.00  0.00    +0.155 HD
BRANCH  24  26
ATOM     26  C   UNL     1      -2.391   1.155  -0.086  0.00  0.00    +0.047 A 
ATOM     27  C   UNL     1      -2.510  -0.099   0.499  0.00  0.00    +0.024 A 
ATOM     28  C   UNL     1      -3.696  -0.798   0.395  0.00  0.00    +0.002 A 
ATOM     29  C   UNL     1      -4.766  -0.252  -0.291  0.00  0.00    +0.001 A 
ATOM     30  C   UNL     1      -4.651   0.996  -0.875  0.00  0.00    +0.017 A 
ATOM     31  C   UNL     1      -3.469   1.704  -0.770  0.00  0.00    +0.039 A 
ATOM     32 BR   UNL     1      -3.316   3.414  -1.562  0.00  0.00    -0.048 Br
ENDBRANCH  24  26
ENDBRANCH  21  22
ENDBRANCH   5  21
TORSDOF 6
