REMARK  Name = ZINC63819166
REMARK  8 active torsions:
REMARK  status: ('A' for Active; 'I' for Inactive)
REMARK    1  A    between atoms: C_4  and  N_7
REMARK    2  A    between atoms: N_10  and  C_11
REMARK    3  A    between atoms: C_11  and  C_12
REMARK    4  A    between atoms: C_12  and  C_13
REMARK    5  A    between atoms: N_15  and  C_16
REMARK    6  A    between atoms: C_16  and  C_17
REMARK    7  A    between atoms: C_17  and  C_19
REMARK    8  A    between atoms: C_17  and  C_26
REMARK                            x       y       z     vdW  Elec       q    Type
REMARK                         _______ _______ _______ _____ _____    ______ ____
ROOT
ATOM      1  C   UNL     1       7.527  -8.200   0.626  0.00  0.00    +0.116 C 
ENDROOT
BRANCH   1   4
ATOM      2  C   UNL     1       6.324  -6.089   0.437  0.00  0.00    +0.215 C 
ATOM      3  O   UNL     1       5.285  -6.715   0.444  0.00  0.00    -0.276 OA
ATOM      4  N   UNL     1       7.502  -6.739   0.523  0.00  0.00    -0.314 N 
ATOM      5  H   UNL     1       8.333  -6.238   0.517  0.00  0.00    +0.149 HD
BRANCH   2   6
ATOM      6  C   UNL     1       6.298  -4.586   0.331  0.00  0.00    +0.114 C 
BRANCH   6   7
ATOM      7  C   UNL     1       4.848  -4.106   0.247  0.00  0.00    +0.115 C 
BRANCH   7  11
ATOM      8  N   UNL     1       3.622  -0.651  -0.036  0.00  0.00    -0.269 N 
ATOM      9  C   UNL     1       3.645  -1.995   0.058  0.00  0.00    +0.304 C 
ATOM     10  O   UNL     1       2.603  -2.622   0.065  0.00  0.00    -0.253 OA
ATOM     11  N   UNL     1       4.823  -2.644   0.144  0.00  0.00    -0.299 N 
ATOM     12  H   UNL     1       4.452  -0.156  -0.120  0.00  0.00    +0.156 HD
ATOM     13  H   UNL     1       5.654  -2.144   0.139  0.00  0.00    +0.150 HD
BRANCH   8  17
ATOM     14  C   UNL     1      -0.015   1.381   0.031  0.00  0.00    +0.000 A 
ATOM     15  C   UNL     1       0.140   0.219   0.765  0.00  0.00    +0.002 A 
ATOM     16  C   UNL     1       1.344  -0.457   0.744  0.00  0.00    +0.023 A 
ATOM     17  C   UNL     1       2.400   0.031  -0.014  0.00  0.00    +0.035 A 
ATOM     18  C   UNL     1       2.241   1.198  -0.750  0.00  0.00    +0.023 A 
ATOM     19  C   UNL     1       1.034   1.870  -0.725  0.00  0.00    +0.002 A 
ENDBRANCH   8  17
ENDBRANCH   7  11
ENDBRANCH   6   7
ENDBRANCH   2   6
ENDBRANCH   1   4
BRANCH   1  20
ATOM     20  C   UNL     1       8.977  -8.680   0.710  0.00  0.00    +0.066 C 
BRANCH  20  21
ATOM     21  C   UNL     1       9.000 -10.169   0.938  0.00  0.00    -0.033 C 
ATOM     22  C   UNL     1       9.541 -10.822   1.992  0.00  0.00    -0.000 A 
ATOM     23  C   UNL     1      10.245 -10.358   3.194  0.00  0.00    +0.010 A 
ATOM     24  C   UNL     1      10.682 -11.271   4.092  0.00  0.00    +0.001 A 
ATOM     25  C   UNL     1      10.480 -12.645   3.903  0.00  0.00    +0.002 A 
ATOM     26  C   UNL     1       9.843 -13.148   2.824  0.00  0.00    +0.026 A 
ATOM     27  C   UNL     1       9.341 -12.278   1.817  0.00  0.00    +0.043 A 
ATOM     28  N   UNL     1       8.701 -12.517   0.698  0.00  0.00    -0.380 N 
ATOM     29  C   UNL     1       8.417 -11.237   0.039  0.00  0.00    +0.145 C 
ATOM     30  H   UNL     1       8.453 -13.393   0.363  0.00  0.00    +0.160 HD
ENDBRANCH  20  21
BRANCH  20  31
ATOM     31  C   UNL     1       9.688  -8.359  -0.579  0.00  0.00    -0.020 A 
ATOM     32  C   UNL     1       9.227  -8.882  -1.773  0.00  0.00    +0.006 A 
ATOM     33  C   UNL     1       9.879  -8.587  -2.955  0.00  0.00    +0.000 A 
ATOM     34  C   UNL     1      10.993  -7.769  -2.945  0.00  0.00    +0.001 A 
ATOM     35  C   UNL     1      11.456  -7.245  -1.753  0.00  0.00    +0.020 A 
ATOM     36  C   UNL     1      10.800  -7.535  -0.569  0.00  0.00    +0.045 A 
ATOM     37 CL   UNL     1      11.376  -6.872   0.928  0.00  0.00    -0.083 Cl
ENDBRANCH  20  31
ENDBRANCH   1  20
TORSDOF 8
