REMARK  Name = ZINC67077830
REMARK  9 active torsions:
REMARK  status: ('A' for Active; 'I' for Inactive)
REMARK    1  A    between atoms: C_1  and  C_2
REMARK    2  A    between atoms: C_2  and  N_3
REMARK    3  A    between atoms: N_6  and  C_7
REMARK    4  A    between atoms: C_7  and  C_12
REMARK    5  A    between atoms: N_14  and  C_15
REMARK    6  A    between atoms: C_15  and  C_16
REMARK    7  A    between atoms: C_16  and  C_17
REMARK    8  A    between atoms: N_21  and  C_22
REMARK    9  A    between atoms: C_22  and  C_23
REMARK                            x       y       z     vdW  Elec       q    Type
REMARK                         _______ _______ _______ _____ _____    ______ ____
ROOT
ATOM      1  C   UNL     1      -2.422  -4.293  -1.320  0.00  0.00    +0.237 C 
ATOM      2  O   UNL     1      -2.034  -5.441  -1.332  0.00  0.00    -0.273 OA
ATOM      3  N   UNL     1      -2.235  -3.506  -2.398  0.00  0.00    -0.313 N 
ATOM      4  H   UNL     1      -2.609  -2.611  -2.417  0.00  0.00    +0.149 HD
ENDROOT
BRANCH   1   5
ATOM      5  C   UNL     1      -3.115  -3.744  -0.099  0.00  0.00    +0.112 C 
ATOM      6  C   UNL     1      -2.731  -4.573   1.145  0.00  0.00    +0.035 C 
ATOM      7  C   UNL     1      -4.034  -4.630   1.981  0.00  0.00    +0.003 C 
ATOM      8  C   UNL     1      -5.130  -4.771   0.896  0.00  0.00    +0.003 C 
ATOM      9  C   UNL     1      -4.641  -3.871  -0.257  0.00  0.00    +0.035 C 
BRANCH   5  13
ATOM     10  N   UNL     1      -1.103  -0.691   0.265  0.00  0.00    -0.300 N 
ATOM     11  C   UNL     1      -1.447  -1.991   0.185  0.00  0.00    +0.300 C 
ATOM     12  O   UNL     1      -0.585  -2.849   0.190  0.00  0.00    -0.253 OA
ATOM     13  N   UNL     1      -2.746  -2.341   0.100  0.00  0.00    -0.285 N 
ATOM     14  H   UNL     1      -1.790  -0.006   0.262  0.00  0.00    +0.150 HD
ATOM     15  H   UNL     1      -3.436  -1.663   0.170  0.00  0.00    +0.151 HD
BRANCH  10  17
ATOM     16  C   UNL     1       0.423   1.213   0.436  0.00  0.00    +0.024 C 
ATOM     17  C   UNL     1       0.309  -0.311   0.358  0.00  0.00    +0.102 C 
ENDBRANCH  10  17
ENDBRANCH   5  13
ENDBRANCH   1   5
BRANCH   3  18
ATOM     18  C   UNL     1      -1.465  -4.002  -3.542  0.00  0.00    +0.112 C 
BRANCH  18  19
ATOM     19  C   UNL     1      -1.403  -2.921  -4.622  0.00  0.00    +0.095 C 
BRANCH  19  20
ATOM     20  C   UNL     1      -0.612  -3.432  -5.799  0.00  0.00    +0.133 A 
ATOM     21  N   UNL     1      -0.071  -4.604  -5.891  0.00  0.00    -0.159 NA
ATOM     22  N   UNL     1       0.573  -4.691  -7.133  0.00  0.00    -0.254 N 
ATOM     23  C   UNL     1       0.385  -3.514  -7.765  0.00  0.00    +0.176 A 
ATOM     24  N   UNL     1      -0.351  -2.731  -6.951  0.00  0.00    -0.307 N 
ATOM     25  S   UNL     1       0.968  -3.094  -9.319  0.00  0.00    -0.011 S 
ATOM     26  H   UNL     1       1.064  -5.455  -7.474  0.00  0.00    +0.191 HD
BRANCH  24  27
ATOM     27  C   UNL     1      -0.795  -1.366  -7.244  0.00  0.00    +0.122 C 
ATOM     28  C   UNL     1       0.261  -0.371  -6.756  0.00  0.00    +0.027 C 
ENDBRANCH  24  27
ENDBRANCH  19  20
ENDBRANCH  18  19
ENDBRANCH   3  18
TORSDOF 7
