REMARK  Name = ZINC24536367
REMARK  8 active torsions:
REMARK  status: ('A' for Active; 'I' for Inactive)
REMARK    1  A    between atoms: C_1  and  C_2
REMARK    2  A    between atoms: C_2  and  C_4
REMARK    3  A    between atoms: C_2  and  O_18
REMARK    4  A    between atoms: N_6  and  C_7
REMARK    5  A    between atoms: C_8  and  C_15
REMARK    6  A    between atoms: O_18  and  C_19
REMARK    7  A    between atoms: C_19  and  C_21
REMARK    8  A    between atoms: C_27  and  C_30
REMARK                            x       y       z     vdW  Elec       q    Type
REMARK                         _______ _______ _______ _____ _____    ______ ____
ROOT
ATOM      1  C   UNL     1      -0.005   3.481  -5.594  0.00  0.00    +0.062 C 
ATOM      2  C   UNL     1      -1.290   2.731  -5.235  0.00  0.00    +0.259 C 
ENDROOT
BRANCH   2   3
ATOM      3  C   UNL     1      -1.642   3.000  -3.795  0.00  0.00    +0.258 C 
ATOM      4  O   UNL     1      -2.700   3.523  -3.517  0.00  0.00    -0.271 OA
ATOM      5  N   UNL     1      -0.782   2.658  -2.815  0.00  0.00    -0.276 N 
ATOM      6  H   UNL     1       0.178   2.183  -3.067  0.00  0.00    +0.155 HD
BRANCH   5   7
ATOM      7  C   UNL     1      -1.106   2.905  -1.490  0.00  0.00    +0.084 A 
ATOM      8  C   UNL     1      -0.361   2.630  -0.356  0.00  0.00    +0.068 A 
ATOM      9  C   UNL     1      -0.935   3.001   0.937  0.00  0.00    -0.023 A 
ATOM     10  C   UNL     1      -2.149   3.576   0.880  0.00  0.00    -0.004 A 
ATOM     11  S   UNL     1      -2.542   3.631  -0.851  0.00  0.00    -0.077 S 
ATOM     12  C   UNL     1      -2.670   3.932   2.246  0.00  0.00    +0.043 C 
ATOM     13  C   UNL     1      -1.425   3.891   3.160  0.00  0.00    +0.010 C 
ATOM     14  C   UNL     1      -0.513   2.905   2.404  0.00  0.00    +0.037 C 
BRANCH   8  15
ATOM     15  C   UNL     1       0.957   1.995  -0.449  0.00  0.00    +0.244 C 
ATOM     16  O   UNL     1       1.052   0.782  -0.416  0.00  0.00    -0.270 OA
ATOM     17  N   UNL     1       2.063   2.755  -0.576  0.00  0.00    -0.325 N 
ATOM     18  H   UNL     1       3.052   2.279  -0.646  0.00  0.00    +0.145 HD
ATOM     19  H   UNL     1       1.977   3.851  -0.611  0.00  0.00    +0.145 HD
ENDBRANCH   8  15
ENDBRANCH   5   7
ENDBRANCH   2   3
BRANCH   2  20
ATOM     20  O   UNL     1      -2.371   3.186  -6.091  0.00  0.00    -0.449 OA
BRANCH  20  21
ATOM     21  C   UNL     1      -2.552   2.525  -7.251  0.00  0.00    +0.340 C 
ATOM     22  O   UNL     1      -1.827   1.593  -7.540  0.00  0.00    -0.245 OA
BRANCH  21  23
ATOM     23  C   UNL     1      -3.629   2.931  -8.169  0.00  0.00    +0.060 A 
ATOM     24  C   UNL     1      -4.465   4.014  -7.823  0.00  0.00    +0.017 A 
ATOM     25  C   UNL     1      -5.468   4.427  -8.630  0.00  0.00    +0.032 A 
ATOM     26  C   UNL     1      -5.699   3.767  -9.858  0.00  0.00    +0.114 A 
ATOM     27  C   UNL     1      -4.827   2.631 -10.227  0.00  0.00    +0.050 A 
ATOM     28  C   UNL     1      -3.802   2.246  -9.364  0.00  0.00    +0.028 A 
ATOM     29  C   UNL     1      -5.333   2.236 -11.467  0.00  0.00    +0.175 A 
ATOM     30  O   UNL     1      -6.356   3.067 -11.724  0.00  0.00    -0.353 OA
ATOM     31  N   UNL     1      -6.544   3.886 -10.854  0.00  0.00    -0.078 NA
BRANCH  29  32
ATOM     32  C   UNL     1      -4.847   1.135 -12.317  0.00  0.00    +0.021 A 
ATOM     33  C   UNL     1      -4.660   1.335 -13.688  0.00  0.00    +0.011 A 
ATOM     34  C   UNL     1      -4.198   0.302 -14.476  0.00  0.00    +0.001 A 
ATOM     35  C   UNL     1      -3.932  -0.935 -13.914  0.00  0.00    +0.000 A 
ATOM     36  C   UNL     1      -4.120  -1.143 -12.559  0.00  0.00    +0.001 A 
ATOM     37  C   UNL     1      -4.575  -0.117 -11.757  0.00  0.00    +0.011 A 
ENDBRANCH  29  32
ENDBRANCH  21  23
ENDBRANCH  20  21
ENDBRANCH   2  20
TORSDOF 7
