REMARK  Name = ZINC35645012
REMARK  10 active torsions:
REMARK  status: ('A' for Active; 'I' for Inactive)
REMARK    1  A    between atoms: C_1  and  C_2
REMARK    2  A    between atoms: C_2  and  O_3
REMARK    3  A    between atoms: O_3  and  C_4
REMARK    4  A    between atoms: C_4  and  C_6
REMARK    5  A    between atoms: C_7  and  C_24
REMARK    6  A    between atoms: N_8  and  C_21
REMARK    7  A    between atoms: C_12  and  C_14
REMARK    8  A    between atoms: C_21  and  C_22
REMARK    9  A    between atoms: C_24  and  N_25
REMARK   10  A    between atoms: C_31  and  C_33
REMARK                            x       y       z     vdW  Elec       q    Type
REMARK                         _______ _______ _______ _____ _____    ______ ____
ROOT
ATOM      1  C   UNL     1       0.949  -2.662  -2.481  0.00  0.00    +0.080 C 
ATOM      2  C   UNL     1       1.391  -3.937  -2.497  0.00  0.00    +0.041 C 
ATOM      3  N   UNL     1       2.154  -4.406  -3.529  0.00  0.00    -0.254 N 
ATOM      4  C   UNL     1       2.518  -3.662  -4.581  0.00  0.00    +0.307 C 
ATOM      5  O   UNL     1       3.199  -4.167  -5.452  0.00  0.00    -0.252 OA
ATOM      6  N   UNL     1       2.153  -2.370  -4.706  0.00  0.00    -0.288 N 
ATOM      7  C   UNL     1       1.322  -1.771  -3.648  0.00  0.00    +0.144 C 
ATOM      8  H   UNL     1       2.427  -1.849  -5.477  0.00  0.00    +0.151 HD
ENDROOT
BRANCH   7   9
ATOM      9  C   UNL     1       0.047  -1.272  -4.278  0.00  0.00    -0.020 A 
ATOM     10  C   UNL     1      -0.663  -2.087  -5.140  0.00  0.00    +0.006 A 
ATOM     11  C   UNL     1      -1.832  -1.630  -5.719  0.00  0.00    +0.003 A 
ATOM     12  C   UNL     1      -2.293  -0.358  -5.436  0.00  0.00    +0.038 A 
ATOM     13  C   UNL     1      -1.583   0.459  -4.573  0.00  0.00    +0.124 A 
ATOM     14  C   UNL     1      -0.414  -0.002  -3.990  0.00  0.00    +0.044 A 
ATOM     15  F   UNL     1      -2.032   1.703  -4.297  0.00  0.00    -0.205 F 
ENDBRANCH   7   9
BRANCH   1  16
ATOM     16  C   UNL     1       0.158  -2.175  -1.413  0.00  0.00    +0.339 C 
ATOM     17  O   UNL     1      -0.225  -2.936  -0.544  0.00  0.00    -0.245 OA
BRANCH  16  18
ATOM     18  O   UNL     1      -0.171  -0.868  -1.359  0.00  0.00    -0.462 OA
BRANCH  18  20
ATOM     19  C   UNL     1      -1.240   1.056  -0.361  0.00  0.00    +0.048 C 
ATOM     20  C   UNL     1      -0.971  -0.446  -0.253  0.00  0.00    +0.229 C 
ENDBRANCH  18  20
ENDBRANCH  16  18
ENDBRANCH   1  16
BRANCH   3  21
ATOM     21  C   UNL     1       2.600  -5.800  -3.481  0.00  0.00    +0.141 C 
BRANCH  21  22
ATOM     22  C   UNL     1       1.635  -6.663  -4.253  0.00  0.00    -0.015 C 
ATOM     23  C   UNL     1       2.061  -7.382  -5.261  0.00  0.00    +0.005 C 
ENDBRANCH  21  22
ENDBRANCH   3  21
BRANCH   2  24
ATOM     24  C   UNL     1       1.039  -4.859  -1.358  0.00  0.00    +0.136 C 
BRANCH  24  25
ATOM     25  N   UNL     1       2.101  -4.813  -0.344  0.00  0.00    -0.294 NA
ATOM     26  C   UNL     1       2.102  -3.524   0.359  0.00  0.00    +0.104 C 
ATOM     27  C   UNL     1       3.328  -3.446   1.275  0.00  0.00    +0.123 C 
ATOM     28  N   UNL     1       3.335  -4.631   2.147  0.00  0.00    -0.295 N 
ATOM     29  C   UNL     1       3.199  -5.955   1.523  0.00  0.00    +0.123 C 
ATOM     30  C   UNL     1       1.978  -5.934   0.597  0.00  0.00    +0.104 C 
ATOM     31  C   UNL     1       3.464  -4.505   3.483  0.00  0.00    +0.247 C 
ATOM     32  O   UNL     1       3.473  -3.402   3.992  0.00  0.00    -0.270 OA
BRANCH  31  33
ATOM     33  C   UNL     1       3.595  -5.711   4.329  0.00  0.00    +0.040 A 
ATOM     34  C   UNL     1       4.309  -6.817   3.867  0.00  0.00    +0.013 A 
ATOM     35  C   UNL     1       4.429  -7.939   4.660  0.00  0.00    +0.004 A 
ATOM     36  C   UNL     1       3.843  -7.971   5.913  0.00  0.00    +0.038 A 
ATOM     37  C   UNL     1       3.132  -6.876   6.379  0.00  0.00    +0.124 A 
ATOM     38  C   UNL     1       3.010  -5.744   5.595  0.00  0.00    +0.051 A 
ATOM     39  F   UNL     1       2.562  -6.914   7.603  0.00  0.00    -0.205 F 
ENDBRANCH  31  33
ENDBRANCH  24  25
ENDBRANCH   2  24
TORSDOF 9
