REMARK  Name = ZINC20751747
REMARK  8 active torsions:
REMARK  status: ('A' for Active; 'I' for Inactive)
REMARK    1  A    between atoms: C_1  and  C_2
REMARK    2  A    between atoms: C_2  and  O_3
REMARK    3  A    between atoms: O_3  and  C_4
REMARK    4  A    between atoms: C_7  and  N_10
REMARK    5  A    between atoms: N_10  and  S_11
REMARK    6  A    between atoms: S_11  and  C_14
REMARK    7  A    between atoms: C_27  and  C_30
REMARK    8  A    between atoms: C_39  and  O_40
REMARK                            x       y       z     vdW  Elec       q    Type
REMARK                         _______ _______ _______ _____ _____    ______ ____
ROOT
ATOM      1  C   UNL     1       1.089   0.001   0.709  0.00  0.00    +0.109 A 
ATOM      2  C   UNL     1       0.037  -0.652   0.092  0.00  0.00    +0.030 A 
ATOM      3  C   UNL     1       0.031  -2.032   0.032  0.00  0.00    +0.025 A 
ATOM      4  C   UNL     1       1.077  -2.757   0.588  0.00  0.00    +0.031 A 
ATOM      5  C   UNL     1       2.134  -2.106   1.206  0.00  0.00    -0.018 A 
ATOM      6  C   UNL     1       2.131  -0.719   1.256  0.00  0.00    +0.034 A 
ATOM      7  C   UNL     1       3.283  -2.845   1.815  0.00  0.00    +0.049 C 
ATOM      8  C   UNL     1       3.197  -2.851   3.323  0.00  0.00    -0.023 C 
ATOM      9  C   UNL     1       3.627  -3.994   3.797  0.00  0.00    -0.030 C 
ATOM     10  C   UNL     1       4.065  -4.907   2.668  0.00  0.00    +0.033 C 
ATOM     11  C   UNL     1       3.310  -4.337   1.431  0.00  0.00    +0.029 C 
ATOM     12  C   UNL     1       1.891  -4.910   1.459  0.00  0.00    +0.109 C 
ATOM     13  N   UNL     1       1.055  -4.154   0.520  0.00  0.00    -0.336 N 
ATOM     14  H   UNL     1       0.431  -4.687  -0.212  0.00  0.00    +0.147 HD
ENDROOT
BRANCH  12  15
ATOM     15  C   UNL     1       1.323  -4.790   2.850  0.00  0.00    +0.022 A 
ATOM     16  C   UNL     1       1.545  -5.807   3.794  0.00  0.00    -0.009 A 
ATOM     17  C   UNL     1       2.295  -6.951   3.470  0.00  0.00    +0.009 A 
ATOM     18  C   UNL     1       2.490  -7.916   4.409  0.00  0.00    +0.001 A 
ATOM     19  C   UNL     1       1.958  -7.788   5.691  0.00  0.00    +0.001 A 
ATOM     20  C   UNL     1       1.227  -6.694   6.040  0.00  0.00    +0.008 A 
ATOM     21  C   UNL     1       1.004  -5.677   5.097  0.00  0.00    -0.017 A 
ATOM     22  C   UNL     1       0.254  -4.533   5.423  0.00  0.00    +0.012 A 
ATOM     23  C   UNL     1       0.057  -3.566   4.487  0.00  0.00    +0.046 A 
ATOM     24  C   UNL     1       0.594  -3.690   3.202  0.00  0.00    +0.122 A 
BRANCH  24  25
ATOM     25  O   UNL     1       0.384  -2.705   2.290  0.00  0.00    -0.506 OA
ATOM     26  H   UNL     1      -0.202  -1.816   2.565  0.00  0.00    +0.292 HD
ENDBRANCH  24  25
ENDBRANCH  12  15
BRANCH   1  27
ATOM     27  S   UNL     1       1.101   1.762   0.790  0.00  0.00    +0.072 S 
ATOM     28  O   UNL     1       2.444   2.147   1.048  0.00  0.00    -0.150 OA
ATOM     29  O   UNL     1       0.379   2.225  -0.342  0.00  0.00    -0.150 OA
BRANCH  27  30
ATOM     30  N   UNL     1       0.220   2.196   2.124  0.00  0.00    -0.216 N 
ATOM     31  H   UNL     1       0.699   2.753   2.942  0.00  0.00    +0.174 HD
BRANCH  30  35
ATOM     32  C   UNL     1      -3.815   1.181   2.377  0.00  0.00    +0.121 A 
ATOM     33  C   UNL     1      -2.977   0.966   3.461  0.00  0.00    +0.047 A 
ATOM     34  C   UNL     1      -1.640   1.302   3.378  0.00  0.00    +0.028 A 
ATOM     35  C   UNL     1      -1.135   1.855   2.209  0.00  0.00    +0.048 A 
ATOM     36  C   UNL     1      -1.976   2.075   1.126  0.00  0.00    +0.028 A 
ATOM     37  C   UNL     1      -3.312   1.733   1.209  0.00  0.00    +0.047 A 
BRANCH  32  38
ATOM     38  O   UNL     1      -5.132   0.850   2.460  0.00  0.00    -0.492 OA
BRANCH  38  40
ATOM     39  C   UNL     1      -7.378   0.666   1.587  0.00  0.00    +0.048 C 
ATOM     40  C   UNL     1      -5.937   1.099   1.306  0.00  0.00    +0.225 C 
ENDBRANCH  38  40
ENDBRANCH  32  38
ENDBRANCH  30  35
ENDBRANCH  27  30
ENDBRANCH   1  27
TORSDOF 7
