REMARK  Name = ZINC61912273
REMARK  4 active torsions:
REMARK  status: ('A' for Active; 'I' for Inactive)
REMARK    1  A    between atoms: N_4  and  C_6
REMARK    2  A    between atoms: C_6  and  C_7
REMARK    3  A    between atoms: C_7  and  N_8
REMARK    4  A    between atoms: C_12  and  N_19
REMARK                            x       y       z     vdW  Elec       q    Type
REMARK                         _______ _______ _______ _____ _____    ______ ____
ROOT
ATOM      1  N   UNL     1       3.187  -3.372  -1.229  0.00  0.00    -0.264 N 
ATOM      2  C   UNL     1       4.361  -3.727  -0.543  0.00  0.00    +0.078 A 
ATOM      3  C   UNL     1       4.908  -2.880   0.405  0.00  0.00    +0.029 A 
ATOM      4  C   UNL     1       6.064  -3.244   1.070  0.00  0.00    +0.025 A 
ATOM      5  C   UNL     1       6.676  -4.459   0.789  0.00  0.00    +0.028 A 
ATOM      6  C   UNL     1       6.129  -5.311  -0.162  0.00  0.00    +0.070 A 
ATOM      7  C   UNL     1       4.972  -4.948  -0.827  0.00  0.00    +0.144 A 
ATOM      8  O   UNL     1       4.420  -5.771  -1.758  0.00  0.00    -0.481 OA
ATOM      9  C   UNL     1       2.995  -5.753  -1.870  0.00  0.00    +0.325 C 
ATOM     10  C   UNL     1       2.504  -4.328  -1.896  0.00  0.00    +0.258 C 
ATOM     11  O   UNL     1       1.502  -4.040  -2.516  0.00  0.00    -0.272 OA
ENDROOT
BRANCH   5  12
ATOM     12  N   UNL     1       7.846  -4.824   1.463  0.00  0.00    -0.358 N 
ATOM     13  H   UNL     1       8.229  -4.229   2.127  0.00  0.00    +0.142 HD
ATOM     14  H   UNL     1       8.274  -5.672   1.267  0.00  0.00    +0.142 HD
ENDBRANCH   5  12
BRANCH   1  15
ATOM     15  C   UNL     1       2.709  -1.987  -1.217  0.00  0.00    +0.137 C 
BRANCH  15  16
ATOM     16  C   UNL     1       1.771  -1.782  -0.025  0.00  0.00    +0.163 C 
BRANCH  16  20
ATOM     17  C   UNL     1      -0.016   1.349   0.009  0.00  0.00    +0.041 A 
ATOM     18  C   UNL     1       1.308   1.797  -0.001  0.00  0.00    +0.134 A 
ATOM     19  N   UNL     1       2.094   0.751  -0.014  0.00  0.00    -0.180 NA
ATOM     20  N   UNL     1       1.293  -0.398  -0.012  0.00  0.00    -0.270 N 
ATOM     21  C   UNL     1       0.002  -0.004   0.002  0.00  0.00    +0.108 A 
ENDBRANCH  16  20
ENDBRANCH  15  16
ENDBRANCH   1  15
TORSDOF 4
