REMARK  Name = ZINC61795171
REMARK  5 active torsions:
REMARK  status: ('A' for Active; 'I' for Inactive)
REMARK    1  A    between atoms: C_5  and  C_6
REMARK    2  A    between atoms: N_8  and  N_9
REMARK    3  A    between atoms: N_12  and  C_13
REMARK    4  A    between atoms: C_13  and  C_14
REMARK    5  A    between atoms: C_14  and  N_20
REMARK                            x       y       z     vdW  Elec       q    Type
REMARK                         _______ _______ _______ _____ _____    ______ ____
ROOT
ATOM      1  N   UNL     1      -2.701  -8.024   2.542  0.00  0.00    -0.218 N 
ATOM      2  C   UNL     1      -2.256  -7.397   1.435  0.00  0.00    +0.316 C 
ATOM      3  O   UNL     1      -3.048  -6.987   0.609  0.00  0.00    -0.251 OA
ATOM      4  N   UNL     1      -0.933  -7.224   1.244  0.00  0.00    -0.296 N 
ATOM      5  H   UNL     1      -3.653  -8.149   2.680  0.00  0.00    +0.174 HD
ATOM      6  H   UNL     1      -0.301  -7.551   1.904  0.00  0.00    +0.150 HD
ENDROOT
BRANCH   1   9
ATOM      7  C   UNL     1      -2.232  -9.123   4.602  0.00  0.00    +0.263 C 
ATOM      8  O   UNL     1      -3.426  -9.279   4.774  0.00  0.00    -0.269 OA
ATOM      9  N   UNL     1      -1.788  -8.496   3.495  0.00  0.00    -0.229 N 
ATOM     10  H   UNL     1      -0.836  -8.372   3.357  0.00  0.00    +0.173 HD
BRANCH   7  15
ATOM     11  C   UNL     1      -1.580 -10.321   6.859  0.00  0.00    +0.054 A 
ATOM     12  C   UNL     1      -0.397 -10.576   7.438  0.00  0.00    +0.195 A 
ATOM     13  O   UNL     1       0.586 -10.100   6.658  0.00  0.00    -0.470 OA
ATOM     14  C   UNL     1       0.088  -9.526   5.559  0.00  0.00    +0.208 A 
ATOM     15  C   UNL     1      -1.272  -9.620   5.603  0.00  0.00    +0.076 A 
ENDBRANCH   7  15
ENDBRANCH   1   9
BRANCH   4  16
ATOM     16  C   UNL     1      -0.449  -6.543   0.041  0.00  0.00    +0.128 C 
BRANCH  16  17
ATOM     17  C   UNL     1       1.079  -6.590   0.007  0.00  0.00    +0.038 C 
ATOM     18  C   UNL     1       1.589  -5.766  -1.176  0.00  0.00    +0.024 C 
ATOM     19  C   UNL     1       1.032  -6.344  -2.478  0.00  0.00    +0.002 C 
ATOM     20  C   UNL     1       1.494  -7.795  -2.631  0.00  0.00    +0.000 C 
ATOM     21  C   UNL     1       0.984  -8.620  -1.447  0.00  0.00    +0.002 C 
ATOM     22  C   UNL     1       1.541  -8.041  -0.145  0.00  0.00    +0.024 C 
BRANCH  17  23
ATOM     23  N   UNL     1       1.614  -6.035   1.258  0.00  0.00    -0.291 NA
ATOM     24  C   UNL     1       1.146  -4.657   1.465  0.00  0.00    +0.113 C 
ATOM     25  C   UNL     1       1.677  -4.139   2.804  0.00  0.00    +0.175 C 
ATOM     26  O   UNL     1       3.104  -4.234   2.815  0.00  0.00    -0.377 OA
ATOM     27  C   UNL     1       3.594  -5.562   2.616  0.00  0.00    +0.175 C 
ATOM     28  C   UNL     1       3.083  -6.094   1.275  0.00  0.00    +0.113 C 
ENDBRANCH  17  23
ENDBRANCH  16  17
ENDBRANCH   4  16
TORSDOF 5
