REMARK  Name = ZINC09242487
REMARK  15 active torsions:
REMARK  status: ('A' for Active; 'I' for Inactive)
REMARK    1  A    between atoms: C_1  and  C_2
REMARK    2  A    between atoms: C_2  and  C_3
REMARK    3  A    between atoms: C_3  and  N_4
REMARK    4  A    between atoms: C_15  and  C_16
REMARK    5  A    between atoms: C_15  and  O_26
REMARK    6  A    between atoms: C_19  and  O_22
REMARK    7  A    between atoms: O_22  and  C_23
REMARK    8  A    between atoms: C_23  and  C_24
REMARK    9  A    between atoms: C_24  and  C_25
REMARK   10  A    between atoms: N_31  and  C_32
REMARK   11  A    between atoms: C_32  and  C_33
REMARK   12  A    between atoms: C_33  and  C_34
REMARK   13  A    between atoms: C_34  and  N_72
REMARK   14  A    between atoms: C_35  and  N_72
REMARK   15  A    between atoms: C_36  and  N_72
REMARK                            x       y       z     vdW  Elec       q    Type
REMARK                         _______ _______ _______ _____ _____    ______ ____
ROOT
ATOM      1  N   UNL     1       0.320  -3.616   0.950  0.00  0.00    -0.269 N 
ATOM      2  C   UNL     1       0.272  -3.733  -0.440  0.00  0.00    +0.042 A 
ATOM      3  C   UNL     1       1.025  -4.514  -1.314  0.00  0.00    +0.024 A 
ATOM      4  C   UNL     1       0.789  -4.459  -2.672  0.00  0.00    +0.002 A 
ATOM      5  C   UNL     1      -0.196  -3.630  -3.177  0.00  0.00    +0.000 A 
ATOM      6  C   UNL     1      -0.949  -2.851  -2.315  0.00  0.00    +0.008 A 
ATOM      7  C   UNL     1      -0.716  -2.903  -0.959  0.00  0.00    +0.011 A 
ATOM      8  C   UNL     1      -1.336  -2.205   0.222  0.00  0.00    +0.174 C 
ATOM      9  C   UNL     1      -0.590  -2.741   1.418  0.00  0.00    +0.253 C 
ATOM     10  O   UNL     1      -0.774  -2.442   2.579  0.00  0.00    -0.272 OA
ATOM     11  C   UNL     1      -1.179  -0.712   0.114  0.00  0.00    +0.083 C 
ATOM     12  C   UNL     1       0.002  -0.004   0.002  0.00  0.00    +0.134 C 
ATOM     13  C   UNL     1      -2.482  -0.186   0.144  0.00  0.00    +0.250 C 
ATOM     14  O   UNL     1      -2.778   0.994   0.076  0.00  0.00    -0.282 OA
ATOM     15  C   UNL     1      -3.437  -1.320   0.274  0.00  0.00    +0.288 C 
ATOM     16  O   UNL     1      -4.644  -1.210   0.329  0.00  0.00    -0.266 OA
ATOM     17  N   UNL     1      -2.765  -2.485   0.322  0.00  0.00    -0.273 N 
ENDROOT
BRANCH  12  18
ATOM     18  C   UNL     1      -0.029   1.445  -0.248  0.00  0.00    +0.017 A 
ATOM     19  C   UNL     1      -0.804   1.961  -1.294  0.00  0.00    +0.015 A 
ATOM     20  C   UNL     1      -0.835   3.318  -1.520  0.00  0.00    +0.046 A 
ATOM     21  C   UNL     1      -0.088   4.176  -0.719  0.00  0.00    +0.121 A 
ATOM     22  C   UNL     1       0.687   3.668   0.318  0.00  0.00    +0.046 A 
ATOM     23  C   UNL     1       0.720   2.313   0.556  0.00  0.00    +0.015 A 
BRANCH  21  24
ATOM     24  O   UNL     1      -0.117   5.513  -0.950  0.00  0.00    -0.492 OA
BRANCH  24  25
ATOM     25  C   UNL     1      -0.934   5.967  -2.030  0.00  0.00    +0.229 C 
BRANCH  25  26
ATOM     26  C   UNL     1      -0.840   7.490  -2.135  0.00  0.00    +0.038 C 
ATOM     27  C   UNL     1      -1.714   7.977  -3.292  0.00  0.00    +0.007 C 
ENDBRANCH  25  26
ENDBRANCH  24  25
ENDBRANCH  21  24
ENDBRANCH  12  18
BRANCH  12  28
ATOM     28  O   UNL     1       1.185  -0.643   0.122  0.00  0.00    -0.506 OA
ATOM     29  H   UNL     1       1.931   0.015   0.015  0.00  0.00    +0.292 HD
ENDBRANCH  12  28
BRANCH   1  30
ATOM     30  C   UNL     1       1.253  -4.358   1.801  0.00  0.00    +0.113 C 
BRANCH  30  32
ATOM     31  C   UNL     1       1.591  -6.459   3.111  0.00  0.00    +0.005 C 
ATOM     32  C   UNL     1       0.616  -5.684   2.221  0.00  0.00    +0.016 C 
ENDBRANCH  30  32
ENDBRANCH   1  30
BRANCH  17  33
ATOM     33  C   UNL     1      -3.368  -3.815   0.447  0.00  0.00    +0.108 C 
BRANCH  33  34
ATOM     34  C   UNL     1      -3.651  -4.380  -0.946  0.00  0.00    +0.000 C 
BRANCH  34  35
ATOM     35  C   UNL     1      -4.281  -5.768  -0.815  0.00  0.00    -0.078 C 
BRANCH  35  38
ATOM     36  C   UNL     1      -3.303  -6.561  -2.884  0.00  0.00    -0.097 C 
ATOM     37  C   UNL     1      -5.368  -7.530  -2.071  0.00  0.00    -0.097 C 
ATOM     38  N   UNL     1      -4.568  -6.291  -2.167  0.00  0.00    +0.376 N 
ATOM     39  H   UNL     1      -5.103  -5.588  -2.690  0.00  0.00    -0.083 HD
ENDBRANCH  35  38
ENDBRANCH  34  35
ENDBRANCH  33  34
ENDBRANCH  17  33
TORSDOF 11
