REMARK  Name = ZINC06877732
REMARK  5 active torsions:
REMARK  status: ('A' for Active; 'I' for Inactive)
REMARK    1  A    between atoms: C_1  and  C_2
REMARK    2  A    between atoms: C_3  and  C_14
REMARK    3  A    between atoms: C_5  and  C_7
REMARK    4  A    between atoms: C_14  and  S_15
REMARK    5  A    between atoms: S_15  and  C_16
REMARK                            x       y       z     vdW  Elec       q    Type
REMARK                         _______ _______ _______ _____ _____    ______ ____
ROOT
ATOM      1  C   UNL     1      -0.018   1.503   0.010  0.00  0.00    +0.088 C 
ATOM      2  C   UNL     1       0.002  -0.004   0.002  0.00  0.00    +0.127 A 
ATOM      3  C   UNL     1      -1.071  -0.816   0.003  0.00  0.00    +0.093 A 
ATOM      4  N   UNL     1      -0.627  -2.083  -0.007  0.00  0.00    -0.213 NA
ATOM      5  C   UNL     1       0.685  -2.068  -0.014  0.00  0.00    +0.228 A 
ATOM      6  O   UNL     1       1.098  -0.788  -0.013  0.00  0.00    -0.440 OA
ENDROOT
BRANCH   5   7
ATOM      7  C   UNL     1       1.562  -3.258  -0.025  0.00  0.00    +0.038 A 
ATOM      8  C   UNL     1       1.006  -4.538  -0.036  0.00  0.00    +0.013 A 
ATOM      9  C   UNL     1       1.829  -5.645  -0.047  0.00  0.00    +0.002 A 
ATOM     10  C   UNL     1       3.204  -5.488  -0.047  0.00  0.00    +0.015 A 
ATOM     11  C   UNL     1       3.762  -4.222  -0.036  0.00  0.00    +0.019 A 
ATOM     12  C   UNL     1       2.949  -3.106  -0.031  0.00  0.00    +0.028 A 
ATOM     13 BR   UNL     1       5.642  -4.019  -0.035  0.00  0.00    -0.050 Br
ENDBRANCH   5   7
BRANCH   3  14
ATOM     14  C   UNL     1      -2.513  -0.381   0.013  0.00  0.00    +0.136 C 
BRANCH  14  15
ATOM     15  S   UNL     1      -3.101  -0.196  -1.693  0.00  0.00    -0.081 S 
BRANCH  15  16
ATOM     16  C   UNL     1      -4.780   0.309  -1.513  0.00  0.00    +0.169 A 
ATOM     17  N   UNL     1      -5.393   0.495  -0.368  0.00  0.00    -0.202 NA
ATOM     18  H   UNL     1      -5.431   0.515  -3.491  0.00  0.00    +0.168 HD
ATOM     19  C   UNL     1      -6.673   0.880  -0.591  0.00  0.00    +0.179 A 
ATOM     20  C   UNL     1      -6.849   0.933  -1.985  0.00  0.00    +0.086 A 
ATOM     21  N   UNL     1      -5.635   0.572  -2.545  0.00  0.00    -0.332 N 
ATOM     22  C   UNL     1      -8.081   1.303  -2.504  0.00  0.00    +0.031 A 
ATOM     23  C   UNL     1      -9.101   1.610  -1.617  0.00  0.00    +0.022 A 
ATOM     24  C   UNL     1      -8.862   1.539  -0.255  0.00  0.00    +0.113 A 
ATOM     25  N   UNL     1      -7.686   1.186   0.218  0.00  0.00    -0.234 NA
ENDBRANCH  15  16
ENDBRANCH  14  15
ENDBRANCH   3  14
TORSDOF 4
