REMARK  Name = ZINC12630165
REMARK  1 active torsions:
REMARK  status: ('A' for Active; 'I' for Inactive)
REMARK    1  A    between atoms: C_3  and  C_8
REMARK                            x       y       z     vdW  Elec       q    Type
REMARK                         _______ _______ _______ _____ _____    ______ ____
ROOT
ATOM      1  C   UNL     1       3.672   2.183  -0.022  0.00  0.00    +0.209 C 
ATOM      2  N   UNL     1       4.651   1.517  -0.900  0.00  0.00    -0.294 N 
ATOM      3  C   UNL     1       5.383   0.460  -0.429  0.00  0.00    +0.160 C 
ATOM      4  N   UNL     1       5.700   0.357   0.850  0.00  0.00    -0.302 N 
ATOM      5  C   UNL     1       5.230   1.295   1.708  0.00  0.00    +0.213 A 
ATOM      6  N   UNL     1       4.256   2.200   1.324  0.00  0.00    -0.286 N 
ATOM      7  C   UNL     1       3.998   3.022   2.395  0.00  0.00    +0.076 A 
ATOM      8  C   UNL     1       3.151   4.103   2.607  0.00  0.00    +0.077 A 
ATOM      9  C   UNL     1       3.128   4.729   3.838  0.00  0.00    +0.164 A 
ATOM     10  C   UNL     1       3.950   4.284   4.871  0.00  0.00    +0.164 A 
ATOM     11  C   UNL     1       4.797   3.213   4.678  0.00  0.00    +0.079 A 
ATOM     12  C   UNL     1       4.830   2.570   3.437  0.00  0.00    +0.095 A 
ATOM     13  N   UNL     1       5.547   1.510   2.957  0.00  0.00    -0.212 NA
ATOM     14  O   UNL     1       3.911   4.916   6.082  0.00  0.00    -0.488 OA
ATOM     15  C   UNL     1       4.422   6.250   6.108  0.00  0.00    +0.232 C 
ATOM     16  C   UNL     1       3.354   7.245   5.682  0.00  0.00    +0.082 C 
ATOM     17  C   UNL     1       2.932   7.057   4.234  0.00  0.00    +0.232 C 
ATOM     18  O   UNL     1       2.296   5.791   4.051  0.00  0.00    -0.488 OA
ATOM     19  N   UNL     1       5.794  -0.512  -1.301  0.00  0.00    -0.332 N 
ATOM     20  H   UNL     1       5.567  -0.447  -2.241  0.00  0.00    +0.145 HD
ATOM     21  H   UNL     1       6.313  -1.265  -0.978  0.00  0.00    +0.145 HD
ATOM     22  H   UNL     1       4.777   1.828  -1.811  0.00  0.00    +0.151 HD
ATOM     23  H   UNL     1       6.256  -0.372   1.167  0.00  0.00    +0.171 HD
ENDROOT
BRANCH   1  26
ATOM     24  C   UNL     1      -0.017   1.378   0.010  0.00  0.00    +0.001 A 
ATOM     25  C   UNL     1       1.171   2.086   0.002  0.00  0.00    +0.007 A 
ATOM     26  C   UNL     1       2.378   1.411  -0.013  0.00  0.00    -0.006 A 
ATOM     27  C   UNL     1       2.397   0.029  -0.022  0.00  0.00    +0.022 A 
ATOM     28  C   UNL     1       1.210  -0.679  -0.014  0.00  0.00    +0.018 A 
ATOM     29  C   UNL     1       0.002  -0.004   0.002  0.00  0.00    +0.015 A 
ATOM     30 BR   UNL     1       1.236  -2.570  -0.025  0.00  0.00    -0.050 Br
ENDBRANCH   1  26
TORSDOF 1
