REMARK  Name = ZINC02128081
REMARK  6 active torsions:
REMARK  status: ('A' for Active; 'I' for Inactive)
REMARK    1  A    between atoms: C_1  and  C_2
REMARK    2  A    between atoms: C_5  and  C_8
REMARK    3  A    between atoms: C_15  and  C_34
REMARK    4  A    between atoms: C_16  and  C_22
REMARK    5  A    between atoms: C_22  and  C_23
REMARK    6  A    between atoms: C_28  and  C_31
REMARK                            x       y       z     vdW  Elec       q    Type
REMARK                         _______ _______ _______ _____ _____    ______ ____
ROOT
ATOM      1  C   UNL     1      -2.259   4.583   0.050  0.00  0.00    +0.028 A 
ATOM      2  C   UNL     1      -1.608   5.768   0.050  0.00  0.00    +0.204 A 
ATOM      3  O   UNL     1      -0.280   5.564   0.036  0.00  0.00    -0.462 OA
ATOM      4  C   UNL     1       0.012   4.247   0.026  0.00  0.00    +0.139 A 
ATOM      5  C   UNL     1      -1.210   3.545   0.034  0.00  0.00    +0.029 A 
ATOM      6  C   UNL     1      -1.226   2.160   0.031  0.00  0.00    +0.024 A 
ATOM      7  C   UNL     1      -0.018   1.462   0.010  0.00  0.00    +0.022 A 
ATOM      8  C   UNL     1       0.002  -0.004   0.002  0.00  0.00    -0.029 A 
ATOM      9  C   UNL     1       1.207  -0.629  -0.013  0.00  0.00    +0.049 A 
ATOM     10  C   UNL     1       2.393   0.134  -0.020  0.00  0.00    +0.341 A 
ATOM     11  O   UNL     1       3.467  -0.440  -0.034  0.00  0.00    -0.245 OA
ATOM     12  O   UNL     1       2.370   1.476  -0.013  0.00  0.00    -0.422 OA
ATOM     13  C   UNL     1       1.206   2.163   0.002  0.00  0.00    +0.143 A 
ATOM     14  C   UNL     1       1.210   3.547   0.010  0.00  0.00    +0.093 A 
ATOM     15  C   UNL     1      -1.280  -0.795   0.009  0.00  0.00    +0.045 C 
ENDROOT
BRANCH   1  20
ATOM     16  C   UNL     1      -7.957   3.755   0.102  0.00  0.00    +0.044 C 
ATOM     17  C   UNL     1      -6.466   3.972   0.088  0.00  0.00    -0.050 A 
ATOM     18  C   UNL     1      -5.886   4.829   1.006  0.00  0.00    +0.004 A 
ATOM     19  C   UNL     1      -4.521   5.031   0.999  0.00  0.00    +0.009 A 
ATOM     20  C   UNL     1      -3.726   4.370   0.063  0.00  0.00    -0.014 A 
ATOM     21  C   UNL     1      -4.317   3.511  -0.863  0.00  0.00    +0.009 A 
ATOM     22  C   UNL     1      -5.683   3.313  -0.843  0.00  0.00    +0.004 A 
ENDBRANCH   1  20
BRANCH   9  23
ATOM     23  C   UNL     1       1.277  -2.135  -0.022  0.00  0.00    +0.138 C 
BRANCH  23  24
ATOM     24  C   UNL     1       1.287  -2.628  -1.446  0.00  0.00    +0.220 C 
ATOM     25  O   UNL     1       1.242  -1.836  -2.363  0.00  0.00    -0.275 OA
ATOM     26  N   UNL     1       1.346  -3.950  -1.700  0.00  0.00    -0.301 N 
ATOM     27  C   UNL     1       1.408  -4.922  -0.600  0.00  0.00    +0.108 C 
ATOM     28  C   UNL     1       2.612  -5.838  -0.812  0.00  0.00    +0.032 C 
ATOM     29  C   UNL     1       2.532  -6.468  -2.204  0.00  0.00    +0.078 C 
ATOM     30  C   UNL     1       2.567  -5.368  -3.267  0.00  0.00    +0.032 C 
ATOM     31  C   UNL     1       1.357  -4.447  -3.083  0.00  0.00    +0.108 C 
BRANCH  29  32
ATOM     32  C   UNL     1       3.703  -7.396  -2.403  0.00  0.00    +0.214 C 
ATOM     33  O   UNL     1       4.488  -7.197  -3.306  0.00  0.00    -0.276 OA
ATOM     34  N   UNL     1       3.878  -8.447  -1.578  0.00  0.00    -0.329 N 
ATOM     35  H   UNL     1       3.250  -8.607  -0.856  0.00  0.00    +0.145 HD
ATOM     36  H   UNL     1       4.631  -9.044  -1.706  0.00  0.00    +0.145 HD
ENDBRANCH  29  32
ENDBRANCH  23  24
ENDBRANCH   9  23
TORSDOF 4
