REMARK  Name = ZINC02738714
REMARK  9 active torsions:
REMARK  status: ('A' for Active; 'I' for Inactive)
REMARK    1  A    between atoms: C_4  and  N_7
REMARK    2  A    between atoms: C_8  and  C_25
REMARK    3  A    between atoms: C_11  and  S_12
REMARK    4  A    between atoms: S_12  and  C_13
REMARK    5  A    between atoms: C_13  and  C_14
REMARK    6  A    between atoms: N_16  and  N_17
REMARK    7  A    between atoms: C_18  and  C_19
REMARK    8  A    between atoms: C_25  and  N_26
REMARK    9  A    between atoms: N_26  and  C_27
REMARK                            x       y       z     vdW  Elec       q    Type
REMARK                         _______ _______ _______ _____ _____    ______ ____
ROOT
ATOM      1  N   UNL     1      -1.240   2.070   0.019  0.00  0.00    -0.273 N 
ATOM      2  C   UNL     1      -1.732   2.872   1.015  0.00  0.00    +0.156 A 
ATOM      3  N   UNL     1      -2.894   3.310   0.621  0.00  0.00    -0.132 NA
ATOM      4  N   UNL     1      -3.170   2.845  -0.545  0.00  0.00    -0.122 NA
ATOM      5  C   UNL     1      -2.188   2.083  -0.967  0.00  0.00    +0.197 A 
ENDROOT
BRANCH   1   9
ATOM      6  C   UNL     1       2.396   0.031  -0.021  0.00  0.00    +0.000 A 
ATOM      7  C   UNL     1       1.208  -0.677  -0.013  0.00  0.00    +0.002 A 
ATOM      8  C   UNL     1       0.002  -0.004   0.002  0.00  0.00    +0.026 A 
ATOM      9  C   UNL     1      -0.017   1.384   0.010  0.00  0.00    +0.050 A 
ATOM     10  C   UNL     1       1.177   2.092   0.002  0.00  0.00    +0.026 A 
ATOM     11  C   UNL     1       2.381   1.413  -0.013  0.00  0.00    +0.002 A 
ENDBRANCH   1   9
BRANCH   5  12
ATOM     12  S   UNL     1      -2.109   1.234  -2.509  0.00  0.00    -0.076 S 
BRANCH  12  13
ATOM     13  C   UNL     1      -3.691   1.738  -3.227  0.00  0.00    +0.174 C 
BRANCH  13  14
ATOM     14  C   UNL     1      -3.846   1.113  -4.590  0.00  0.00    +0.242 C 
ATOM     15  O   UNL     1      -2.973   0.397  -5.031  0.00  0.00    -0.273 OA
ATOM     16  N   UNL     1      -4.956   1.350  -5.317  0.00  0.00    -0.206 N 
ATOM     17  H   UNL     1      -5.654   1.923  -4.964  0.00  0.00    +0.177 HD
BRANCH  16  18
ATOM     18  N   UNL     1      -5.100   0.769  -6.584  0.00  0.00    -0.186 NA
ATOM     19  C   UNL     1      -6.168   0.998  -7.285  0.00  0.00    +0.158 C 
BRANCH  19  20
ATOM     20  C   UNL     1      -6.320   0.386  -8.618  0.00  0.00    +0.083 A 
ATOM     21  C   UNL     1      -7.474   0.630  -9.366  0.00  0.00    +0.029 A 
ATOM     22  C   UNL     1      -7.599   0.054 -10.617  0.00  0.00    +0.004 A 
ATOM     23  C   UNL     1      -6.571  -0.758 -11.078  0.00  0.00    +0.020 A 
ATOM     24  C   UNL     1      -5.458  -0.963 -10.283  0.00  0.00    +0.111 A 
ATOM     25  N   UNL     1      -5.360  -0.398  -9.097  0.00  0.00    -0.254 NA
ENDBRANCH  19  20
ENDBRANCH  16  18
ENDBRANCH  13  14
ENDBRANCH  12  13
ENDBRANCH   5  12
BRANCH   2  26
ATOM     26  C   UNL     1      -1.054   3.189   2.323  0.00  0.00    +0.178 C 
BRANCH  26  27
ATOM     27  N   UNL     1      -0.225   4.387   2.166  0.00  0.00    -0.336 N 
ATOM     28  H   UNL     1      -0.184   4.839   1.308  0.00  0.00    +0.147 HD
BRANCH  27  29
ATOM     29  C   UNL     1       0.503   4.877   3.247  0.00  0.00    +0.035 A 
ATOM     30  C   UNL     1       0.444   4.243   4.470  0.00  0.00    +0.023 A 
ATOM     31  C   UNL     1       1.171   4.722   5.556  0.00  0.00    +0.002 A 
ATOM     32  C   UNL     1       1.951   5.833   5.444  0.00  0.00    +0.008 A 
ATOM     33  C   UNL     1       2.035   6.511   4.217  0.00  0.00    -0.016 A 
ATOM     34  C   UNL     1       1.304   6.031   3.103  0.00  0.00    +0.003 A 
ATOM     35  C   UNL     1       1.387   6.710   1.878  0.00  0.00    +0.010 A 
ATOM     36  C   UNL     1       2.169   7.820   1.775  0.00  0.00    +0.001 A 
ATOM     37  C   UNL     1       2.889   8.294   2.870  0.00  0.00    +0.001 A 
ATOM     38  C   UNL     1       2.832   7.660   4.073  0.00  0.00    +0.008 A 
ENDBRANCH  27  29
ENDBRANCH  26  27
ENDBRANCH   2  26
TORSDOF 9
