REMARK  Name = ZINC39938834
REMARK  8 active torsions:
REMARK  status: ('A' for Active; 'I' for Inactive)
REMARK    1  A    between atoms: C_1  and  C_2
REMARK    2  A    between atoms: C_2  and  C_4
REMARK    3  A    between atoms: C_2  and  S_14
REMARK    4  A    between atoms: N_6  and  C_7
REMARK    5  A    between atoms: C_8  and  C_12
REMARK    6  A    between atoms: S_14  and  C_15
REMARK    7  A    between atoms: C_19  and  C_24
REMARK    8  A    between atoms: N_20  and  C_21
REMARK                            x       y       z     vdW  Elec       q    Type
REMARK                         _______ _______ _______ _____ _____    ______ ____
ROOT
ATOM      1  C   UNL     1       0.037  -0.099   2.661  0.00  0.00    +0.238 C 
ATOM      2  N   UNL     1      -1.190  -0.912   2.657  0.00  0.00    -0.237 N 
ATOM      3  N   UNL     1      -2.252  -0.030   2.884  0.00  0.00    -0.169 NA
ATOM      4  C   UNL     1      -1.828   1.198   3.023  0.00  0.00    +0.147 C 
ATOM      5  N   UNL     1      -0.435   1.274   2.906  0.00  0.00    -0.282 N 
ATOM      6  H   UNL     1      -1.250  -1.871   2.522  0.00  0.00    +0.171 HD
ENDROOT
BRANCH   4   7
ATOM      7  C   UNL     1      -2.662   2.301   3.261  0.00  0.00    +0.022 C 
ATOM      8  C   UNL     1      -4.055   2.303   3.345  0.00  0.00    +0.006 A 
ATOM      9  C   UNL     1      -5.018   1.279   3.229  0.00  0.00    +0.010 A 
ATOM     10  C   UNL     1      -6.337   1.576   3.359  0.00  0.00    +0.001 A 
ATOM     11  C   UNL     1      -6.771   2.880   3.607  0.00  0.00    +0.002 A 
ATOM     12  C   UNL     1      -5.902   3.913   3.729  0.00  0.00    +0.026 A 
ATOM     13  C   UNL     1      -4.508   3.679   3.605  0.00  0.00    +0.043 A 
ATOM     14  N   UNL     1      -3.476   4.498   3.682  0.00  0.00    -0.380 N 
ATOM     15  C   UNL     1      -2.239   3.736   3.486  0.00  0.00    +0.152 C 
ATOM     16  H   UNL     1      -3.528   5.452   3.847  0.00  0.00    +0.160 HD
ENDBRANCH   4   7
BRANCH   5  17
ATOM     17  C   UNL     1       0.392   2.479   3.007  0.00  0.00    +0.078 C 
ATOM     18  C   UNL     1       1.897   2.324   2.784  0.00  0.00    +0.024 C 
ATOM     19  C   UNL     1       1.355   2.579   4.192  0.00  0.00    +0.024 C 
ENDBRANCH   5  17
BRANCH   1  20
ATOM     20  S   UNL     1       0.874  -0.205   1.055  0.00  0.00    -0.106 S 
BRANCH  20  22
ATOM     21  C   UNL     1      -0.864   1.552  -0.117  0.00  0.00    +0.029 C 
ATOM     22  C   UNL     1      -0.452   0.079  -0.150  0.00  0.00    +0.133 C 
BRANCH  22  23
ATOM     23  C   UNL     1       0.040  -0.275  -1.530  0.00  0.00    +0.230 C 
ATOM     24  O   UNL     1       1.231  -0.325  -1.755  0.00  0.00    -0.274 OA
ATOM     25  N   UNL     1      -0.843  -0.535  -2.514  0.00  0.00    -0.278 N 
ATOM     26  H   UNL     1      -1.796  -0.495  -2.334  0.00  0.00    +0.155 HD
BRANCH  25  27
ATOM     27  C   UNL     1      -0.391  -0.861  -3.785  0.00  0.00    +0.089 A 
ATOM     28  C   UNL     1      -1.146  -1.151  -4.910  0.00  0.00    +0.080 A 
ATOM     29  C   UNL     1      -0.416  -1.459  -6.118  0.00  0.00    +0.028 A 
ATOM     30  C   UNL     1       0.926  -1.430  -6.015  0.00  0.00    +0.048 A 
ATOM     31  S   UNL     1       1.197  -0.986  -4.314  0.00  0.00    -0.081 S 
BRANCH  28  32
ATOM     32  C   UNL     1      -2.578  -1.146  -4.877  0.00  0.00    +0.102 C 
ATOM     33  N   UNL     1      -3.713  -1.142  -4.851  0.00  0.00    -0.191 NA
ENDBRANCH  28  32
ENDBRANCH  25  27
ENDBRANCH  22  23
ENDBRANCH  20  22
ENDBRANCH   1  20
TORSDOF 7
