REMARK  Name = ZINC11998639
REMARK  7 active torsions:
REMARK  status: ('A' for Active; 'I' for Inactive)
REMARK    1  A    between atoms: C_1  and  C_2
REMARK    2  A    between atoms: C_7  and  C_9
REMARK    3  A    between atoms: C_7  and  C_27
REMARK    4  A    between atoms: C_7  and  N_61
REMARK    5  A    between atoms: C_9  and  N_10
REMARK    6  A    between atoms: C_11  and  C_13
REMARK    7  A    between atoms: C_17  and  N_19
REMARK                            x       y       z     vdW  Elec       q    Type
REMARK                         _______ _______ _______ _____ _____    ______ ____
ROOT
ATOM      1  N   UNL     1       0.793   0.005  -2.032  0.00  0.00    -0.313 N 
ATOM      2  C   UNL     1       0.904  -0.194  -3.361  0.00  0.00    +0.244 C 
ATOM      3  O   UNL     1       0.292   0.516  -4.135  0.00  0.00    -0.270 OA
ATOM      4  H   UNL     1       1.282  -0.562  -1.415  0.00  0.00    +0.149 HD
ENDROOT
BRANCH   2   5
ATOM      5  C   UNL     1       1.770  -1.276  -3.877  0.00  0.00    +0.039 A 
ATOM      6  C   UNL     1       2.479  -2.088  -2.990  0.00  0.00    +0.013 A 
ATOM      7  C   UNL     1       3.283  -3.100  -3.474  0.00  0.00    +0.003 A 
ATOM      8  C   UNL     1       3.398  -3.306  -4.837  0.00  0.00    +0.025 A 
ATOM      9  C   UNL     1       2.701  -2.499  -5.727  0.00  0.00    +0.060 A 
ATOM     10  C   UNL     1       1.887  -1.483  -5.251  0.00  0.00    +0.038 A 
BRANCH   9  11
ATOM     11  N   UNL     1       2.821  -2.711  -7.105  0.00  0.00    -0.144 N 
ATOM     12  C   UNL     1       1.915  -2.381  -8.037  0.00  0.00    +0.240 C 
ATOM     13  O   UNL     1       0.885  -1.818  -7.729  0.00  0.00    -0.274 OA
ATOM     14  C   UNL     1       2.204  -2.719  -9.468  0.00  0.00    +0.122 C 
ATOM     15  C   UNL     1       3.727  -2.976  -9.621  0.00  0.00    +0.198 C 
ATOM     16  S   UNL     1       4.120  -3.429  -7.882  0.00  0.00    +0.052 S 
ATOM     17  O   UNL     1       5.272  -2.734  -7.425  0.00  0.00    -0.155 OA
ATOM     18  O   UNL     1       3.967  -4.826  -7.675  0.00  0.00    -0.155 OA
ENDBRANCH   9  11
ENDBRANCH   2   5
BRANCH   1  19
ATOM     19  C   UNL     1      -0.065   1.076  -1.521  0.00  0.00    +0.094 C 
BRANCH  19  20
ATOM     20  C   UNL     1      -0.013   1.086   0.008  0.00  0.00    -0.020 C 
BRANCH  20  27
ATOM     21  C   UNL     1       5.133   2.289   2.185  0.00  0.00    +0.007 C 
ATOM     22  C   UNL     1       3.646   2.341   1.829  0.00  0.00    -0.018 C 
ATOM     23  C   UNL     1       2.956   1.067   2.324  0.00  0.00    -0.015 C 
ATOM     24  C   UNL     1       1.483   1.098   1.912  0.00  0.00    -0.078 C 
ATOM     25  C   UNL     1       1.999   2.432  -0.045  0.00  0.00    -0.078 C 
ATOM     26  C   UNL     1       3.487   2.441   0.309  0.00  0.00    -0.015 C 
ATOM     27  N   UNL     1       1.399   1.170   0.437  0.00  0.00    +0.385 N 
ATOM     28  H   UNL     1       1.917   0.380   0.035  0.00  0.00    -0.081 HD
ENDBRANCH  20  27
BRANCH  20  29
ATOM     29  C   UNL     1      -0.796   2.262   0.530  0.00  0.00    -0.059 A 
ATOM     30  C   UNL     1      -0.568   3.526   0.019  0.00  0.00    +0.003 A 
ATOM     31  C   UNL     1      -1.290   4.605   0.494  0.00  0.00    +0.020 A 
ATOM     32  C   UNL     1      -2.235   4.421   1.488  0.00  0.00    +0.041 A 
ATOM     33  C   UNL     1      -2.459   3.157   2.003  0.00  0.00    +0.020 A 
ATOM     34  C   UNL     1      -1.740   2.078   1.524  0.00  0.00    +0.003 A 
ATOM     35 CL   UNL     1      -3.137   5.777   2.090  0.00  0.00    -0.084 Cl
ENDBRANCH  20  29
ENDBRANCH  19  20
ENDBRANCH   1  19
TORSDOF 6
