REMARK  Name = ZINC38633766
REMARK  13 active torsions:
REMARK  status: ('A' for Active; 'I' for Inactive)
REMARK    1  A    between atoms: C_1  and  C_2
REMARK    2  A    between atoms: C_2  and  O_3
REMARK    3  A    between atoms: O_3  and  C_4
REMARK    4  A    between atoms: C_4  and  C_6
REMARK    5  A    between atoms: C_9  and  C_30
REMARK    6  A    between atoms: C_10  and  N_12
REMARK    7  A    between atoms: N_13  and  C_14
REMARK    8  A    between atoms: C_15  and  N_29
REMARK    9  A    between atoms: C_20  and  O_28
REMARK   10  A    between atoms: C_22  and  S_24
REMARK   11  A    between atoms: C_30  and  O_32
REMARK   12  A    between atoms: O_32  and  C_33
REMARK   13  A    between atoms: C_33  and  C_34
REMARK                            x       y       z     vdW  Elec       q    Type
REMARK                         _______ _______ _______ _____ _____    ______ ____
ROOT
ATOM      1  C   UNL     1       1.817  -7.552  -3.098  0.00  0.00    +0.118 A 
ATOM      2  C   UNL     1       3.051  -8.144  -3.401  0.00  0.00    +0.053 A 
ATOM      3  C   UNL     1       3.176  -9.535  -3.430  0.00  0.00    +0.025 A 
ATOM      4  C   UNL     1       2.124 -10.353  -3.170  0.00  0.00    +0.010 A 
ATOM      5  C   UNL     1       0.856  -9.825  -2.859  0.00  0.00    -0.010 A 
ATOM      6  C   UNL     1       0.677  -8.423  -2.810  0.00  0.00    +0.053 A 
ATOM      7  C   UNL     1      -0.585  -7.895  -2.495  0.00  0.00    +0.129 A 
ATOM      8  C   UNL     1      -1.632  -8.753  -2.231  0.00  0.00    +0.075 A 
ATOM      9  C   UNL     1      -1.447 -10.132  -2.276  0.00  0.00    +0.124 A 
ATOM     10  C   UNL     1      -0.235 -10.668  -2.591  0.00  0.00    +0.038 A 
ENDROOT
BRANCH   9  11
ATOM     11  S   UNL     1      -2.806 -11.200  -1.933  0.00  0.00    +0.140 S 
ATOM     12  O   UNL     1      -2.253 -12.414  -1.352  0.00  0.00    -0.140 OA
ATOM     13  O   UNL     1      -3.671 -10.496  -0.999  0.00  0.00    -0.140 OA
ATOM     14  O   UNL     1      -3.470 -11.458  -3.201  0.00  0.00    -0.043 OA
ENDBRANCH   9  11
BRANCH   2  15
ATOM     15  N   UNL     1       4.152  -7.346  -3.674  0.00  0.00    -0.356 N 
ATOM     16  H   UNL     1       4.091  -6.383  -3.568  0.00  0.00    +0.142 HD
ATOM     17  H   UNL     1       4.983  -7.750  -3.970  0.00  0.00    +0.142 HD
ENDBRANCH   2  15
BRANCH   1  19
ATOM     18  N   UNL     1       2.139  -5.493  -4.039  0.00  0.00    -0.148 NA
ATOM     19  N   UNL     1       1.685  -6.209  -3.066  0.00  0.00    -0.147 NA
BRANCH  18  24
ATOM     20  C   UNL     1       1.621  -2.120  -2.720  0.00  0.00    +0.061 A 
ATOM     21  C   UNL     1       2.019  -1.349  -3.815  0.00  0.00    +0.016 A 
ATOM     22  C   UNL     1       2.454  -1.956  -4.974  0.00  0.00    +0.018 A 
ATOM     23  C   UNL     1       2.499  -3.347  -5.061  0.00  0.00    +0.086 A 
ATOM     24  C   UNL     1       2.098  -4.132  -3.961  0.00  0.00    +0.101 A 
ATOM     25  C   UNL     1       1.665  -3.510  -2.789  0.00  0.00    +0.045 A 
BRANCH  20  26
ATOM     26  C   UNL     1       1.156  -1.458  -1.481  0.00  0.00    +0.339 C 
ATOM     27  O   UNL     1       0.814  -2.127  -0.527  0.00  0.00    -0.245 OA
BRANCH  26  28
ATOM     28  O   UNL     1       1.112  -0.114  -1.412  0.00  0.00    -0.461 OA
BRANCH  28  30
ATOM     29  C   UNL     1       0.673   1.984  -0.295  0.00  0.00    +0.048 C 
ATOM     30  C   UNL     1       0.653   0.458  -0.185  0.00  0.00    +0.229 C 
ENDBRANCH  28  30
ENDBRANCH  26  28
ENDBRANCH  20  26
BRANCH  23  31
ATOM     31  C   UNL     1       2.964  -3.995  -6.303  0.00  0.00    +0.341 C 
ATOM     32  O   UNL     1       3.098  -5.202  -6.345  0.00  0.00    -0.245 OA
BRANCH  31  33
ATOM     33  O   UNL     1       3.240  -3.249  -7.391  0.00  0.00    -0.461 OA
BRANCH  33  34
ATOM     34  C   UNL     1       3.685  -3.943  -8.558  0.00  0.00    +0.229 C 
ATOM     35  C   UNL     1       3.947  -2.937  -9.680  0.00  0.00    +0.048 C 
ENDBRANCH  33  34
ENDBRANCH  31  33
ENDBRANCH  23  31
ENDBRANCH  18  24
ENDBRANCH   1  19
BRANCH   7  36
ATOM     36  O   UNL     1      -0.773  -6.550  -2.449  0.00  0.00    -0.506 OA
ATOM     37  H   UNL     1      -1.042  -6.162  -3.293  0.00  0.00    +0.292 HD
ENDBRANCH   7  36
TORSDOF 11
