REMARK  Name = ZINC01430185
REMARK  1 active torsions:
REMARK  status: ('A' for Active; 'I' for Inactive)
REMARK    1  A    between atoms: C_10  and  C_16
REMARK                            x       y       z     vdW  Elec       q    Type
REMARK                         _______ _______ _______ _____ _____    ______ ____
ROOT
ATOM      1  C   UNL     1      -0.017   1.372   0.010  0.00  0.00    +0.002 A 
ATOM      2  C   UNL     1       1.170   2.091   0.002  0.00  0.00    +0.002 A 
ATOM      3  C   UNL     1       2.384   1.437  -0.012  0.00  0.00    +0.028 A 
ATOM      4  C   UNL     1       2.424   0.050  -0.019  0.00  0.00    +0.072 A 
ATOM      5  C   UNL     1       1.223  -0.683  -0.013  0.00  0.00    +0.091 A 
ATOM      6  C   UNL     1       0.002  -0.004   0.002  0.00  0.00    +0.030 A 
ATOM      7  N   UNL     1       1.555  -2.002  -0.027  0.00  0.00    -0.214 NA
ATOM      8  C   UNL     1       2.850  -2.125  -0.042  0.00  0.00    +0.205 A 
ATOM      9  N   UNL     1       3.436  -0.883  -0.029  0.00  0.00    -0.285 N 
ATOM     10  C   UNL     1       4.887  -0.668  -0.019  0.00  0.00    +0.244 C 
ATOM     11  N   UNL     1       5.532  -1.947  -0.373  0.00  0.00    -0.292 N 
ATOM     12  C   UNL     1       4.978  -3.114   0.134  0.00  0.00    +0.159 C 
ATOM     13  N   UNL     1       5.698  -3.997   0.766  0.00  0.00    -0.375 N 
ATOM     14  N   UNL     1       3.609  -3.293  -0.070  0.00  0.00    -0.259 N 
ATOM     15  H   UNL     1       6.317  -1.971  -0.941  0.00  0.00    +0.151 HD
ATOM     16  H   UNL     1       3.215  -4.167  -0.221  0.00  0.00    +0.158 HD
ATOM     17  H   UNL     1       6.648  -3.846   0.893  0.00  0.00    +0.158 HD
ATOM     18  H   UNL     1       5.284  -4.804   1.109  0.00  0.00    +0.158 HD
ENDROOT
BRANCH  10  19
ATOM     19  C   UNL     1       5.330  -0.234   1.354  0.00  0.00    +0.147 A 
ATOM     20  C   UNL     1       5.585   1.031   1.734  0.00  0.00    +0.049 A 
ATOM     21  C   UNL     1       5.967   0.980   3.095  0.00  0.00    +0.056 A 
ATOM     22  C   UNL     1       5.923  -0.313   3.464  0.00  0.00    +0.165 A 
ATOM     23  O   UNL     1       5.531  -1.043   2.407  0.00  0.00    -0.450 OA
ATOM     24  I   UNL     1       6.382  -1.060   5.367  0.00  0.00    -0.001 I 
ENDBRANCH  10  19
TORSDOF 1
