REMARK  Name = ZINC38937804
REMARK  5 active torsions:
REMARK  status: ('A' for Active; 'I' for Inactive)
REMARK    1  A    between atoms: C_1  and  C_2
REMARK    2  A    between atoms: C_2  and  C_3
REMARK    3  A    between atoms: C_5  and  C_17
REMARK    4  A    between atoms: C_7  and  C_15
REMARK    5  A    between atoms: C_8  and  N_14
REMARK                            x       y       z     vdW  Elec       q    Type
REMARK                         _______ _______ _______ _____ _____    ______ ____
ROOT
ATOM      1  C   UNL     1       0.707  -0.490  -1.238  0.00  0.00    +0.069 C 
ATOM      2  C   UNL     1       1.976  -0.816  -1.299  0.00  0.00    +0.030 C 
ATOM      3  C   UNL     1       3.122  -0.709  -0.330  0.00  0.00    +0.098 C 
ATOM      4  C   UNL     1       4.304  -0.225  -1.150  0.00  0.00    +0.097 C 
ATOM      5  C   UNL     1       4.251  -0.151  -2.496  0.00  0.00    +0.195 C 
ATOM      6  O   UNL     1       3.196  -0.449  -3.276  0.00  0.00    -0.448 OA
ATOM      7  C   UNL     1       2.192  -1.309  -2.730  0.00  0.00    +0.343 C 
ATOM      8  N   UNL     1       0.876  -1.077  -3.334  0.00  0.00    -0.138 NA
ATOM      9  N   UNL     1       0.119  -0.659  -2.450  0.00  0.00    -0.155 NA
ENDROOT
BRANCH   3  10
ATOM     10  C   UNL     1       3.420  -2.057   0.275  0.00  0.00    -0.035 A 
ATOM     11  C   UNL     1       3.788  -3.112  -0.538  0.00  0.00    +0.006 A 
ATOM     12  C   UNL     1       4.061  -4.349   0.016  0.00  0.00    +0.020 A 
ATOM     13  C   UNL     1       3.967  -4.529   1.384  0.00  0.00    +0.041 A 
ATOM     14  C   UNL     1       3.599  -3.472   2.197  0.00  0.00    +0.020 A 
ATOM     15  C   UNL     1       3.331  -2.235   1.643  0.00  0.00    +0.006 A 
ATOM     16 CL   UNL     1       4.310  -6.082   2.081  0.00  0.00    -0.084 Cl
ENDBRANCH   3  10
BRANCH   5  17
ATOM     17  N   UNL     1       5.389   0.272  -3.135  0.00  0.00    -0.329 N 
ATOM     18  H   UNL     1       6.179   0.499  -2.619  0.00  0.00    +0.145 HD
ATOM     19  H   UNL     1       5.405   0.343  -4.102  0.00  0.00    +0.145 HD
ENDBRANCH   5  17
BRANCH   1  21
ATOM     20  C   UNL     1      -0.019   1.526   0.010  0.00  0.00    +0.010 C 
ATOM     21  C   UNL     1       0.002  -0.004   0.002  0.00  0.00    +0.054 C 
ENDBRANCH   1  21
BRANCH   4  22
ATOM     22  C   UNL     1       5.507   0.163  -0.477  0.00  0.00    +0.101 C 
ATOM     23  N   UNL     1       6.461   0.471   0.057  0.00  0.00    -0.191 NA
ENDBRANCH   4  22
TORSDOF 4
