REMARK  Name = ZINC12036540
REMARK  12 active torsions:
REMARK  status: ('A' for Active; 'I' for Inactive)
REMARK    1  A    between atoms: C_1  and  C_2
REMARK    2  A    between atoms: C_7  and  C_8
REMARK    3  A    between atoms: C_8  and  C_9
REMARK    4  A    between atoms: C_9  and  C_21
REMARK    5  A    between atoms: N_12  and  C_16
REMARK    6  A    between atoms: C_16  and  C_17
REMARK    7  A    between atoms: C_17  and  C_18
REMARK    8  A    between atoms: C_18  and  N_80
REMARK    9  A    between atoms: C_19  and  N_80
REMARK   10  A    between atoms: C_20  and  N_80
REMARK   11  A    between atoms: C_27  and  C_29
REMARK   12  A    between atoms: C_29  and  C_35
REMARK                            x       y       z     vdW  Elec       q    Type
REMARK                         _______ _______ _______ _____ _____    ______ ____
ROOT
ATOM      1  C   UNL     1       0.170   6.385  -1.314  0.00  0.00    +0.119 C 
ATOM      2  C   UNL     1       0.834   7.628  -0.754  0.00  0.00    +0.247 C 
ATOM      3  O   UNL     1       0.464   8.294   0.188  0.00  0.00    -0.273 OA
ATOM      4  N   UNL     1       1.920   7.838  -1.523  0.00  0.00    -0.224 N 
ATOM      5  C   UNL     1       2.034   6.911  -2.481  0.00  0.00    +0.309 C 
ATOM      6  O   UNL     1       2.934   6.890  -3.298  0.00  0.00    -0.252 OA
ATOM      7  N   UNL     1       1.041   6.004  -2.439  0.00  0.00    -0.284 N 
ATOM      8  H   UNL     1       0.923   5.246  -3.033  0.00  0.00    +0.151 HD
ENDROOT
BRANCH   1   9
ATOM      9  C   UNL     1       0.132   5.274  -0.262  0.00  0.00    +0.025 C 
ATOM     10  C   UNL     1       1.549   5.014   0.255  0.00  0.00    +0.025 C 
ATOM     11  C   UNL     1       1.503   3.926   1.333  0.00  0.00    +0.108 C 
ATOM     12  N   UNL     1       0.835   2.740   0.779  0.00  0.00    -0.301 N 
ATOM     13  C   UNL     1      -0.492   2.897   0.169  0.00  0.00    +0.108 C 
ATOM     14  C   UNL     1      -0.426   3.996  -0.891  0.00  0.00    +0.025 C 
ATOM     15  C   UNL     1       1.431   1.532   0.825  0.00  0.00    +0.221 C 
ATOM     16  O   UNL     1       2.568   1.432   1.236  0.00  0.00    -0.275 OA
BRANCH  15  17
ATOM     17  C   UNL     1       0.686   0.306   0.365  0.00  0.00    +0.044 C 
ATOM     18  C   UNL     1      -0.653   0.218   1.100  0.00  0.00    +0.016 C 
ATOM     19  C   UNL     1      -0.403   0.128   2.607  0.00  0.00    +0.001 C 
ATOM     20  C   UNL     1       0.429  -1.119   2.912  0.00  0.00    +0.000 C 
ATOM     21  C   UNL     1       1.768  -1.031   2.177  0.00  0.00    +0.001 C 
ATOM     22  C   UNL     1       1.518  -0.941   0.670  0.00  0.00    +0.016 C 
ATOM     23  C   UNL     1       0.435   0.396  -1.142  0.00  0.00    +0.021 C 
ENDBRANCH  15  17
ENDBRANCH   1   9
BRANCH   1  24
ATOM     24  C   UNL     1      -1.242   6.702  -1.810  0.00  0.00    +0.071 C 
BRANCH  24  31
ATOM     25  C   UNL     1      -1.675   9.514  -1.307  0.00  0.00    +0.044 C 
ATOM     26  C   UNL     1      -1.373   9.036  -2.704  0.00  0.00    -0.047 A 
ATOM     27  C   UNL     1      -1.298   9.944  -3.744  0.00  0.00    +0.003 A 
ATOM     28  C   UNL     1      -1.025   9.505  -5.026  0.00  0.00    +0.000 A 
ATOM     29  C   UNL     1      -0.824   8.159  -5.268  0.00  0.00    +0.000 A 
ATOM     30  C   UNL     1      -0.894   7.252  -4.227  0.00  0.00    +0.004 A 
ATOM     31  C   UNL     1      -1.166   7.691  -2.945  0.00  0.00    -0.042 A 
ENDBRANCH  24  31
ENDBRANCH   1  24
BRANCH   4  32
ATOM     32  C   UNL     1       2.860   8.946  -1.334  0.00  0.00    +0.116 C 
BRANCH  32  33
ATOM     33  C   UNL     1       2.400  10.151  -2.157  0.00  0.00    +0.001 C 
BRANCH  33  34
ATOM     34  C   UNL     1       3.381  11.308  -1.959  0.00  0.00    -0.078 C 
BRANCH  34  37
ATOM     35  C   UNL     1       1.667  12.995  -2.239  0.00  0.00    -0.097 C 
ATOM     36  C   UNL     1       3.972  13.510  -2.775  0.00  0.00    -0.097 C 
ATOM     37  N   UNL     1       2.935  12.457  -2.776  0.00  0.00    +0.376 N 
ATOM     38  H   UNL     1       2.781  12.140  -3.740  0.00  0.00    -0.083 HD
ENDBRANCH  34  37
ENDBRANCH  33  34
ENDBRANCH  32  33
ENDBRANCH   4  32
TORSDOF 8
