REMARK  Name = ZINC67405107
REMARK  6 active torsions:
REMARK  status: ('A' for Active; 'I' for Inactive)
REMARK    1  A    between atoms: C_1  and  C_2
REMARK    2  A    between atoms: C_2  and  C_3
REMARK    3  A    between atoms: C_3  and  C_5
REMARK    4  A    between atoms: C_3  and  N_15
REMARK    5  A    between atoms: N_18  and  C_19
REMARK    6  A    between atoms: C_19  and  C_20
REMARK                            x       y       z     vdW  Elec       q    Type
REMARK                         _______ _______ _______ _____ _____    ______ ____
ROOT
ATOM      1  N   UNL     1      -0.055  -0.114  -2.441  0.00  0.00    -0.290 N 
ATOM      2  C   UNL     1       0.107   1.109  -2.984  0.00  0.00    +0.301 C 
ATOM      3  O   UNL     1       0.895   1.893  -2.492  0.00  0.00    -0.253 OA
ATOM      4  N   UNL     1      -0.604   1.462  -4.073  0.00  0.00    -0.292 N 
ATOM      5  H   UNL     1      -0.683  -0.740  -2.833  0.00  0.00    +0.151 HD
ATOM      6  H   UNL     1      -1.233   0.836  -4.466  0.00  0.00    +0.151 HD
ENDROOT
BRANCH   1   7
ATOM      7  C   UNL     1       0.718  -0.497  -1.257  0.00  0.00    +0.140 C 
BRANCH   7   8
ATOM      8  C   UNL     1       0.847  -1.998  -1.206  0.00  0.00    +0.129 A 
ATOM      9  N   UNL     1       0.413  -2.851  -2.172  0.00  0.00    -0.340 N 
ATOM     10  H   UNL     1      -0.027  -2.605  -3.001  0.00  0.00    +0.167 HD
ATOM     11  C   UNL     1       0.714  -4.132  -1.755  0.00  0.00    +0.066 A 
ATOM     12  C   UNL     1       0.523  -5.396  -2.298  0.00  0.00    +0.028 A 
ATOM     13  C   UNL     1       0.953  -6.508  -1.606  0.00  0.00    +0.002 A 
ATOM     14  C   UNL     1       1.572  -6.372  -0.372  0.00  0.00    +0.002 A 
ATOM     15  C   UNL     1       1.768  -5.137   0.178  0.00  0.00    +0.030 A 
ATOM     16  C   UNL     1       1.342  -3.995  -0.506  0.00  0.00    +0.089 A 
ATOM     17  N   UNL     1       1.396  -2.666  -0.233  0.00  0.00    -0.231 NA
ENDBRANCH   7   8
BRANCH   7  19
ATOM     18  C   UNL     1      -0.019   1.526   0.010  0.00  0.00    +0.006 C 
ATOM     19  C   UNL     1       0.002  -0.004   0.002  0.00  0.00    +0.027 C 
ENDBRANCH   7  19
ENDBRANCH   1   7
BRANCH   4  20
ATOM     20  C   UNL     1      -0.428   2.791  -4.664  0.00  0.00    +0.182 C 
BRANCH  20  21
ATOM     21  C   UNL     1      -1.332   2.932  -5.861  0.00  0.00    +0.151 A 
ATOM     22  N   UNL     1      -1.038   2.623  -7.098  0.00  0.00    -0.133 NA
ATOM     23  N   UNL     1      -2.047   2.872  -7.861  0.00  0.00    -0.134 NA
ATOM     24  C   UNL     1      -3.022   3.348  -7.147  0.00  0.00    +0.134 A 
ATOM     25  N   UNL     1      -2.597   3.394  -5.859  0.00  0.00    -0.314 N 
ATOM     26  C   UNL     1      -3.399   3.869  -4.731  0.00  0.00    +0.125 C 
ATOM     27  C   UNL     1      -4.585   4.674  -5.275  0.00  0.00    +0.022 C 
ATOM     28  C   UNL     1      -5.300   3.867  -6.362  0.00  0.00    +0.009 C 
ATOM     29  C   UNL     1      -4.394   3.780  -7.601  0.00  0.00    +0.076 C 
ENDBRANCH  20  21
ENDBRANCH   4  20
TORSDOF 5
