REMARK  Name = ZINC08750812
REMARK  7 active torsions:
REMARK  status: ('A' for Active; 'I' for Inactive)
REMARK    1  A    between atoms: C_1  and  C_2
REMARK    2  A    between atoms: C_2  and  C_3
REMARK    3  A    between atoms: C_2  and  C_4
REMARK    4  A    between atoms: C_4  and  C_6
REMARK    5  A    between atoms: C_4  and  N_16
REMARK    6  A    between atoms: C_17  and  C_19
REMARK    7  A    between atoms: C_19  and  N_20
REMARK                            x       y       z     vdW  Elec       q    Type
REMARK                         _______ _______ _______ _____ _____    ______ ____
ROOT
ATOM      1  N   UNL     1       3.603  -1.873  -0.942  0.00  0.00    -0.307 N 
ATOM      2  C   UNL     1       4.710  -2.382  -1.518  0.00  0.00    +0.231 C 
ATOM      3  O   UNL     1       5.793  -1.884  -1.297  0.00  0.00    -0.274 OA
ATOM      4  H   UNL     1       2.737  -2.271  -1.119  0.00  0.00    +0.149 HD
ENDROOT
BRANCH   1   5
ATOM      5  C   UNL     1       3.709  -0.717  -0.047  0.00  0.00    +0.106 C 
BRANCH   5   6
ATOM      6  C   UNL     1       2.397   0.024  -0.026  0.00  0.00    -0.023 A 
ATOM      7  C   UNL     1       1.207  -0.680  -0.016  0.00  0.00    +0.009 A 
ATOM      8  C   UNL     1       0.002  -0.004   0.002  0.00  0.00    +0.050 A 
ATOM      9  C   UNL     1      -0.017   1.383   0.010  0.00  0.00    +0.162 A 
ATOM     10  C   UNL     1       1.179   2.090   0.002  0.00  0.00    +0.162 A 
ATOM     11  C   UNL     1       2.386   1.406  -0.017  0.00  0.00    +0.055 A 
ATOM     12  O   UNL     1       1.184   3.451   0.018  0.00  0.00    -0.485 OA
ATOM     13  C   UNL     1      -0.040   4.103  -0.340  0.00  0.00    +0.270 C 
ATOM     14  C   UNL     1      -1.189   3.413   0.408  0.00  0.00    +0.270 C 
ATOM     15  O   UNL     1      -1.212   2.035   0.019  0.00  0.00    -0.485 OA
ENDBRANCH   5   6
BRANCH   5  17
ATOM     16  C   UNL     1       5.380  -1.948   1.345  0.00  0.00    +0.009 C 
ATOM     17  C   UNL     1       4.048  -1.196   1.366  0.00  0.00    +0.008 C 
ATOM     18  C   UNL     1       4.158   0.011   2.300  0.00  0.00    +0.009 C 
ENDBRANCH   5  17
ENDBRANCH   1   5
BRANCH   2  19
ATOM     19  C   UNL     1       4.601  -3.571  -2.438  0.00  0.00    +0.213 C 
BRANCH  19  20
ATOM     20  N   UNL     1       5.932  -3.930  -2.932  0.00  0.00    -0.215 N 
ATOM     21  C   UNL     1       6.758  -4.801  -2.318  0.00  0.00    +0.251 C 
ATOM     22  O   UNL     1       6.549  -5.413  -1.293  0.00  0.00    -0.272 OA
ATOM     23  C   UNL     1       8.001  -4.856  -3.178  0.00  0.00    +0.138 C 
ATOM     24  C   UNL     1       8.212  -6.265  -3.716  0.00  0.00    +0.040 C 
ATOM     25  C   UNL     1       8.693  -7.158  -2.566  0.00  0.00    +0.008 C 
ATOM     26  C   UNL     1      10.107  -6.728  -2.180  0.00  0.00    +0.035 C 
ATOM     27  C   UNL     1      10.163  -5.243  -1.933  0.00  0.00    -0.042 A 
ATOM     28  C   UNL     1       9.194  -4.380  -2.397  0.00  0.00    -0.012 A 
ATOM     29  C   UNL     1       9.307  -3.020  -2.142  0.00  0.00    +0.006 A 
ATOM     30  C   UNL     1      10.378  -2.527  -1.426  0.00  0.00    +0.000 A 
ATOM     31  C   UNL     1      11.348  -3.393  -0.958  0.00  0.00    +0.000 A 
ATOM     32  C   UNL     1      11.239  -4.745  -1.212  0.00  0.00    +0.004 A 
ATOM     33  N   UNL     1       7.711  -3.926  -4.279  0.00  0.00    -0.281 N 
ATOM     34  C   UNL     1       6.477  -3.438  -4.052  0.00  0.00    +0.310 C 
ATOM     35  O   UNL     1       5.922  -2.638  -4.779  0.00  0.00    -0.252 OA
ATOM     36  H   UNL     1       8.293  -3.710  -5.025  0.00  0.00    +0.152 HD
ENDBRANCH  19  20
ENDBRANCH   2  19
TORSDOF 5
