REMARK  Name = ZINC19320429
REMARK  9 active torsions:
REMARK  status: ('A' for Active; 'I' for Inactive)
REMARK    1  A    between atoms: C_1  and  C_2
REMARK    2  A    between atoms: C_6  and  C_36
REMARK    3  A    between atoms: C_12  and  C_13
REMARK    4  A    between atoms: C_16  and  O_19
REMARK    5  A    between atoms: O_19  and  P_20
REMARK    6  A    between atoms: P_20  and  O_22
REMARK    7  A    between atoms: P_20  and  O_29
REMARK    8  A    between atoms: O_22  and  C_23
REMARK    9  A    between atoms: O_29  and  C_30
REMARK                            x       y       z     vdW  Elec       q    Type
REMARK                         _______ _______ _______ _____ _____    ______ ____
ROOT
ATOM      1  C   UNL     1       1.461  -1.285   2.652  0.00  0.00    -0.047 A 
ATOM      2  C   UNL     1       0.298  -0.836   2.055  0.00  0.00    +0.007 A 
ATOM      3  C   UNL     1       0.306   0.328   1.310  0.00  0.00    +0.046 A 
ATOM      4  C   UNL     1       1.484   1.046   1.161  0.00  0.00    +0.134 A 
ATOM      5  C   UNL     1       2.650   0.593   1.761  0.00  0.00    +0.046 A 
ATOM      6  C   UNL     1       2.636  -0.571   2.505  0.00  0.00    +0.007 A 
ENDROOT
BRANCH   1  18
ATOM      7  C   UNL     1       0.505  -0.232   6.941  0.00  0.00    +0.018 C 
ATOM      8  C   UNL     1       0.823  -1.421   6.033  0.00  0.00    +0.025 C 
ATOM      9  C   UNL     1      -0.220  -1.571   4.912  0.00  0.00    -0.061 C 
ATOM     10  N   UNL     1       0.125  -2.732   4.081  0.00  0.00    +0.394 N 
ATOM     11  C   UNL     1       0.073  -4.002   4.838  0.00  0.00    -0.061 C 
ATOM     12  C   UNL     1       1.131  -3.959   5.954  0.00  0.00    +0.025 C 
ATOM     13  C   UNL     1       0.825  -2.734   6.807  0.00  0.00    +0.144 C 
ATOM     14  O   UNL     1       0.597  -2.798   7.992  0.00  0.00    -0.296 OA
ATOM     15  C   UNL     1       2.503  -3.715   5.305  0.00  0.00    +0.095 C 
ATOM     16  N   UNL     1       2.459  -2.468   4.529  0.00  0.00    -0.310 NA
ATOM     17  C   UNL     1       2.217  -1.297   5.381  0.00  0.00    +0.095 C 
ATOM     18  C   UNL     1       1.448  -2.554   3.464  0.00  0.00    +0.033 C 
ATOM     19  C   UNL     1       1.123  -5.242   6.787  0.00  0.00    +0.018 C 
ATOM     20  H   UNL     1      -0.633  -2.788   3.286  0.00  0.00    -0.079 HD
ENDBRANCH   1  18
BRANCH   4  21
ATOM     21  O   UNL     1       1.496   2.191   0.429  0.00  0.00    -0.386 OA
BRANCH  21  22
ATOM     22  P   UNL     1       1.071   3.503   1.259  0.00  0.00    +0.651 P 
ATOM     23  O   UNL     1      -0.214   3.255   1.951  0.00  0.00    -0.194 OA
BRANCH  22  24
ATOM     24  O   UNL     1       2.209   3.841   2.347  0.00  0.00    -0.386 OA
BRANCH  24  25
ATOM     25  C   UNL     1       3.366   4.310   1.808  0.00  0.00    +0.134 A 
ATOM     26  C   UNL     1       4.027   3.575   0.835  0.00  0.00    +0.046 A 
ATOM     27  C   UNL     1       5.200   4.055   0.286  0.00  0.00    +0.004 A 
ATOM     28  C   UNL     1       5.721   5.263   0.713  0.00  0.00    +0.000 A 
ATOM     29  C   UNL     1       5.067   5.994   1.687  0.00  0.00    +0.004 A 
ATOM     30  C   UNL     1       3.891   5.521   2.236  0.00  0.00    +0.046 A 
ENDBRANCH  24  25
ENDBRANCH  22  24
BRANCH  22  31
ATOM     31  O   UNL     1       0.906   4.747   0.250  0.00  0.00    -0.386 OA
BRANCH  31  32
ATOM     32  C   UNL     1       0.402   5.867   0.832  0.00  0.00    +0.134 A 
ATOM     33  C   UNL     1      -0.966   5.997   1.019  0.00  0.00    +0.046 A 
ATOM     34  C   UNL     1      -1.475   7.135   1.615  0.00  0.00    +0.004 A 
ATOM     35  C   UNL     1      -0.623   8.148   2.015  0.00  0.00    +0.000 A 
ATOM     36  C   UNL     1       0.741   8.023   1.824  0.00  0.00    +0.004 A 
ATOM     37  C   UNL     1       1.255   6.885   1.233  0.00  0.00    +0.046 A 
ENDBRANCH  31  32
ENDBRANCH  22  31
ENDBRANCH  21  22
ENDBRANCH   4  21
TORSDOF 7
