REMARK  Name = ZINC14972995
REMARK  11 active torsions:
REMARK  status: ('A' for Active; 'I' for Inactive)
REMARK    1  A    between atoms: C_1  and  C_2
REMARK    2  A    between atoms: C_2  and  C_4
REMARK    3  A    between atoms: C_2  and  N_14
REMARK    4  A    between atoms: C_15  and  C_17
REMARK    5  A    between atoms: C_17  and  O_18
REMARK    6  A    between atoms: O_18  and  C_19
REMARK    7  A    between atoms: C_22  and  C_28
REMARK    8  A    between atoms: C_24  and  C_25
REMARK    9  A    between atoms: C_25  and  N_63
REMARK   10  A    between atoms: C_26  and  N_63
REMARK   11  A    between atoms: C_27  and  N_63
REMARK                            x       y       z     vdW  Elec       q    Type
REMARK                         _______ _______ _______ _____ _____    ______ ____
ROOT
ATOM      1  O   UNL     1       8.098   3.823   1.811  0.00  0.00    -0.483 OA
ENDROOT
BRANCH   1   2
ATOM      2  C   UNL     1       9.163   4.527   2.277  0.00  0.00    +0.123 A 
ATOM      3  C   UNL     1       9.113   5.914   2.315  0.00  0.00    +0.046 A 
ATOM      4  C   UNL     1      10.191   6.631   2.792  0.00  0.00    +0.012 A 
ATOM      5  C   UNL     1      11.334   5.962   3.225  0.00  0.00    -0.017 A 
ATOM      6  C   UNL     1      11.383   4.569   3.181  0.00  0.00    +0.013 A 
ATOM      7  C   UNL     1      10.300   3.858   2.708  0.00  0.00    -0.022 A 
BRANCH   5   8
ATOM      8  C   UNL     1      12.497   6.730   3.734  0.00  0.00    -0.018 A 
ATOM      9  C   UNL     1      13.638   6.062   4.174  0.00  0.00    +0.008 A 
ATOM     10  C   UNL     1      14.720   6.782   4.640  0.00  0.00    +0.001 A 
ATOM     11  C   UNL     1      14.667   8.163   4.683  0.00  0.00    +0.000 A 
ATOM     12  C   UNL     1      13.535   8.831   4.253  0.00  0.00    +0.001 A 
ATOM     13  C   UNL     1      12.450   8.122   3.779  0.00  0.00    +0.008 A 
ENDBRANCH   5   8
BRANCH   7  14
ATOM     14  C   UNL     1      10.351   2.353   2.659  0.00  0.00    -0.040 C 
BRANCH  14  17
ATOM     15  C   UNL     1      10.951   0.478   1.248  0.00  0.00    -0.096 C 
ATOM     16  C   UNL     1       9.565   2.260   0.371  0.00  0.00    -0.096 C 
ATOM     17  N   UNL     1      10.682   1.931   1.282  0.00  0.00    +0.379 N 
ATOM     18  H   UNL     1      11.523   2.433   0.972  0.00  0.00    -0.082 HD
ENDBRANCH  14  17
ENDBRANCH   7  14
ENDBRANCH   1   2
BRANCH   1  19
ATOM     19  C   UNL     1       6.960   4.575   1.384  0.00  0.00    +0.324 C 
BRANCH  19  21
ATOM     20  N   UNL     1       4.715   4.121   0.450  0.00  0.00    -0.306 N 
ATOM     21  C   UNL     1       5.887   3.633   0.904  0.00  0.00    +0.251 C 
ATOM     22  O   UNL     1       6.077   2.435   0.925  0.00  0.00    -0.272 OA
ATOM     23  H   UNL     1       4.563   5.079   0.433  0.00  0.00    +0.149 HD
BRANCH  20  25
ATOM     24  C   UNL     1       3.898   2.885  -1.496  0.00  0.00    +0.033 C 
ATOM     25  C   UNL     1       3.671   3.205  -0.017  0.00  0.00    +0.101 C 
BRANCH  25  26
ATOM     26  C   UNL     1       2.321   3.851   0.157  0.00  0.00    -0.020 A 
ATOM     27  C   UNL     1       2.206   5.208   0.152  0.00  0.00    +0.006 A 
ATOM     28  C   UNL     1       0.967   5.823   0.311  0.00  0.00    +0.001 A 
ATOM     29  C   UNL     1      -0.166   5.086   0.475  0.00  0.00    +0.008 A 
ATOM     30  C   UNL     1      -0.087   3.683   0.484  0.00  0.00    -0.018 A 
ATOM     31  C   UNL     1       1.174   3.057   0.323  0.00  0.00    -0.013 A 
ATOM     32  C   UNL     1       1.253   1.654   0.333  0.00  0.00    +0.009 A 
ATOM     33  C   UNL     1       0.120   0.917   0.496  0.00  0.00    +0.001 A 
ATOM     34  C   UNL     1      -1.121   1.533   0.649  0.00  0.00    +0.001 A 
ATOM     35  C   UNL     1      -1.235   2.889   0.651  0.00  0.00    +0.008 A 
ENDBRANCH  25  26
ENDBRANCH  20  25
ENDBRANCH  19  21
ENDBRANCH   1  19
TORSDOF 8
