REMARK  Name = ZINC13799370
REMARK  9 active torsions:
REMARK  status: ('A' for Active; 'I' for Inactive)
REMARK    1  A    between atoms: C_1  and  C_2
REMARK    2  A    between atoms: C_5  and  C_8
REMARK    3  A    between atoms: C_9  and  S_10
REMARK    4  A    between atoms: S_10  and  N_13
REMARK    5  A    between atoms: N_13  and  C_14
REMARK    6  A    between atoms: C_14  and  C_15
REMARK    7  A    between atoms: C_15  and  C_16
REMARK    8  A    between atoms: C_16  and  N_17
REMARK    9  A    between atoms: C_22  and  C_24
REMARK                            x       y       z     vdW  Elec       q    Type
REMARK                         _______ _______ _______ _____ _____    ______ ____
ROOT
ATOM      1  C   UNL     1       0.132   5.755   1.474  0.00  0.00    +0.040 C 
ENDROOT
BRANCH   1   2
ATOM      2  C   UNL     1       0.180   7.285   1.482  0.00  0.00    +0.107 C 
BRANCH   2   3
ATOM      3  N   UNL     1       0.208   7.765   2.865  0.00  0.00    -0.190 NA
ATOM      4  H   UNL     1      -0.022   7.165   3.592  0.00  0.00    +0.148 HD
BRANCH   3   5
ATOM      5  S   UNL     1       0.631   9.333   3.189  0.00  0.00    +0.052 S 
ATOM      6  O   UNL     1       0.538   9.497   4.597  0.00  0.00    -0.154 OA
ATOM      7  O   UNL     1       1.830   9.587   2.470  0.00  0.00    -0.154 OA
BRANCH   5   9
ATOM      8  C   UNL     1      -1.380  11.108   3.260  0.00  0.00    +0.028 C 
ATOM      9  C   UNL     1      -0.609  10.364   2.479  0.00  0.00    +0.153 C 
BRANCH   8  14
ATOM     10  C   UNL     1      -5.430  14.475   0.942  0.00  0.00    +0.044 C 
ATOM     11  C   UNL     1      -4.369  13.593   1.549  0.00  0.00    -0.050 A 
ATOM     12  C   UNL     1      -4.202  13.562   2.922  0.00  0.00    +0.004 A 
ATOM     13  C   UNL     1      -3.233  12.757   3.484  0.00  0.00    +0.008 A 
ATOM     14  C   UNL     1      -2.420  11.973   2.665  0.00  0.00    -0.024 A 
ATOM     15  C   UNL     1      -2.589  12.014   1.280  0.00  0.00    +0.008 A 
ATOM     16  C   UNL     1      -3.566  12.819   0.731  0.00  0.00    +0.004 A 
ENDBRANCH   8  14
ENDBRANCH   5   9
ENDBRANCH   3   5
ENDBRANCH   2   3
ENDBRANCH   1   2
BRANCH   1  17
ATOM     17  C   UNL     1       0.103   5.253   0.029  0.00  0.00    +0.149 C 
BRANCH  17  18
ATOM     18  N   UNL     1       0.058   3.789   0.021  0.00  0.00    -0.229 N 
ATOM     19  C   UNL     1      -1.138   3.171   0.029  0.00  0.00    +0.267 A 
ATOM     20  O   UNL     1      -2.168   3.826   0.043  0.00  0.00    -0.266 OA
ATOM     21  C   UNL     1      -1.192   1.760   0.017  0.00  0.00    +0.074 A 
ATOM     22  C   UNL     1      -0.013   1.076   0.008  0.00  0.00    +0.035 A 
ATOM     23  C   UNL     1       1.192   1.818   0.000  0.00  0.00    +0.092 A 
ATOM     24  N   UNL     1       1.159   3.130   0.008  0.00  0.00    -0.168 NA
BRANCH  23  25
ATOM     25  C   UNL     1       2.495   1.111  -0.015  0.00  0.00    +0.002 A 
ATOM     26  C   UNL     1       2.535  -0.282  -0.017  0.00  0.00    +0.011 A 
ATOM     27  C   UNL     1       3.751  -0.935  -0.037  0.00  0.00    +0.020 A 
ATOM     28  C   UNL     1       4.929  -0.209  -0.045  0.00  0.00    +0.041 A 
ATOM     29  C   UNL     1       4.895   1.175  -0.037  0.00  0.00    +0.020 A 
ATOM     30  C   UNL     1       3.685   1.838  -0.023  0.00  0.00    +0.011 A 
ATOM     31 CL   UNL     1       6.455  -1.036  -0.063  0.00  0.00    -0.084 Cl
ENDBRANCH  23  25
ENDBRANCH  17  18
ENDBRANCH   1  17
TORSDOF 8
