REMARK  Name = ZINC17105523
REMARK  9 active torsions:
REMARK  status: ('A' for Active; 'I' for Inactive)
REMARK    1  A    between atoms: C_1  and  C_2
REMARK    2  A    between atoms: C_5  and  N_9
REMARK    3  A    between atoms: C_10  and  C_12
REMARK    4  A    between atoms: C_12  and  C_14
REMARK    5  A    between atoms: C_12  and  S_15
REMARK    6  A    between atoms: S_15  and  C_16
REMARK    7  A    between atoms: C_19  and  C_28
REMARK    8  A    between atoms: N_20  and  C_21
REMARK    9  A    between atoms: C_26  and  C_27
REMARK                            x       y       z     vdW  Elec       q    Type
REMARK                         _______ _______ _______ _____ _____    ______ ____
ROOT
ATOM      1  C   UNL     1      -4.134   0.063  -3.565  0.00  0.00    +0.137 C 
ATOM      2  C   UNL     1      -4.089  -1.439  -3.273  0.00  0.00    +0.029 C 
ENDROOT
BRANCH   1   4
ATOM      3  N   UNL     1      -5.179   0.239  -5.800  0.00  0.00    -0.284 N 
ATOM      4  C   UNL     1      -4.058   0.287  -5.054  0.00  0.00    +0.230 C 
ATOM      5  O   UNL     1      -2.988   0.510  -5.580  0.00  0.00    -0.274 OA
ATOM      6  H   UNL     1      -6.024  -0.003  -5.391  0.00  0.00    +0.155 HD
BRANCH   3  11
ATOM      7  C   UNL     1      -4.952   1.459 -11.337  0.00  0.00    +0.044 C 
ATOM      8  C   UNL     1      -5.013   1.135  -9.867  0.00  0.00    -0.049 A 
ATOM      9  C   UNL     1      -3.951   0.492  -9.257  0.00  0.00    +0.005 A 
ATOM     10  C   UNL     1      -4.003   0.194  -7.910  0.00  0.00    +0.024 A 
ATOM     11  C   UNL     1      -5.123   0.540  -7.166  0.00  0.00    +0.047 A 
ATOM     12  C   UNL     1      -6.191   1.181  -7.782  0.00  0.00    +0.039 A 
ATOM     13  C   UNL     1      -6.130   1.481  -9.130  0.00  0.00    +0.020 A 
ATOM     14 BR   UNL     1      -7.723   1.647  -6.776  0.00  0.00    -0.048 Br
ENDBRANCH   3  11
ENDBRANCH   1   4
BRANCH   1  15
ATOM     15  S   UNL     1      -2.731   0.876  -2.760  0.00  0.00    -0.073 S 
BRANCH  15  16
ATOM     16  C   UNL     1      -3.142   0.592  -1.071  0.00  0.00    +0.197 A 
ATOM     17  N   UNL     1      -4.196  -0.048  -0.620  0.00  0.00    -0.122 NA
ATOM     18  N   UNL     1      -4.183  -0.062   0.665  0.00  0.00    -0.133 NA
ATOM     19  C   UNL     1      -3.127   0.557   1.111  0.00  0.00    +0.135 A 
ATOM     20  N   UNL     1      -2.421   0.994   0.021  0.00  0.00    -0.274 N 
ATOM     21  C   UNL     1      -2.751   0.756   2.556  0.00  0.00    +0.088 C 
BRANCH  20  22
ATOM     22  C   UNL     1      -1.215   1.710   0.023  0.00  0.00    +0.053 A 
ATOM     23  C   UNL     1      -0.004   1.031   0.007  0.00  0.00    +0.026 A 
ATOM     24  C   UNL     1       1.182   1.738   0.003  0.00  0.00    +0.002 A 
ATOM     25  C   UNL     1       1.164   3.121   0.021  0.00  0.00    +0.000 A 
ATOM     26  C   UNL     1      -0.040   3.799   0.043  0.00  0.00    +0.005 A 
ATOM     27  C   UNL     1      -1.230   3.097   0.046  0.00  0.00    -0.027 A 
ATOM     28  C   UNL     1      -2.542   3.837   0.071  0.00  0.00    +0.046 C 
ENDBRANCH  20  22
ENDBRANCH  15  16
ENDBRANCH   1  15
TORSDOF 5
