REMARK  Name = ZINC16689262
REMARK  13 active torsions:
REMARK  status: ('A' for Active; 'I' for Inactive)
REMARK    1  A    between atoms: C_1  and  C_2
REMARK    2  A    between atoms: C_2  and  O_3
REMARK    3  A    between atoms: O_3  and  C_4
REMARK    4  A    between atoms: C_6  and  C_19
REMARK    5  A    between atoms: C_9  and  O_10
REMARK    6  A    between atoms: O_10  and  C_11
REMARK    7  A    between atoms: C_11  and  C_12
REMARK    8  A    between atoms: C_19  and  N_57
REMARK    9  A    between atoms: C_20  and  C_21
REMARK   10  A    between atoms: C_20  and  N_57
REMARK   11  A    between atoms: C_21  and  N_22
REMARK   12  A    between atoms: N_22  and  C_23
REMARK   13  A    between atoms: C_26  and  N_30
REMARK                            x       y       z     vdW  Elec       q    Type
REMARK                         _______ _______ _______ _____ _____    ______ ____
ROOT
ATOM      1  C   UNL     1      -2.369   1.252   2.957  0.00  0.00    +0.162 A 
ATOM      2  C   UNL     1      -1.719   0.807   1.817  0.00  0.00    +0.051 A 
ATOM      3  C   UNL     1      -0.718   1.572   1.248  0.00  0.00    -0.061 A 
ATOM      4  C   UNL     1      -0.359   2.779   1.817  0.00  0.00    +0.005 A 
ATOM      5  C   UNL     1      -1.006   3.232   2.952  0.00  0.00    +0.049 A 
ATOM      6  C   UNL     1      -2.010   2.470   3.527  0.00  0.00    +0.162 A 
ENDROOT
BRANCH   1   7
ATOM      7  O   UNL     1      -3.353   0.500   3.518  0.00  0.00    -0.489 OA
BRANCH   7   9
ATOM      8  C   UNL     1      -4.790  -1.438   3.647  0.00  0.00    +0.048 C 
ATOM      9  C   UNL     1      -3.668  -0.739   2.878  0.00  0.00    +0.226 C 
ENDBRANCH   7   9
ENDBRANCH   1   7
BRANCH   6  10
ATOM     10  O   UNL     1      -2.645   2.911   4.646  0.00  0.00    -0.484 OA
BRANCH  10  11
ATOM     11  C   UNL     1      -2.225   4.170   5.176  0.00  0.00    +0.266 C 
BRANCH  11  12
ATOM     12  C   UNL     1      -3.034   4.492   6.406  0.00  0.00    +0.008 A 
ATOM     13  C   UNL     1      -4.010   3.615   6.841  0.00  0.00    +0.008 A 
ATOM     14  C   UNL     1      -4.749   3.909   7.971  0.00  0.00    +0.000 A 
ATOM     15  C   UNL     1      -4.520   5.084   8.662  0.00  0.00    +0.001 A 
ATOM     16  C   UNL     1      -3.548   5.965   8.225  0.00  0.00    +0.020 A 
ATOM     17  C   UNL     1      -2.805   5.669   7.096  0.00  0.00    +0.047 A 
ATOM     18 CL   UNL     1      -1.585   6.774   6.546  0.00  0.00    -0.083 Cl
ENDBRANCH  11  12
ENDBRANCH  10  11
ENDBRANCH   6  10
BRANCH   3  19
ATOM     19  C   UNL     1      -0.013   1.086   0.008  0.00  0.00    -0.047 C 
BRANCH  19  20
ATOM     20  N   UNL     1      -0.732   1.579  -1.182  0.00  0.00    +0.383 N 
ATOM     21  H   UNL     1      -0.746   2.605  -1.168  0.00  0.00    -0.085 HD
ATOM     22  H   UNL     1      -1.695   1.223  -1.167  0.00  0.00    -0.085 HD
BRANCH  20  23
ATOM     23  C   UNL     1      -0.062   1.117  -2.413  0.00  0.00    -0.063 C 
BRANCH  23  24
ATOM     24  C   UNL     1      -0.829   1.643  -3.628  0.00  0.00    +0.082 C 
BRANCH  24  25
ATOM     25  N   UNL     1      -0.171   1.188  -4.855  0.00  0.00    -0.345 N 
ATOM     26  H   UNL     1       0.628   0.640  -4.802  0.00  0.00    +0.146 HD
BRANCH  25  27
ATOM     27  C   UNL     1      -0.692   1.545  -6.101  0.00  0.00    +0.046 A 
ATOM     28  C   UNL     1      -1.835   2.330  -6.178  0.00  0.00    +0.026 A 
ATOM     29  C   UNL     1      -2.348   2.681  -7.412  0.00  0.00    +0.034 A 
ATOM     30  C   UNL     1      -1.726   2.252  -8.570  0.00  0.00    +0.128 A 
ATOM     31  C   UNL     1      -0.587   1.470  -8.497  0.00  0.00    +0.054 A 
ATOM     32  C   UNL     1      -0.065   1.120  -7.266  0.00  0.00    +0.064 A 
ATOM     33 CL   UNL     1       1.368   0.145  -7.176  0.00  0.00    -0.082 Cl
BRANCH  30  34
ATOM     34  N   UNL     1      -2.278   2.631  -9.889  0.00  0.00    +0.056 N 
ATOM     35  O   UNL     1      -3.281   3.320  -9.955  0.00  0.00    -0.126 OA
ATOM     36  O   UNL     1      -1.731   2.254 -10.910  0.00  0.00    -0.126 OA
ENDBRANCH  30  34
ENDBRANCH  25  27
ENDBRANCH  24  25
ENDBRANCH  23  24
ENDBRANCH  20  23
ENDBRANCH  19  20
ENDBRANCH   3  19
TORSDOF 12
