REMARK  Name = ZINC59244667
REMARK  9 active torsions:
REMARK  status: ('A' for Active; 'I' for Inactive)
REMARK    1  A    between atoms: C_1  and  C_2
REMARK    2  A    between atoms: C_2  and  N_3
REMARK    3  A    between atoms: N_3  and  C_4
REMARK    4  A    between atoms: N_3  and  S_6
REMARK    5  A    between atoms: C_4  and  C_5
REMARK    6  A    between atoms: S_6  and  C_9
REMARK    7  A    between atoms: C_12  and  O_32
REMARK    8  A    between atoms: C_13  and  N_15
REMARK    9  A    between atoms: O_32  and  C_33
REMARK                            x       y       z     vdW  Elec       q    Type
REMARK                         _______ _______ _______ _____ _____    ______ ____
ROOT
ATOM      1  N   UNL     1       1.452   2.308  -6.242  0.00  0.00    -0.266 N 
ATOM      2  C   UNL     1       2.555   1.541  -6.351  0.00  0.00    +0.315 C 
ATOM      3  O   UNL     1       2.670   0.542  -5.667  0.00  0.00    -0.252 OA
ATOM      4  N   UNL     1       3.529   1.881  -7.218  0.00  0.00    -0.222 N 
ATOM      5  C   UNL     1       4.604   1.003  -7.413  0.00  0.00    +0.057 A 
ATOM      6  C   UNL     1       5.126   0.288  -6.347  0.00  0.00    +0.025 A 
ATOM      7  C   UNL     1       6.188  -0.575  -6.548  0.00  0.00    +0.002 A 
ATOM      8  C   UNL     1       6.736  -0.732  -7.807  0.00  0.00    +0.001 A 
ATOM      9  C   UNL     1       6.222  -0.022  -8.880  0.00  0.00    +0.017 A 
ATOM     10  C   UNL     1       5.160   0.841  -8.684  0.00  0.00    +0.035 A 
ATOM     11  S   UNL     1       4.484   1.759 -10.032  0.00  0.00    -0.086 S 
ATOM     12  C   UNL     1       3.853   3.200  -9.229  0.00  0.00    +0.035 A 
ATOM     13  C   UNL     1       3.437   3.099  -7.903  0.00  0.00    +0.057 A 
ATOM     14  C   UNL     1       2.936   4.224  -7.266  0.00  0.00    +0.025 A 
ATOM     15  C   UNL     1       2.850   5.424  -7.948  0.00  0.00    +0.002 A 
ATOM     16  C   UNL     1       3.261   5.513  -9.265  0.00  0.00    +0.001 A 
ATOM     17  C   UNL     1       3.767   4.404  -9.902  0.00  0.00    +0.017 A 
ATOM     18  H   UNL     1       1.325   3.062  -6.839  0.00  0.00    +0.157 HD
ENDROOT
BRANCH   1  23
ATOM     19  C   UNL     1      -0.632   0.429  -3.862  0.00  0.00    +0.107 A 
ATOM     20  C   UNL     1      -1.413   1.441  -3.336  0.00  0.00    +0.032 A 
ATOM     21  C   UNL     1      -1.248   2.743  -3.771  0.00  0.00    +0.049 A 
ATOM     22  C   UNL     1      -0.297   3.037  -4.735  0.00  0.00    +0.141 A 
ATOM     23  C   UNL     1       0.490   2.017  -5.266  0.00  0.00    +0.079 A 
ATOM     24  C   UNL     1       0.322   0.714  -4.821  0.00  0.00    +0.055 A 
BRANCH  19  25
ATOM     25  S   UNL     1      -0.848  -1.228  -3.303  0.00  0.00    +0.061 S 
ATOM     26  O   UNL     1      -0.367  -2.073  -4.340  0.00  0.00    -0.153 OA
ATOM     27  O   UNL     1      -2.174  -1.318  -2.801  0.00  0.00    -0.153 OA
BRANCH  25  28
ATOM     28  N   UNL     1       0.164  -1.444  -2.010  0.00  0.00    -0.177 NA
BRANCH  28  30
ATOM     29  C   UNL     1       0.094   0.268  -0.265  0.00  0.00    +0.022 C 
ATOM     30  C   UNL     1      -0.310  -1.156  -0.654  0.00  0.00    +0.106 C 
ENDBRANCH  28  30
BRANCH  28  31
ATOM     31  C   UNL     1       1.532  -1.924  -2.221  0.00  0.00    +0.106 C 
ATOM     32  C   UNL     1       1.573  -3.443  -2.042  0.00  0.00    +0.022 C 
ENDBRANCH  28  31
ENDBRANCH  25  28
ENDBRANCH  19  25
BRANCH  22  33
ATOM     33  O   UNL     1      -0.134   4.317  -5.164  0.00  0.00    -0.493 OA
ATOM     34  C   UNL     1      -0.977   5.310  -4.576  0.00  0.00    +0.277 C 
ENDBRANCH  22  33
ENDBRANCH   1  23
TORSDOF 6
