REMARK  Name = ZINC45845000
REMARK  5 active torsions:
REMARK  status: ('A' for Active; 'I' for Inactive)
REMARK    1  A    between atoms: C_3  and  C_24
REMARK    2  A    between atoms: C_5  and  N_7
REMARK    3  A    between atoms: N_7  and  N_8
REMARK    4  A    between atoms: N_11  and  C_12
REMARK    5  A    between atoms: C_12  and  C_13
REMARK                            x       y       z     vdW  Elec       q    Type
REMARK                         _______ _______ _______ _____ _____    ______ ____
ROOT
ATOM      1  N   UNL     1       0.019  -2.797  -0.014  0.00  0.00    -0.220 N 
ATOM      2  C   UNL     1       0.032  -4.144  -0.021  0.00  0.00    +0.316 C 
ATOM      3  O   UNL     1      -1.015  -4.762  -0.015  0.00  0.00    -0.251 OA
ATOM      4  N   UNL     1       1.206  -4.807  -0.037  0.00  0.00    -0.294 N 
ATOM      5  H   UNL     1      -0.825  -2.320  -0.003  0.00  0.00    +0.174 HD
ATOM      6  H   UNL     1       2.041  -4.314  -0.042  0.00  0.00    +0.151 HD
ENDROOT
BRANCH   1   7
ATOM      7  N   UNL     1       1.226  -2.085  -0.021  0.00  0.00    -0.263 N 
ATOM      8  H   UNL     1       2.071  -2.562  -0.032  0.00  0.00    +0.170 HD
BRANCH   7  13
ATOM      9  C   UNL     1      -0.017   1.378   0.010  0.00  0.00    +0.003 A 
ATOM     10  C   UNL     1       1.166   2.089   0.002  0.00  0.00    +0.019 A 
ATOM     11  C   UNL     1       2.388   1.412  -0.013  0.00  0.00    +0.054 A 
ATOM     12  C   UNL     1       2.406   0.017  -0.021  0.00  0.00    +0.043 A 
ATOM     13  C   UNL     1       1.213  -0.688  -0.013  0.00  0.00    +0.046 A 
ATOM     14  C   UNL     1       0.002  -0.004   0.002  0.00  0.00    +0.024 A 
BRANCH  11  15
ATOM     15  C   UNL     1       3.616   2.147  -0.021  0.00  0.00    +0.099 C 
ATOM     16  N   UNL     1       4.591   2.731  -0.028  0.00  0.00    -0.191 NA
ENDBRANCH  11  15
ENDBRANCH   7  13
ENDBRANCH   1   7
BRANCH   4  17
ATOM     17  C   UNL     1       1.220  -6.272  -0.045  0.00  0.00    +0.142 C 
BRANCH  17  18
ATOM     18  C   UNL     1       2.645  -6.761  -0.062  0.00  0.00    -0.014 A 
ATOM     19  C   UNL     1       3.299  -6.976  -1.268  0.00  0.00    +0.010 A 
ATOM     20  C   UNL     1       4.607  -7.425  -1.240  0.00  0.00    +0.042 A 
ATOM     21  C   UNL     1       5.220  -7.644  -0.010  0.00  0.00    +0.099 A 
ATOM     22  N   UNL     1       4.563  -7.427   1.119  0.00  0.00    -0.349 N 
ATOM     23  C   UNL     1       3.316  -6.994   1.121  0.00  0.00    +0.089 A 
ATOM     24  N   UNL     1       6.534  -8.095   0.034  0.00  0.00    -0.317 N 
ATOM     25  C   UNL     1       7.384  -8.372  -1.133  0.00  0.00    +0.106 C 
ATOM     26  C   UNL     1       8.743  -8.873  -0.601  0.00  0.00    +0.020 C 
ATOM     27  C   UNL     1       8.392  -9.389   0.819  0.00  0.00    +0.020 C 
ATOM     28  C   UNL     1       7.308  -8.370   1.258  0.00  0.00    +0.106 C 
ATOM     29  H   UNL     1       5.010  -7.587   1.965  0.00  0.00    +0.167 HD
ENDBRANCH  17  18
ENDBRANCH   4  17
TORSDOF 5
