REMARK  Name = ZINC33808222
REMARK  11 active torsions:
REMARK  status: ('A' for Active; 'I' for Inactive)
REMARK    1  A    between atoms: C_1  and  C_2
REMARK    2  A    between atoms: C_2  and  C_3
REMARK    3  A    between atoms: C_2  and  C_4
REMARK    4  A    between atoms: C_2  and  C_5
REMARK    5  A    between atoms: N_8  and  C_10
REMARK    6  A    between atoms: C_14  and  N_19
REMARK    7  A    between atoms: N_19  and  C_20
REMARK    8  A    between atoms: C_20  and  N_22
REMARK    9  A    between atoms: N_22  and  C_23
REMARK   10  A    between atoms: C_28  and  O_29
REMARK   11  A    between atoms: O_29  and  C_30
REMARK                            x       y       z     vdW  Elec       q    Type
REMARK                         _______ _______ _______ _____ _____    ______ ____
ROOT
ATOM      1  C   UNL     1       4.673  -3.071  -0.735  0.00  0.00    +0.080 A 
ATOM      2  C   UNL     1       4.158  -1.770  -0.600  0.00  0.00    +0.071 A 
ATOM      3  C   UNL     1       2.793  -1.836  -0.857  0.00  0.00    +0.080 A 
ATOM      4  N   UNL     1       2.505  -3.125  -1.134  0.00  0.00    -0.266 N 
ATOM      5  N   UNL     1       3.687  -3.869  -1.052  0.00  0.00    -0.175 NA
ATOM      6  C   UNL     1       1.180  -3.655  -1.465  0.00  0.00    +0.173 C 
ATOM      7  C   UNL     1       2.211  -0.480  -0.725  0.00  0.00    +0.012 A 
ATOM      8  C   UNL     1       0.912  -0.008  -0.876  0.00  0.00    +0.012 A 
ATOM      9  C   UNL     1       0.635   1.336  -0.692  0.00  0.00    +0.024 A 
ATOM     10  C   UNL     1       1.649   2.221  -0.355  0.00  0.00    +0.033 A 
ATOM     11  C   UNL     1       2.957   1.760  -0.200  0.00  0.00    +0.035 A 
ATOM     12  C   UNL     1       3.239   0.417  -0.383  0.00  0.00    +0.033 A 
ATOM     13  C   UNL     1       4.500  -0.365  -0.293  0.00  0.00    +0.198 C 
ATOM     14  O   UNL     1       5.601   0.068  -0.020  0.00  0.00    -0.286 OA
ENDROOT
BRANCH   1  16
ATOM     15  C   UNL     1       6.554  -3.142   0.880  0.00  0.00    +0.017 C 
ATOM     16  C   UNL     1       6.113  -3.477  -0.546  0.00  0.00    +0.007 C 
ATOM     17  C   UNL     1       6.254  -4.981  -0.783  0.00  0.00    +0.017 C 
ATOM     18  C   UNL     1       6.991  -2.718  -1.543  0.00  0.00    +0.017 C 
ENDBRANCH   1  16
BRANCH  10  19
ATOM     19  N   UNL     1       1.360   3.575  -0.170  0.00  0.00    -0.297 N 
ATOM     20  H   UNL     1       0.724   4.105  -0.894  0.00  0.00    +0.154 HD
BRANCH  19  21
ATOM     21  C   UNL     1       1.860   4.231   0.895  0.00  0.00    +0.139 C 
ATOM     22  S   UNL     1       2.937   3.437   1.962  0.00  0.00    -0.018 S 
BRANCH  21  23
ATOM     23  N   UNL     1       1.512   5.514   1.120  0.00  0.00    -0.294 N 
ATOM     24  H   UNL     1       0.758   5.999   0.483  0.00  0.00    +0.154 HD
BRANCH  23  25
ATOM     25  C   UNL     1       2.112   6.229   2.165  0.00  0.00    +0.076 A 
ATOM     26  C   UNL     1       2.178   5.678   3.437  0.00  0.00    +0.047 A 
ATOM     27  C   UNL     1       2.775   6.384   4.465  0.00  0.00    +0.043 A 
ATOM     28  C   UNL     1       3.298   7.644   4.231  0.00  0.00    +0.024 A 
ATOM     29  C   UNL     1       3.230   8.201   2.968  0.00  0.00    +0.049 A 
ATOM     30  C   UNL     1       2.638   7.497   1.931  0.00  0.00    +0.141 A 
ATOM     31 CL   UNL     1       2.864   5.690   6.054  0.00  0.00    -0.083 Cl
BRANCH  30  32
ATOM     32  O   UNL     1       2.571   8.044   0.688  0.00  0.00    -0.493 OA
ATOM     33  C   UNL     1       3.131   9.348   0.522  0.00  0.00    +0.277 C 
ENDBRANCH  30  32
ENDBRANCH  23  25
ENDBRANCH  21  23
ENDBRANCH  19  21
ENDBRANCH  10  19
TORSDOF 6
