REMARK  Name = ZINC41014097
REMARK  8 active torsions:
REMARK  status: ('A' for Active; 'I' for Inactive)
REMARK    1  A    between atoms: C_1  and  C_2
REMARK    2  A    between atoms: C_4  and  C_28
REMARK    3  A    between atoms: C_6  and  O_8
REMARK    4  A    between atoms: O_8  and  C_9
REMARK    5  A    between atoms: C_9  and  C_11
REMARK    6  A    between atoms: C_9  and  C_12
REMARK    7  A    between atoms: N_14  and  C_15
REMARK    8  A    between atoms: C_24  and  C_27
REMARK                            x       y       z     vdW  Elec       q    Type
REMARK                         _______ _______ _______ _____ _____    ______ ____
ROOT
ATOM      1  C   UNL     1      -0.590  -2.732   4.679  0.00  0.00    +0.258 C 
ATOM      2  O   UNL     1      -1.114  -3.808   4.489  0.00  0.00    -0.271 OA
ATOM      3  N   UNL     1      -0.540  -2.216   5.924  0.00  0.00    -0.282 N 
ATOM      4  H   UNL     1      -0.189  -1.323   6.065  0.00  0.00    +0.155 HD
ENDROOT
BRANCH   3   5
ATOM      5  C   UNL     1      -0.994  -2.971   7.013  0.00  0.00    +0.035 A 
ATOM      6  C   UNL     1      -0.844  -4.351   7.012  0.00  0.00    +0.027 A 
ATOM      7  C   UNL     1      -1.291  -5.100   8.085  0.00  0.00    +0.049 A 
ATOM      8  C   UNL     1      -1.889  -4.473   9.164  0.00  0.00    +0.143 A 
ATOM      9  C   UNL     1      -2.042  -3.088   9.168  0.00  0.00    +0.077 A 
ATOM     10  C   UNL     1      -1.589  -2.337   8.096  0.00  0.00    +0.050 A 
ATOM     11  N   UNL     1      -2.652  -2.469  10.268  0.00  0.00    -0.279 N 
ATOM     12  C   UNL     1      -2.790  -3.164  11.418  0.00  0.00    +0.258 C 
ATOM     13  O   UNL     1      -3.341  -2.659  12.373  0.00  0.00    -0.271 OA
ATOM     14  C   UNL     1      -2.255  -4.570  11.509  0.00  0.00    +0.256 C 
ATOM     15  O   UNL     1      -2.332  -5.198  10.227  0.00  0.00    -0.478 OA
ATOM     16  C   UNL     1      -3.087  -5.367  12.517  0.00  0.00    +0.062 C 
ATOM     17  H   UNL     1      -2.971  -1.554  10.204  0.00  0.00    +0.155 HD
ENDBRANCH   3   5
BRANCH   1  18
ATOM     18  C   UNL     1       0.006  -1.969   3.524  0.00  0.00    +0.256 C 
ATOM     19  C   UNL     1       1.520  -1.858   3.713  0.00  0.00    +0.062 C 
BRANCH  18  20
ATOM     20  O   UNL     1      -0.272  -2.659   2.304  0.00  0.00    -0.480 OA
BRANCH  20  26
ATOM     21  C   UNL     1      -1.077  -2.374  -2.502  0.00  0.00    +0.044 C 
ATOM     22  C   UNL     1      -0.669  -1.744  -1.195  0.00  0.00    -0.047 A 
ATOM     23  C   UNL     1      -0.307  -0.410  -1.154  0.00  0.00    +0.007 A 
ATOM     24  C   UNL     1       0.066   0.171   0.043  0.00  0.00    -0.047 A 
ATOM     25  C   UNL     1       0.079  -0.580   1.203  0.00  0.00    +0.049 A 
ATOM     26  C   UNL     1      -0.284  -1.919   1.165  0.00  0.00    +0.122 A 
ATOM     27  C   UNL     1      -0.664  -2.498  -0.037  0.00  0.00    +0.049 A 
ATOM     28  C   UNL     1       0.460   1.625   0.084  0.00  0.00    +0.044 C 
ENDBRANCH  20  26
ENDBRANCH  18  20
ENDBRANCH   1  18
TORSDOF 4
