REMARK  Name = ZINC09356475
REMARK  8 active torsions:
REMARK  status: ('A' for Active; 'I' for Inactive)
REMARK    1  A    between atoms: C_1  and  C_2
REMARK    2  A    between atoms: C_5  and  N_8
REMARK    3  A    between atoms: N_8  and  S_9
REMARK    4  A    between atoms: S_9  and  C_12
REMARK    5  A    between atoms: C_15  and  N_18
REMARK    6  A    between atoms: C_19  and  C_21
REMARK    7  A    between atoms: N_26  and  C_28
REMARK    8  A    between atoms: C_33  and  C_34
REMARK                            x       y       z     vdW  Elec       q    Type
REMARK                         _______ _______ _______ _____ _____    ______ ____
ROOT
ATOM      1  C   UNL     1     -10.226   3.235  -0.205  0.00  0.00    +0.109 A 
ATOM      2  C   UNL     1     -10.322   2.404  -1.307  0.00  0.00    +0.030 A 
ATOM      3  C   UNL     1      -9.182   1.856  -1.861  0.00  0.00    +0.025 A 
ATOM      4  C   UNL     1      -7.939   2.139  -1.310  0.00  0.00    +0.034 A 
ATOM      5  C   UNL     1      -7.846   2.970  -0.201  0.00  0.00    +0.025 A 
ATOM      6  C   UNL     1      -8.990   3.520   0.345  0.00  0.00    +0.030 A 
ENDROOT
BRANCH   4   7
ATOM      7  N   UNL     1      -6.782   1.585  -1.869  0.00  0.00    -0.285 N 
ATOM      8  C   UNL     1      -5.626   2.278  -1.851  0.00  0.00    +0.222 C 
ATOM      9  O   UNL     1      -5.608   3.417  -1.436  0.00  0.00    -0.275 OA
ATOM     10  H   UNL     1      -6.811   0.702  -2.269  0.00  0.00    +0.155 HD
BRANCH   8  11
ATOM     11  C   UNL     1      -4.355   1.636  -2.345  0.00  0.00    +0.102 C 
ATOM     12  C   UNL     1      -3.913   0.487  -1.409  0.00  0.00    +0.110 C 
ATOM     13  C   UNL     1      -2.949   1.142  -0.445  0.00  0.00    +0.221 C 
ATOM     14  O   UNL     1      -2.587   0.663   0.608  0.00  0.00    -0.275 OA
ATOM     15  N   UNL     1      -2.553   2.334  -0.925  0.00  0.00    -0.270 N 
ATOM     16  C   UNL     1      -3.163   2.612  -2.231  0.00  0.00    +0.127 C 
BRANCH  15  17
ATOM     17  C   UNL     1      -1.670   3.196  -0.266  0.00  0.00    +0.039 A 
ATOM     18  C   UNL     1      -2.158   4.156   0.611  0.00  0.00    +0.024 A 
ATOM     19  C   UNL     1      -1.284   5.009   1.255  0.00  0.00    +0.002 A 
ATOM     20  C   UNL     1       0.077   4.905   1.031  0.00  0.00    +0.000 A 
ATOM     21  C   UNL     1       0.567   3.948   0.162  0.00  0.00    +0.005 A 
ATOM     22  C   UNL     1      -0.303   3.092  -0.485  0.00  0.00    -0.029 A 
ATOM     23  C   UNL     1       0.232   2.049  -1.433  0.00  0.00    +0.045 C 
ENDBRANCH  15  17
ENDBRANCH   8  11
ENDBRANCH   4   7
BRANCH   1  24
ATOM     24  S   UNL     1     -11.683   3.934   0.498  0.00  0.00    +0.072 S 
ATOM     25  O   UNL     1     -11.300   5.174   1.076  0.00  0.00    -0.150 OA
ATOM     26  O   UNL     1     -12.699   3.836  -0.491  0.00  0.00    -0.150 OA
BRANCH  24  27
ATOM     27  N   UNL     1     -12.143   2.950   1.748  0.00  0.00    -0.216 N 
ATOM     28  H   UNL     1     -12.158   3.294   2.655  0.00  0.00    +0.174 HD
BRANCH  27  33
ATOM     29  C   UNL     1     -13.638  -2.424   0.727  0.00  0.00    +0.044 C 
ATOM     30  C   UNL     1     -13.241  -0.996   0.998  0.00  0.00    -0.050 A 
ATOM     31  C   UNL     1     -12.393  -0.703   2.051  0.00  0.00    +0.005 A 
ATOM     32  C   UNL     1     -12.027   0.605   2.303  0.00  0.00    +0.025 A 
ATOM     33  C   UNL     1     -12.511   1.627   1.496  0.00  0.00    +0.048 A 
ATOM     34  C   UNL     1     -13.366   1.330   0.442  0.00  0.00    +0.025 A 
ATOM     35  C   UNL     1     -13.724   0.020   0.193  0.00  0.00    +0.005 A 
ENDBRANCH  27  33
ENDBRANCH  24  27
ENDBRANCH   1  24
TORSDOF 6
