REMARK  Name = ZINC01886011
REMARK  9 active torsions:
REMARK  status: ('A' for Active; 'I' for Inactive)
REMARK    1  A    between atoms: C_1  and  O_2
REMARK    2  A    between atoms: O_2  and  C_3
REMARK    3  A    between atoms: C_3  and  C_5
REMARK    4  A    between atoms: C_5  and  C_36
REMARK    5  A    between atoms: C_6  and  C_30
REMARK    6  A    between atoms: C_8  and  C_20
REMARK    7  A    between atoms: C_20  and  C_22
REMARK    8  A    between atoms: C_36  and  O_38
REMARK    9  A    between atoms: O_38  and  C_39
REMARK                            x       y       z     vdW  Elec       q    Type
REMARK                         _______ _______ _______ _____ _____    ______ ____
ROOT
ATOM      1  C   UNL     1       1.280   1.838   0.173  0.00  0.00    +0.193 C 
ATOM      2  C   UNL     1       0.071   0.975  -0.277  0.00  0.00    +0.075 C 
ATOM      3  C   UNL     1      -0.740   0.854   1.042  0.00  0.00    +0.137 C 
ATOM      4  C   UNL     1       0.697   2.747   1.268  0.00  0.00    +0.116 C 
ATOM      5  C   UNL     1       0.437   4.134   0.739  0.00  0.00    -0.020 A 
ATOM      6  C   UNL     1       1.282   4.716  -0.177  0.00  0.00    +0.006 A 
ATOM      7  C   UNL     1       1.018   5.990  -0.651  0.00  0.00    +0.000 A 
ATOM      8  C   UNL     1      -0.095   6.682  -0.207  0.00  0.00    +0.001 A 
ATOM      9  C   UNL     1      -0.949   6.111   0.713  0.00  0.00    +0.008 A 
ATOM     10  C   UNL     1      -0.689   4.828   1.199  0.00  0.00    -0.019 A 
ATOM     11  C   UNL     1      -1.591   4.215   2.196  0.00  0.00    +0.022 C 
ATOM     12  C   UNL     1      -1.544   2.882   2.397  0.00  0.00    +0.054 C 
ATOM     13  N   UNL     1      -0.391   2.038   1.886  0.00  0.00    -0.383 NA
ATOM     14  H   UNL     1       0.014   1.641   2.742  0.00  0.00    +0.127 HD
ENDROOT
BRANCH   2  15
ATOM     15  C   UNL     1      -0.730   1.682  -1.340  0.00  0.00    -0.040 A 
ATOM     16  C   UNL     1      -1.575   2.719  -0.993  0.00  0.00    +0.004 A 
ATOM     17  C   UNL     1      -2.306   3.371  -1.969  0.00  0.00    +0.000 A 
ATOM     18  C   UNL     1      -2.200   2.977  -3.290  0.00  0.00    +0.000 A 
ATOM     19  C   UNL     1      -1.359   1.936  -3.636  0.00  0.00    +0.000 A 
ATOM     20  C   UNL     1      -0.624   1.288  -2.661  0.00  0.00    +0.004 A 
ENDBRANCH   2  15
BRANCH   1  21
ATOM     21  C   UNL     1       2.373   0.966   0.736  0.00  0.00    +0.327 C 
ATOM     22  O   UNL     1       2.224  -0.232   0.784  0.00  0.00    -0.250 OA
BRANCH  21  24
ATOM     23  C   UNL     1       4.519   0.619   1.712  0.00  0.00    +0.280 C 
ATOM     24  O   UNL     1       3.510   1.520   1.183  0.00  0.00    -0.467 OA
ENDBRANCH  21  24
ENDBRANCH   1  21
BRANCH   3  25
ATOM     25  C   UNL     1      -0.137  -0.196   1.940  0.00  0.00    +0.184 C 
ATOM     26  O   UNL     1       0.503   0.135   2.915  0.00  0.00    -0.290 OA
BRANCH  25  27
ATOM     27  C   UNL     1      -0.326  -1.622   1.634  0.00  0.00    +0.038 A 
ATOM     28  C   UNL     1      -1.065  -2.008   0.510  0.00  0.00    +0.014 A 
ATOM     29  C   UNL     1      -1.237  -3.345   0.229  0.00  0.00    +0.021 A 
ATOM     30  C   UNL     1      -0.682  -4.309   1.056  0.00  0.00    +0.042 A 
ATOM     31  C   UNL     1       0.051  -3.936   2.171  0.00  0.00    +0.040 A 
ATOM     32  C   UNL     1       0.237  -2.600   2.462  0.00  0.00    +0.053 A 
ATOM     33 CL   UNL     1       1.161  -2.134   3.857  0.00  0.00    -0.083 Cl
ATOM     34 CL   UNL     1      -0.905  -5.992   0.693  0.00  0.00    -0.083 Cl
ENDBRANCH  25  27
ENDBRANCH   3  25
BRANCH   1  35
ATOM     35  C   UNL     1       1.801   2.659  -0.978  0.00  0.00    +0.327 C 
ATOM     36  O   UNL     1       1.030   3.144  -1.773  0.00  0.00    -0.250 OA
BRANCH  35  37
ATOM     37  O   UNL     1       3.122   2.853  -1.121  0.00  0.00    -0.467 OA
ATOM     38  C   UNL     1       3.560   3.551  -2.317  0.00  0.00    +0.280 C 
ENDBRANCH  35  37
ENDBRANCH   1  35
TORSDOF 7
