REMARK  Name = ZINC51477118
REMARK  9 active torsions:
REMARK  status: ('A' for Active; 'I' for Inactive)
REMARK    1  A    between atoms: C_1  and  C_2
REMARK    2  A    between atoms: C_2  and  C_3
REMARK    3  A    between atoms: C_2  and  N_4
REMARK    4  A    between atoms: N_4  and  C_5
REMARK    5  A    between atoms: N_4  and  C_9
REMARK    6  A    between atoms: C_5  and  C_6
REMARK    7  A    between atoms: C_9  and  C_10
REMARK    8  A    between atoms: N_12  and  C_13
REMARK    9  A    between atoms: C_19  and  C_21
REMARK                            x       y       z     vdW  Elec       q    Type
REMARK                         _______ _______ _______ _____ _____    ______ ____
ROOT
ATOM      1  C   UNL     1      -4.094   0.278  -0.387  0.00  0.00    +0.197 C 
ATOM      2  O   UNL     1      -3.094   0.933  -0.184  0.00  0.00    -0.278 OA
ATOM      3  N   UNL     1      -5.150   0.836  -1.011  0.00  0.00    -0.314 N 
ATOM      4  H   UNL     1      -5.950   0.312  -1.173  0.00  0.00    +0.149 HD
ENDROOT
BRANCH   3   5
ATOM      5  C   UNL     1      -5.090   2.234  -1.444  0.00  0.00    +0.076 C 
ATOM      6  C   UNL     1      -5.481   3.146  -0.279  0.00  0.00    +0.041 C 
ATOM      7  C   UNL     1      -5.383   4.608  -0.725  0.00  0.00    +0.109 C 
ATOM      8  N   UNL     1      -6.200   4.790  -1.933  0.00  0.00    -0.301 N 
ATOM      9  C   UNL     1      -5.968   3.904  -3.082  0.00  0.00    +0.109 C 
ATOM     10  C   UNL     1      -6.059   2.450  -2.609  0.00  0.00    +0.041 C 
ATOM     11  C   UNL     1      -7.144   5.750  -1.986  0.00  0.00    +0.219 C 
ATOM     12  O   UNL     1      -7.252   6.545  -1.076  0.00  0.00    -0.275 OA
BRANCH  11  13
ATOM     13  C   UNL     1      -8.065   5.837  -3.175  0.00  0.00    +0.075 C 
ATOM     14  C   UNL     1      -7.288   6.361  -4.385  0.00  0.00    +0.013 C 
ATOM     15  C   UNL     1      -8.223   6.449  -5.593  0.00  0.00    +0.001 C 
ATOM     16  C   UNL     1      -9.377   7.402  -5.276  0.00  0.00    +0.000 C 
ATOM     17  C   UNL     1     -10.154   6.877  -4.067  0.00  0.00    +0.001 C 
ATOM     18  C   UNL     1      -9.219   6.789  -2.859  0.00  0.00    +0.013 C 
ENDBRANCH  11  13
ENDBRANCH   3   5
BRANCH   1  19
ATOM     19  C   UNL     1      -4.156  -1.161   0.058  0.00  0.00    +0.020 C 
BRANCH  19  20
ATOM     20  N   UNL     1      -2.900  -1.520   0.731  0.00  0.00    +0.393 N 
ATOM     21  H   UNL     1      -2.710  -0.854   1.465  0.00  0.00    -0.080 HD
BRANCH  20  23
ATOM     22  C   UNL     1      -0.506  -1.947   0.441  0.00  0.00    -0.013 C 
ATOM     23  C   UNL     1      -1.801  -1.502  -0.243  0.00  0.00    -0.074 C 
ATOM     24  C   UNL     1      -2.124  -2.458  -1.394  0.00  0.00    -0.013 C 
ENDBRANCH  20  23
BRANCH  20  25
ATOM     25  C   UNL     1      -3.022  -2.865   1.309  0.00  0.00    +0.019 C 
BRANCH  25  26
ATOM     26  C   UNL     1      -2.076  -2.998   2.475  0.00  0.00    +0.194 C 
ATOM     27  O   UNL     1      -1.464  -2.029   2.872  0.00  0.00    -0.278 OA
ATOM     28  N   UNL     1      -1.912  -4.192   3.076  0.00  0.00    -0.331 N 
ATOM     29  H   UNL     1      -2.402  -4.967   2.758  0.00  0.00    +0.145 HD
ATOM     30  H   UNL     1      -1.303  -4.278   3.827  0.00  0.00    +0.145 HD
ENDBRANCH  25  26
ENDBRANCH  20  25
ENDBRANCH  19  20
ENDBRANCH   1  19
TORSDOF 7
