REMARK  Name = ZINC04679999
REMARK  4 active torsions:
REMARK  status: ('A' for Active; 'I' for Inactive)
REMARK    1  A    between atoms: C_1  and  O_2
REMARK    2  A    between atoms: O_2  and  C_3
REMARK    3  A    between atoms: C_6  and  N_7
REMARK    4  A    between atoms: N_7  and  N_8
REMARK                            x       y       z     vdW  Elec       q    Type
REMARK                         _______ _______ _______ _____ _____    ______ ____
ROOT
ATOM      1  N   UNL     1      -5.970  -0.457  -0.058  0.00  0.00    -0.272 N 
ATOM      2  H   UNL     1      -6.008  -1.427  -0.059  0.00  0.00    +0.169 HD
ENDROOT
BRANCH   1   3
ATOM      3  N   UNL     1      -7.151   0.290  -0.154  0.00  0.00    -0.245 N 
ATOM      4  C   UNL     1      -8.369  -0.352  -0.251  0.00  0.00    +0.176 A 
ATOM      5  N   UNL     1      -8.621  -1.641  -0.262  0.00  0.00    -0.224 NA
ATOM      6  C   UNL     1      -9.876  -2.134  -0.363  0.00  0.00    +0.080 A 
ATOM      7  C   UNL     1     -10.282  -3.488  -0.387  0.00  0.00    +0.029 A 
ATOM      8  C   UNL     1     -11.608  -3.819  -0.495  0.00  0.00    +0.002 A 
ATOM      9  C   UNL     1     -12.593  -2.846  -0.585  0.00  0.00    +0.001 A 
ATOM     10  C   UNL     1     -12.231  -1.512  -0.564  0.00  0.00    +0.017 A 
ATOM     11  C   UNL     1     -10.906  -1.171  -0.455  0.00  0.00    +0.041 A 
ATOM     12  S   UNL     1     -10.004   0.358  -0.384  0.00  0.00    -0.051 S 
ATOM     13  H   UNL     1      -7.113   1.260  -0.153  0.00  0.00    +0.172 HD
ENDBRANCH   1   3
BRANCH   1  17
ATOM     14  C   UNL     1      -1.239  -0.787   0.109  0.00  0.00    +0.167 C 
ATOM     15  C   UNL     1      -2.367  -0.067  -0.130  0.00  0.00    +0.059 C 
ATOM     16  C   UNL     1      -3.624  -0.570   0.280  0.00  0.00    +0.008 C 
ATOM     17  C   UNL     1      -4.786   0.168   0.036  0.00  0.00    +0.096 C 
ATOM     18  C   UNL     1      -3.703  -1.819   0.935  0.00  0.00    +0.030 C 
ATOM     19  C   UNL     1      -2.572  -2.536   1.171  0.00  0.00    +0.070 C 
ATOM     20  C   UNL     1      -1.324  -2.038   0.759  0.00  0.00    +0.221 C 
ATOM     21  O   UNL     1      -0.307  -2.688   0.969  0.00  0.00    -0.284 OA
ATOM     22 BR   UNL     1      -5.382  -2.494   1.485  0.00  0.00    -0.050 Br
BRANCH  14  24
ATOM     23  C   UNL     1      -0.018   0.965  -0.937  0.00  0.00    +0.277 C 
ATOM     24  O   UNL     1      -0.029  -0.306  -0.285  0.00  0.00    -0.491 OA
ENDBRANCH  14  24
ENDBRANCH   1  17
TORSDOF 3
