REMARK  Name = ZINC08712861
REMARK  8 active torsions:
REMARK  status: ('A' for Active; 'I' for Inactive)
REMARK    1  A    between atoms: N_11  and  C_12
REMARK    2  A    between atoms: C_12  and  C_13
REMARK    3  A    between atoms: N_15  and  C_16
REMARK    4  A    between atoms: N_15  and  C_24
REMARK    5  A    between atoms: C_16  and  C_17
REMARK    6  A    between atoms: C_24  and  C_26
REMARK    7  A    between atoms: C_24  and  C_33
REMARK    8  A    between atoms: N_35  and  C_36
REMARK                            x       y       z     vdW  Elec       q    Type
REMARK                         _______ _______ _______ _____ _____    ______ ____
ROOT
ATOM      1  C   UNL     1       3.760  -3.520   1.176  0.00  0.00    +0.234 C 
ATOM      2  O   UNL     1       4.450  -3.025   2.042  0.00  0.00    -0.274 OA
ATOM      3  N   UNL     1       3.239  -2.744   0.205  0.00  0.00    -0.284 N 
ENDROOT
BRANCH   1   4
ATOM      4  C   UNL     1       3.486  -5.002   1.185  0.00  0.00    +0.210 C 
BRANCH   4  15
ATOM      5  C   UNL     1       7.721  -7.204   3.376  0.00  0.00    +0.001 A 
ATOM      6  C   UNL     1       7.558  -6.728   2.086  0.00  0.00    +0.002 A 
ATOM      7  C   UNL     1       6.357  -6.174   1.685  0.00  0.00    +0.024 A 
ATOM      8  C   UNL     1       5.292  -6.095   2.573  0.00  0.00    +0.048 A 
ATOM      9  C   UNL     1       5.462  -6.573   3.883  0.00  0.00    +0.048 A 
ATOM     10  C   UNL     1       6.678  -7.130   4.277  0.00  0.00    +0.014 A 
ATOM     11  C   UNL     1       4.183  -6.350   4.582  0.00  0.00    +0.250 C 
ATOM     12  O   UNL     1       3.909  -6.627   5.731  0.00  0.00    -0.282 OA
ATOM     13  C   UNL     1       3.295  -5.705   3.560  0.00  0.00    +0.292 C 
ATOM     14  O   UNL     1       2.145  -5.356   3.727  0.00  0.00    -0.266 OA
ATOM     15  N   UNL     1       4.004  -5.586   2.424  0.00  0.00    -0.255 N 
ENDBRANCH   4  15
ENDBRANCH   1   4
BRANCH   3  16
ATOM     16  C   UNL     1       2.308  -3.318  -0.771  0.00  0.00    +0.143 C 
BRANCH  16  17
ATOM     17  C   UNL     1       3.087  -3.960  -1.890  0.00  0.00    -0.030 A 
ATOM     18  C   UNL     1       3.441  -3.216  -3.000  0.00  0.00    +0.008 A 
ATOM     19  C   UNL     1       4.159  -3.803  -4.025  0.00  0.00    +0.038 A 
ATOM     20  C   UNL     1       4.515  -5.139  -3.944  0.00  0.00    +0.123 A 
ATOM     21  C   UNL     1       4.155  -5.884  -2.833  0.00  0.00    +0.038 A 
ATOM     22  C   UNL     1       3.442  -5.294  -1.808  0.00  0.00    +0.008 A 
ATOM     23  F   UNL     1       5.213  -5.715  -4.947  0.00  0.00    -0.205 F 
ENDBRANCH  16  17
ENDBRANCH   3  16
BRANCH   3  24
ATOM     24  C   UNL     1       3.602  -1.327   0.125  0.00  0.00    +0.166 C 
BRANCH  24  25
ATOM     25  C   UNL     1       4.402  -1.077  -1.155  0.00  0.00    +0.023 C 
ATOM     26  C   UNL     1       5.624  -2.004  -1.188  0.00  0.00    +0.010 C 
ATOM     27  C   UNL     1       6.303  -1.861  -2.552  0.00  0.00    +0.027 C 
ATOM     28  C   UNL     1       6.509  -0.410  -2.877  0.00  0.00    -0.031 C 
ATOM     29  C   UNL     1       5.893   0.560  -2.283  0.00  0.00    -0.031 C 
ATOM     30  C   UNL     1       4.889   0.373  -1.181  0.00  0.00    +0.032 C 
ENDBRANCH  24  25
BRANCH  24  31
ATOM     31  C   UNL     1       2.350  -0.488   0.107  0.00  0.00    +0.238 C 
ATOM     32  O   UNL     1       1.263  -1.022   0.046  0.00  0.00    -0.273 OA
ATOM     33  N   UNL     1       2.439   0.856   0.158  0.00  0.00    -0.284 N 
ATOM     34  H   UNL     1       3.308   1.286   0.131  0.00  0.00    +0.155 HD
BRANCH  33  35
ATOM     35  C   UNL     1       1.276   1.632   0.251  0.00  0.00    +0.037 A 
ATOM     36  C   UNL     1       1.282   2.805   0.994  0.00  0.00    +0.027 A 
ATOM     37  C   UNL     1       0.135   3.569   1.090  0.00  0.00    +0.051 A 
ATOM     38  C   UNL     1      -1.022   3.172   0.438  0.00  0.00    +0.166 A 
ATOM     39  C   UNL     1      -1.030   1.996  -0.308  0.00  0.00    +0.168 A 
ATOM     40  C   UNL     1       0.119   1.228  -0.400  0.00  0.00    +0.072 A 
ATOM     41  O   UNL     1      -2.276   1.826  -0.841  0.00  0.00    -0.453 OA
ATOM     42  C   UNL     1      -3.140   2.692  -0.082  0.00  0.00    +0.466 C 
ATOM     43  O   UNL     1      -2.262   3.740   0.371  0.00  0.00    -0.453 OA
ENDBRANCH  33  35
ENDBRANCH  24  31
ENDBRANCH   3  24
TORSDOF 8
