REMARK  Name = ZINC59179753
REMARK  9 active torsions:
REMARK  status: ('A' for Active; 'I' for Inactive)
REMARK    1  A    between atoms: C_1  and  C_2
REMARK    2  A    between atoms: C_5  and  C_8
REMARK    3  A    between atoms: C_14  and  C_16
REMARK    4  A    between atoms: C_19  and  S_22
REMARK    5  A    between atoms: N_20  and  C_21
REMARK    6  A    between atoms: S_22  and  C_23
REMARK    7  A    between atoms: C_23  and  C_24
REMARK    8  A    between atoms: N_26  and  C_27
REMARK    9  A    between atoms: C_28  and  C_36
REMARK                            x       y       z     vdW  Elec       q    Type
REMARK                         _______ _______ _______ _____ _____    ______ ____
ROOT
ATOM      1  C   UNL     1      -0.907  -7.069   0.700  0.00  0.00    +0.154 A 
ATOM      2  N   UNL     1      -2.148  -6.725   0.902  0.00  0.00    -0.132 NA
ATOM      3  N   UNL     1      -2.935  -7.519   0.269  0.00  0.00    -0.122 NA
ATOM      4  C   UNL     1      -2.233  -8.422  -0.376  0.00  0.00    +0.192 A 
ATOM      5  N   UNL     1      -0.917  -8.159  -0.126  0.00  0.00    -0.308 N 
ATOM      6  C   UNL     1       0.244  -8.895  -0.633  0.00  0.00    +0.152 C 
ENDROOT
BRANCH   1  13
ATOM      7  C   UNL     1       0.059  -4.251  -0.021  0.00  0.00    +0.247 C 
ATOM      8  O   UNL     1      -0.005  -4.854  -1.075  0.00  0.00    -0.270 OA
ATOM      9  N   UNL     1       0.176  -4.930   1.137  0.00  0.00    -0.287 N 
ATOM     10  C   UNL     1       0.181  -4.334   2.486  0.00  0.00    +0.109 C 
ATOM     11  C   UNL     1       0.932  -5.360   3.370  0.00  0.00    +0.021 C 
ATOM     12  C   UNL     1       0.443  -6.705   2.771  0.00  0.00    +0.032 C 
ATOM     13  C   UNL     1       0.312  -6.388   1.266  0.00  0.00    +0.144 C 
BRANCH   7  18
ATOM     14  C   UNL     1      -0.132   1.500   0.021  0.00  0.00    +0.044 C 
ATOM     15  C   UNL     1      -0.082  -0.006   0.010  0.00  0.00    -0.050 A 
ATOM     16  C   UNL     1      -0.523  -0.718   1.111  0.00  0.00    +0.004 A 
ATOM     17  C   UNL     1      -0.480  -2.097   1.107  0.00  0.00    +0.013 A 
ATOM     18  C   UNL     1       0.010  -2.774  -0.011  0.00  0.00    +0.037 A 
ATOM     19  C   UNL     1       0.453  -2.050  -1.119  0.00  0.00    +0.013 A 
ATOM     20  C   UNL     1       0.399  -0.671  -1.104  0.00  0.00    +0.004 A 
ENDBRANCH   7  18
ENDBRANCH   1  13
BRANCH   4  21
ATOM     21  S   UNL     1      -2.869  -9.722  -1.381  0.00  0.00    -0.077 S 
BRANCH  21  22
ATOM     22  C   UNL     1      -4.668  -9.501  -1.298  0.00  0.00    +0.173 C 
BRANCH  22  23
ATOM     23  C   UNL     1      -5.343 -10.563  -2.127  0.00  0.00    +0.228 C 
ATOM     24  O   UNL     1      -4.677 -11.388  -2.716  0.00  0.00    -0.275 OA
ATOM     25  N   UNL     1      -6.688 -10.596  -2.214  0.00  0.00    -0.278 N 
ATOM     26  H   UNL     1      -7.221  -9.936  -1.743  0.00  0.00    +0.155 HD
BRANCH  25  27
ATOM     27  C   UNL     1      -7.310 -11.574  -2.977  0.00  0.00    +0.090 A 
ATOM     28  C   UNL     1      -8.667 -11.758  -3.184  0.00  0.00    +0.084 A 
ATOM     29  C   UNL     1      -9.066 -12.866  -4.033  0.00  0.00    -0.018 A 
ATOM     30  C   UNL     1      -8.034 -13.588  -4.520  0.00  0.00    -0.004 A 
ATOM     31  S   UNL     1      -6.590 -12.803  -3.867  0.00  0.00    -0.077 S 
ATOM     32  C   UNL     1      -8.117 -14.785  -5.417  0.00  0.00    +0.043 C 
ATOM     33  C   UNL     1      -9.563 -15.300  -5.400  0.00  0.00    +0.005 C 
ATOM     34  C   UNL     1     -10.514 -14.118  -5.610  0.00  0.00    +0.005 C 
ATOM     35  C   UNL     1     -10.507 -13.218  -4.373  0.00  0.00    +0.037 C 
BRANCH  28  36
ATOM     36  C   UNL     1      -9.637 -10.890  -2.585  0.00  0.00    +0.102 C 
ATOM     37  N   UNL     1     -10.406 -10.202  -2.110  0.00  0.00    -0.191 NA
ENDBRANCH  28  36
ENDBRANCH  25  27
ENDBRANCH  22  23
ENDBRANCH  21  22
ENDBRANCH   4  21
TORSDOF 7
