REMARK  Name = ZINC12877664
REMARK  8 active torsions:
REMARK  status: ('A' for Active; 'I' for Inactive)
REMARK    1  A    between atoms: C_1  and  C_2
REMARK    2  A    between atoms: C_2  and  C_3
REMARK    3  A    between atoms: C_2  and  C_4
REMARK    4  A    between atoms: C_4  and  C_6
REMARK    5  A    between atoms: C_4  and  N_12
REMARK    6  A    between atoms: N_12  and  C_13
REMARK    7  A    between atoms: C_13  and  C_14
REMARK    8  A    between atoms: C_27  and  C_29
REMARK                            x       y       z     vdW  Elec       q    Type
REMARK                         _______ _______ _______ _____ _____    ______ ____
ROOT
ATOM      1  C   UNL     1      -1.519  -3.920   1.606  0.00  0.00    +0.234 C 
ATOM      2  O   UNL     1      -1.560  -4.579   0.589  0.00  0.00    -0.274 OA
ATOM      3  N   UNL     1      -1.564  -4.531   2.807  0.00  0.00    -0.256 N 
ATOM      4  C   UNL     1      -1.524  -3.782   3.991  0.00  0.00    +0.058 A 
ATOM      5  C   UNL     1      -2.613  -3.022   4.384  0.00  0.00    +0.025 A 
ATOM      6  C   UNL     1      -2.563  -2.308   5.567  0.00  0.00    +0.002 A 
ATOM      7  C   UNL     1      -1.430  -2.350   6.359  0.00  0.00    +0.002 A 
ATOM      8  C   UNL     1      -0.335  -3.100   5.970  0.00  0.00    +0.025 A 
ATOM      9  C   UNL     1      -0.374  -3.809   4.781  0.00  0.00    +0.055 A 
ATOM     10  N   UNL     1       0.742  -4.529   4.338  0.00  0.00    -0.284 N 
ATOM     11  C   UNL     1       0.609  -5.803   3.908  0.00  0.00    +0.219 C 
ATOM     12  O   UNL     1       1.567  -6.388   3.450  0.00  0.00    -0.275 OA
ATOM     13  C   UNL     1      -0.723  -6.502   3.994  0.00  0.00    +0.128 C 
ATOM     14  C   UNL     1      -1.664  -5.989   2.898  0.00  0.00    +0.194 C 
ATOM     15  H   UNL     1       1.617  -4.111   4.340  0.00  0.00    +0.155 HD
ENDROOT
BRANCH  14  16
ATOM     16  C   UNL     1      -3.104  -6.381   3.233  0.00  0.00    +0.409 C 
ATOM     17  F   UNL     1      -3.960  -5.916   2.229  0.00  0.00    -0.169 F 
ATOM     18  F   UNL     1      -3.200  -7.774   3.321  0.00  0.00    -0.169 F 
ATOM     19  F   UNL     1      -3.469  -5.810   4.457  0.00  0.00    -0.169 F 
ENDBRANCH  14  16
BRANCH   1  20
ATOM     20  C   UNL     1      -1.417  -2.419   1.528  0.00  0.00    +0.178 C 
BRANCH  20  21
ATOM     21  N   UNL     1      -1.383  -2.003   0.120  0.00  0.00    -0.301 NA
ATOM     22  H   UNL     1      -2.228  -2.277  -0.358  0.00  0.00    +0.123 HD
BRANCH  21  23
ATOM     23  C   UNL     1      -1.159  -0.555   0.004  0.00  0.00    +0.087 C 
BRANCH  23  24
ATOM     24  C   UNL     1      -1.717  -0.065  -1.308  0.00  0.00    -0.030 A 
ATOM     25  C   UNL     1      -1.567  -0.827  -2.451  0.00  0.00    +0.005 A 
ATOM     26  C   UNL     1      -2.078  -0.377  -3.654  0.00  0.00    +0.000 A 
ATOM     27  C   UNL     1      -2.740   0.836  -3.713  0.00  0.00    +0.000 A 
ATOM     28  C   UNL     1      -2.890   1.597  -2.570  0.00  0.00    +0.000 A 
ATOM     29  C   UNL     1      -2.383   1.145  -1.366  0.00  0.00    +0.005 A 
ENDBRANCH  23  24
BRANCH  23  31
ATOM     30  C   UNL     1       1.046  -0.994  -1.087  0.00  0.00    +0.009 C 
ATOM     31  C   UNL     1       0.342  -0.266   0.060  0.00  0.00    +0.004 C 
ATOM     32  C   UNL     1       0.576   1.241  -0.073  0.00  0.00    +0.009 C 
ENDBRANCH  23  31
ENDBRANCH  21  23
ENDBRANCH  20  21
ENDBRANCH   1  20
TORSDOF 6
