REMARK  Name = ZINC19913463
REMARK  4 active torsions:
REMARK  status: ('A' for Active; 'I' for Inactive)
REMARK    1  A    between atoms: C_4  and  C_7
REMARK    2  A    between atoms: C_10  and  C_34
REMARK    3  A    between atoms: N_12  and  C_13
REMARK    4  A    between atoms: C_16  and  C_19
REMARK                            x       y       z     vdW  Elec       q    Type
REMARK                         _______ _______ _______ _____ _____    ______ ____
ROOT
ATOM      1  C   UNL     1       3.368  -1.979   2.145  0.00  0.00    +0.052 A 
ATOM      2  C   UNL     1       3.150  -0.804   2.855  0.00  0.00    +0.025 A 
ATOM      3  C   UNL     1       2.890  -0.856   4.210  0.00  0.00    +0.009 A 
ATOM      4  C   UNL     1       2.848  -2.075   4.861  0.00  0.00    -0.007 A 
ATOM      5  C   UNL     1       3.064  -3.247   4.159  0.00  0.00    +0.009 A 
ATOM      6  C   UNL     1       3.318  -3.203   2.802  0.00  0.00    +0.025 A 
ENDROOT
BRANCH   4   7
ATOM      7  C   UNL     1       2.564  -2.128   6.341  0.00  0.00    +0.209 C 
ATOM      8  N   UNL     1       3.408  -3.158   6.974  0.00  0.00    -0.294 N 
ATOM      9  C   UNL     1       2.996  -4.480   6.882  0.00  0.00    +0.159 C 
ATOM     10  N   UNL     1       1.684  -4.749   7.273  0.00  0.00    -0.259 N 
ATOM     11  C   UNL     1       0.765  -3.740   6.998  0.00  0.00    +0.205 A 
ATOM     12  N   UNL     1       1.161  -2.493   6.565  0.00  0.00    -0.288 N 
ATOM     13  C   UNL     1       0.032  -1.743   6.403  0.00  0.00    +0.072 A 
ATOM     14  C   UNL     1      -0.181  -0.430   5.999  0.00  0.00    +0.028 A 
ATOM     15  C   UNL     1      -1.494   0.009   5.947  0.00  0.00    +0.002 A 
ATOM     16  C   UNL     1      -2.557  -0.813   6.280  0.00  0.00    +0.002 A 
ATOM     17  C   UNL     1      -2.372  -2.122   6.685  0.00  0.00    +0.030 A 
ATOM     18  C   UNL     1      -1.054  -2.588   6.745  0.00  0.00    +0.091 A 
ATOM     19  N   UNL     1      -0.536  -3.787   7.095  0.00  0.00    -0.214 NA
ATOM     20  N   UNL     1       3.791  -5.418   6.454  0.00  0.00    -0.375 N 
ATOM     21  H   UNL     1       1.430  -5.580   7.706  0.00  0.00    +0.158 HD
ATOM     22  H   UNL     1       4.699  -5.202   6.189  0.00  0.00    +0.158 HD
ATOM     23  H   UNL     1       4.224  -2.920   7.440  0.00  0.00    +0.151 HD
ATOM     24  H   UNL     1       3.476  -6.334   6.400  0.00  0.00    +0.158 HD
ENDBRANCH   4   7
BRANCH   1  29
ATOM     25  C   UNL     1       3.711  -0.707  -0.038  0.00  0.00    +0.134 C 
ATOM     26  C   UNL     1       4.022  -1.230  -1.454  0.00  0.00    +0.087 C 
ATOM     27  C   UNL     1       4.083  -2.731  -1.284  0.00  0.00    +0.069 C 
ATOM     28  N   UNL     1       3.860  -3.033  -0.051  0.00  0.00    -0.183 NA
ATOM     29  N   UNL     1       3.631  -1.931   0.776  0.00  0.00    -0.216 N 
BRANCH  25  33
ATOM     30  C   UNL     1      -0.017   1.378   0.010  0.00  0.00    +0.000 A 
ATOM     31  C   UNL     1       1.171   2.086   0.002  0.00  0.00    +0.000 A 
ATOM     32  C   UNL     1       2.377   1.411  -0.013  0.00  0.00    +0.005 A 
ATOM     33  C   UNL     1       2.396   0.029  -0.020  0.00  0.00    -0.025 A 
ATOM     34  C   UNL     1       1.208  -0.679  -0.012  0.00  0.00    +0.005 A 
ATOM     35  C   UNL     1       0.002  -0.004   0.002  0.00  0.00    +0.000 A 
ENDBRANCH  25  33
BRANCH  27  36
ATOM     36  C   UNL     1       4.354  -3.699  -2.362  0.00  0.00    -0.002 A 
ATOM     37  C   UNL     1       4.587  -3.252  -3.665  0.00  0.00    +0.010 A 
ATOM     38  C   UNL     1       4.841  -4.164  -4.668  0.00  0.00    +0.001 A 
ATOM     39  C   UNL     1       4.864  -5.519  -4.387  0.00  0.00    +0.000 A 
ATOM     40  C   UNL     1       4.635  -5.969  -3.098  0.00  0.00    +0.001 A 
ATOM     41  C   UNL     1       4.386  -5.068  -2.084  0.00  0.00    +0.010 A 
ENDBRANCH  27  36
ENDBRANCH   1  29
TORSDOF 4
