REMARK  Name = ZINC39836477
REMARK  9 active torsions:
REMARK  status: ('A' for Active; 'I' for Inactive)
REMARK    1  A    between atoms: C_1  and  C_2
REMARK    2  A    between atoms: C_2  and  C_3
REMARK    3  A    between atoms: C_2  and  C_4
REMARK    4  A    between atoms: C_2  and  C_5
REMARK    5  A    between atoms: C_12  and  N_25
REMARK    6  A    between atoms: C_13  and  C_14
REMARK    7  A    between atoms: N_16  and  C_17
REMARK    8  A    between atoms: C_26  and  C_28
REMARK    9  A    between atoms: C_31  and  N_34
REMARK                            x       y       z     vdW  Elec       q    Type
REMARK                         _______ _______ _______ _____ _____    ______ ____
ROOT
ATOM      1  C   UNL     1       0.718  -0.497  -1.257  0.00  0.00    -0.000 C 
ATOM      2  C   UNL     1       0.746  -2.029  -1.264  0.00  0.00    +0.009 C 
ATOM      3  C   UNL     1       1.234  -2.534  -2.624  0.00  0.00    +0.037 C 
ATOM      4  C   UNL     1       2.546  -1.840  -2.959  0.00  0.00    -0.023 A 
ATOM      5  C   UNL     1       2.920  -0.705  -2.330  0.00  0.00    -0.004 A 
ATOM      6  S   UNL     1       4.484  -0.290  -3.046  0.00  0.00    -0.077 S 
ATOM      7  C   UNL     1       4.646  -1.558  -4.135  0.00  0.00    +0.085 A 
ATOM      8  C   UNL     1       3.496  -2.310  -3.953  0.00  0.00    +0.069 A 
ATOM      9  C   UNL     1       2.161   0.028  -1.267  0.00  0.00    +0.046 C 
ENDROOT
BRANCH   1  11
ATOM     10  C   UNL     1      -0.019   1.526   0.010  0.00  0.00    +0.011 C 
ATOM     11  C   UNL     1       0.002  -0.004   0.002  0.00  0.00    -0.035 C 
ATOM     12  C   UNL     1       0.742  -0.511   1.242  0.00  0.00    +0.011 C 
ATOM     13  C   UNL     1      -1.433  -0.534   0.013  0.00  0.00    +0.011 C 
ENDBRANCH   1  11
BRANCH   8  14
ATOM     14  C   UNL     1       3.248  -3.528  -4.730  0.00  0.00    +0.247 C 
ATOM     15  O   UNL     1       2.655  -3.463  -5.791  0.00  0.00    -0.270 OA
ATOM     16  N   UNL     1       3.678  -4.720  -4.269  0.00  0.00    -0.307 N 
ATOM     17  H   UNL     1       4.150  -4.772  -3.424  0.00  0.00    +0.149 HD
BRANCH  16  18
ATOM     18  C   UNL     1       3.430  -5.938  -5.046  0.00  0.00    +0.096 C 
ATOM     19  C   UNL     1       4.548  -6.115  -6.087  0.00  0.00    +0.046 C 
ATOM     20  C   UNL     1       4.440  -7.551  -6.674  0.00  0.00    +0.168 C 
ATOM     21  S   UNL     1       4.059  -8.511  -5.148  0.00  0.00    -0.029 S 
ATOM     22  O   UNL     1       5.274  -8.985  -4.585  0.00  0.00    -0.174 OA
ATOM     23  O   UNL     1       3.013  -9.431  -5.429  0.00  0.00    -0.174 OA
ATOM     24  C   UNL     1       3.400  -7.157  -4.093  0.00  0.00    +0.188 C 
ENDBRANCH  16  18
ENDBRANCH   8  14
BRANCH   7  25
ATOM     25  N   UNL     1       5.690  -1.798  -5.013  0.00  0.00    -0.275 N 
ATOM     26  C   UNL     1       6.741  -0.955  -5.058  0.00  0.00    +0.249 C 
ATOM     27  O   UNL     1       6.772   0.016  -4.327  0.00  0.00    -0.270 OA
ATOM     28  H   UNL     1       5.665  -2.573  -5.596  0.00  0.00    +0.156 HD
BRANCH  26  29
ATOM     29  C   UNL     1       7.855  -1.211  -5.995  0.00  0.00    +0.037 A 
ATOM     30  C   UNL     1       7.819  -2.322  -6.839  0.00  0.00    +0.015 A 
ATOM     31  C   UNL     1       8.862  -2.555  -7.712  0.00  0.00    +0.033 A 
ATOM     32  C   UNL     1       9.942  -1.691  -7.751  0.00  0.00    +0.126 A 
ATOM     33  C   UNL     1       9.983  -0.588  -6.917  0.00  0.00    +0.033 A 
ATOM     34  C   UNL     1       8.944  -0.340  -6.044  0.00  0.00    +0.015 A 
BRANCH  32  35
ATOM     35  N   UNL     1      11.057  -1.948  -8.689  0.00  0.00    +0.056 N 
ATOM     36  O   UNL     1      11.024  -2.911  -9.419  0.00  0.00    -0.126 OA
ATOM     37  O   UNL     1      12.002  -1.194  -8.726  0.00  0.00    -0.126 OA
ENDBRANCH  32  35
ENDBRANCH  26  29
ENDBRANCH   7  25
TORSDOF 6
