REMARK  Name = ZINC13513957
REMARK  7 active torsions:
REMARK  status: ('A' for Active; 'I' for Inactive)
REMARK    1  A    between atoms: C_1  and  C_2
REMARK    2  A    between atoms: C_2  and  C_3
REMARK    3  A    between atoms: C_5  and  C_25
REMARK    4  A    between atoms: C_7  and  C_19
REMARK    5  A    between atoms: C_10  and  C_11
REMARK    6  A    between atoms: C_10  and  O_18
REMARK    7  A    between atoms: C_11  and  C_12
REMARK                            x       y       z     vdW  Elec       q    Type
REMARK                         _______ _______ _______ _____ _____    ______ ____
ROOT
ATOM      1  C   UNL     1      -1.035  -0.537   0.331  0.00  0.00    +0.011 C 
ATOM      2  C   UNL     1      -2.126  -0.087   1.305  0.00  0.00    -0.034 C 
ATOM      3  C   UNL     1      -0.561  -0.101   3.155  0.00  0.00    -0.037 C 
ATOM      4  C   UNL     1       0.579  -0.551   2.236  0.00  0.00    +0.024 C 
ATOM      5  C   UNL     1       0.323  -0.025   0.821  0.00  0.00    +0.070 C 
ATOM      6  N   UNL     1      -1.845  -0.624   2.650  0.00  0.00    +0.388 N 
ATOM      7  H   UNL     1      -1.797  -1.648   2.602  0.00  0.00    -0.084 HD
ATOM      8  H   UNL     1      -2.598  -0.346   3.290  0.00  0.00    -0.084 HD
ENDROOT
BRANCH   3   9
ATOM      9  C   UNL     1      -0.325  -0.633   4.545  0.00  0.00    -0.061 A 
ATOM     10  C   UNL     1      -0.652  -1.942   4.849  0.00  0.00    +0.002 A 
ATOM     11  C   UNL     1      -0.431  -2.432   6.122  0.00  0.00    +0.000 A 
ATOM     12  C   UNL     1       0.108  -1.610   7.095  0.00  0.00    +0.000 A 
ATOM     13  C   UNL     1       0.429  -0.300   6.793  0.00  0.00    +0.000 A 
ATOM     14  C   UNL     1       0.213   0.188   5.518  0.00  0.00    +0.002 A 
ENDBRANCH   3   9
BRANCH   2  15
ATOM     15  C   UNL     1      -2.163   1.419   1.358  0.00  0.00    -0.061 A 
ATOM     16  C   UNL     1      -2.354   2.064   2.565  0.00  0.00    +0.002 A 
ATOM     17  C   UNL     1      -2.383   3.445   2.614  0.00  0.00    +0.000 A 
ATOM     18  C   UNL     1      -2.230   4.181   1.454  0.00  0.00    +0.000 A 
ATOM     19  C   UNL     1      -2.044   3.536   0.246  0.00  0.00    +0.000 A 
ATOM     20  C   UNL     1      -2.010   2.155   0.198  0.00  0.00    +0.002 A 
ENDBRANCH   2  15
BRANCH   1  22
ATOM     21  C   UNL     1      -2.321  -2.570  -0.344  0.00  0.00    +0.004 C 
ATOM     22  C   UNL     1      -1.010  -2.065   0.263  0.00  0.00    +0.001 C 
ENDBRANCH   1  22
BRANCH   5  23
ATOM     23  O   UNL     1       0.317   1.404   0.837  0.00  0.00    -0.388 OA
ATOM     24  H   UNL     1       1.147   1.797   1.140  0.00  0.00    +0.210 HD
ENDBRANCH   5  23
BRANCH   5  25
ATOM     25  C   UNL     1       1.425  -0.521  -0.116  0.00  0.00    +0.070 C 
BRANCH  25  26
ATOM     26  C   UNL     1       2.770  -0.124   0.435  0.00  0.00    -0.045 A 
ATOM     27  C   UNL     1       3.335   1.085   0.075  0.00  0.00    +0.004 A 
ATOM     28  C   UNL     1       4.566   1.452   0.585  0.00  0.00    +0.000 A 
ATOM     29  C   UNL     1       5.238   0.605   1.446  0.00  0.00    +0.000 A 
ATOM     30  C   UNL     1       4.675  -0.607   1.803  0.00  0.00    +0.000 A 
ATOM     31  C   UNL     1       3.441  -0.971   1.298  0.00  0.00    +0.004 A 
ENDBRANCH  25  26
ENDBRANCH   5  25
TORSDOF 6
