REMARK  Name = ZINC02701452
REMARK  6 active torsions:
REMARK  status: ('A' for Active; 'I' for Inactive)
REMARK    1  A    between atoms: C_1  and  C_2
REMARK    2  A    between atoms: C_2  and  C_26
REMARK    3  A    between atoms: C_6  and  C_13
REMARK    4  A    between atoms: N_11  and  C_12
REMARK    5  A    between atoms: C_18  and  O_19
REMARK    6  A    between atoms: O_19  and  C_20
REMARK                            x       y       z     vdW  Elec       q    Type
REMARK                         _______ _______ _______ _____ _____    ______ ____
ROOT
ATOM      1  C   UNL     1       4.005   7.096   2.542  0.00  0.00    +0.011 C 
ATOM      2  C   UNL     1       3.369   6.144   3.557  0.00  0.00    -0.023 C 
ATOM      3  C   UNL     1       4.016   4.761   3.441  0.00  0.00    +0.058 C 
ATOM      4  C   UNL     1       3.774   4.204   2.060  0.00  0.00    +0.024 C 
ATOM      5  C   UNL     1       2.654   4.531   1.377  0.00  0.00    +0.037 C 
ATOM      6  C   UNL     1       2.456   3.933  -0.001  0.00  0.00    +0.143 C 
ATOM      7  N   UNL     1       3.514   3.035  -0.495  0.00  0.00    -0.288 N 
ATOM      8  C   UNL     1       4.577   2.806   0.299  0.00  0.00    +0.307 C 
ATOM      9  O   UNL     1       5.458   2.068  -0.098  0.00  0.00    -0.252 OA
ATOM     10  N   UNL     1       4.699   3.360   1.510  0.00  0.00    -0.262 N 
ATOM     11  C   UNL     1       5.895   3.046   2.295  0.00  0.00    +0.139 C 
ATOM     12  C   UNL     1       1.688   5.396   1.905  0.00  0.00    +0.163 C 
ATOM     13  O   UNL     1       0.693   5.652   1.257  0.00  0.00    -0.292 OA
ATOM     14  C   UNL     1       1.870   6.013   3.268  0.00  0.00    +0.086 C 
ATOM     15  C   UNL     1       3.572   6.692   4.971  0.00  0.00    +0.011 C 
ATOM     16  H   UNL     1       3.446   2.621  -1.370  0.00  0.00    +0.151 HD
ENDROOT
BRANCH   6  17
ATOM     17  C   UNL     1       1.160   3.164   0.008  0.00  0.00    +0.019 A 
ATOM     18  C   UNL     1       0.658   2.667   1.196  0.00  0.00    +0.009 A 
ATOM     19  C   UNL     1      -0.530   1.961   1.204  0.00  0.00    +0.001 A 
ATOM     20  C   UNL     1      -1.217   1.745   0.024  0.00  0.00    +0.004 A 
ATOM     21  C   UNL     1      -0.723   2.244  -1.165  0.00  0.00    +0.046 A 
ATOM     22  C   UNL     1       0.469   2.953  -1.177  0.00  0.00    +0.132 A 
BRANCH  22  23
ATOM     23  O   UNL     1       0.960   3.441  -2.346  0.00  0.00    -0.434 OA
BRANCH  23  24
ATOM     24  C   UNL     1       0.196   3.186  -3.527  0.00  0.00    +0.541 C 
ATOM     25  F   UNL     1       0.077   1.805  -3.716  0.00  0.00    -0.166 F 
ATOM     26  F   UNL     1      -1.077   3.749  -3.389  0.00  0.00    -0.166 F 
ENDBRANCH  23  24
ENDBRANCH  22  23
ENDBRANCH   6  17
TORSDOF 3
