REMARK  Name = ZINC13625734
REMARK  5 active torsions:
REMARK  status: ('A' for Active; 'I' for Inactive)
REMARK    1  A    between atoms: C_1  and  C_2
REMARK    2  A    between atoms: C_12  and  C_13
REMARK    3  A    between atoms: C_13  and  C_14
REMARK    4  A    between atoms: N_16  and  C_17
REMARK    5  A    between atoms: C_24  and  O_26
REMARK                            x       y       z     vdW  Elec       q    Type
REMARK                         _______ _______ _______ _____ _____    ______ ____
ROOT
ATOM      1  C   UNL     1       0.324   9.970  -2.726  0.00  0.00    +0.045 C 
ATOM      2  C   UNL     1       1.388   9.087  -2.128  0.00  0.00    -0.029 A 
ATOM      3  C   UNL     1       1.149   7.660  -1.901  0.00  0.00    +0.021 A 
ATOM      4  C   UNL     1      -0.078   7.075  -2.230  0.00  0.00    +0.019 A 
ATOM      5  C   UNL     1      -0.285   5.740  -2.012  0.00  0.00    -0.005 A 
ATOM      6  C   UNL     1       0.728   4.956  -1.468  0.00  0.00    +0.128 A 
ATOM      7  C   UNL     1       1.951   5.523  -1.134  0.00  0.00    +0.093 A 
ATOM      8  C   UNL     1       2.175   6.875  -1.344  0.00  0.00    +0.143 A 
ATOM      9  O   UNL     1       3.360   7.428  -1.019  0.00  0.00    -0.422 OA
ATOM     10  C   UNL     1       3.575   8.732  -1.226  0.00  0.00    +0.341 A 
ATOM     11  O   UNL     1       4.658   9.200  -0.921  0.00  0.00    -0.245 OA
ATOM     12  C   UNL     1       2.604   9.586  -1.782  0.00  0.00    +0.049 A 
ATOM     13  O   UNL     1       0.557   3.626  -1.248  0.00  0.00    -0.485 OA
ATOM     14  C   UNL     1      -0.777   3.121  -1.221  0.00  0.00    +0.111 C 
ATOM     15  C   UNL     1      -0.753   1.593  -1.232  0.00  0.00    +0.048 C 
ATOM     16  C   UNL     1      -0.013   1.086   0.008  0.00  0.00    +0.004 C 
ATOM     17  C   UNL     1      -0.729   1.579   1.267  0.00  0.00    +0.000 C 
ATOM     18  C   UNL     1      -0.750   3.109   1.276  0.00  0.00    +0.004 C 
ATOM     19  C   UNL     1      -1.492   3.615   0.037  0.00  0.00    +0.048 C 
ATOM     20  C   UNL     1      -1.517   3.630  -2.463  0.00  0.00    +0.053 C 
ATOM     21  C   UNL     1      -1.628   5.154  -2.367  0.00  0.00    +0.043 C 
ENDROOT
BRANCH  12  22
ATOM     22  C   UNL     1       2.911  11.047  -1.992  0.00  0.00    +0.138 C 
BRANCH  22  23
ATOM     23  C   UNL     1       2.523  11.824  -0.760  0.00  0.00    +0.218 C 
ATOM     24  O   UNL     1       2.044  11.248   0.194  0.00  0.00    -0.275 OA
ATOM     25  N   UNL     1       2.708  13.158  -0.719  0.00  0.00    -0.308 N 
ATOM     26  H   UNL     1       3.090  13.618  -1.482  0.00  0.00    +0.149 HD
BRANCH  25  27
ATOM     27  C   UNL     1       2.330  13.913   0.479  0.00  0.00    +0.124 C 
ATOM     28  C   UNL     1       0.807  14.166   0.443  0.00  0.00    +0.190 C 
ATOM     29  S   UNL     1       0.706  15.860   1.169  0.00  0.00    -0.027 S 
ATOM     30  O   UNL     1       0.751  15.768   2.586  0.00  0.00    -0.174 OA
ATOM     31  O   UNL     1      -0.348  16.580   0.542  0.00  0.00    -0.174 OA
ATOM     32  C   UNL     1       2.327  16.482   0.543  0.00  0.00    +0.199 C 
ATOM     33  C   UNL     1       3.165  15.184   0.534  0.00  0.00    +0.157 C 
BRANCH  33  34
ATOM     34  O   UNL     1       3.965  15.153   1.718  0.00  0.00    -0.388 OA
ATOM     35  H   UNL     1       4.530  15.930   1.831  0.00  0.00    +0.210 HD
ENDBRANCH  33  34
ENDBRANCH  25  27
ENDBRANCH  22  23
ENDBRANCH  12  22
TORSDOF 4
