REMARK  Name = ZINC15320479
REMARK  4 active torsions:
REMARK  status: ('A' for Active; 'I' for Inactive)
REMARK    1  A    between atoms: C_1  and  C_2
REMARK    2  A    between atoms: N_10  and  C_13
REMARK    3  A    between atoms: N_28  and  C_31
REMARK    4  A    between atoms: C_31  and  C_32
REMARK                            x       y       z     vdW  Elec       q    Type
REMARK                         _______ _______ _______ _____ _____    ______ ____
ROOT
ATOM      1  C   UNL     1       2.994  -4.690  -1.297  0.00  0.00    +0.025 C 
ATOM      2  C   UNL     1       1.572  -4.223  -0.979  0.00  0.00    +0.064 C 
ATOM      3  C   UNL     1       1.284  -4.402   0.510  0.00  0.00    +0.107 C 
ATOM      4  C   UNL     1       1.589  -2.927   1.006  0.00  0.00    +0.123 C 
ATOM      5  C   UNL     1       1.626  -3.151   2.433  0.00  0.00    +0.233 C 
ATOM      6  O   UNL     1       1.209  -2.424   3.309  0.00  0.00    -0.274 OA
ATOM      7  N   UNL     1       2.237  -4.367   2.579  0.00  0.00    -0.210 N 
ATOM      8  C   UNL     1       2.324  -5.051   1.393  0.00  0.00    +0.232 C 
ATOM      9  O   UNL     1       3.068  -5.967   1.116  0.00  0.00    -0.274 OA
ATOM     10  C   UNL     1       0.908  -2.129  -0.017  0.00  0.00    +0.136 C 
ATOM     11  N   UNL     1       1.436  -2.764  -1.270  0.00  0.00    -0.296 NA
ATOM     12  C   UNL     1       1.229  -0.661  -0.013  0.00  0.00    +0.004 A 
ATOM     13  C   UNL     1       2.407   0.052  -0.021  0.00  0.00    +0.008 A 
ATOM     14  C   UNL     1       2.379   1.435  -0.013  0.00  0.00    +0.000 A 
ATOM     15  C   UNL     1       1.166   2.099   0.002  0.00  0.00    +0.002 A 
ATOM     16  C   UNL     1      -0.017   1.389   0.010  0.00  0.00    +0.024 A 
ATOM     17  C   UNL     1       0.002  -0.004   0.002  0.00  0.00    +0.042 A 
ATOM     18  N   UNL     1      -1.042  -0.931   0.007  0.00  0.00    -0.265 N 
ATOM     19  C   UNL     1      -0.594  -2.202  -0.003  0.00  0.00    +0.246 C 
ATOM     20  O   UNL     1      -1.271  -3.208  -0.001  0.00  0.00    -0.273 OA
ATOM     21  H   UNL     1       2.419  -2.350  -1.538  0.00  0.00    +0.123 HD
ENDROOT
BRANCH   7  22
ATOM     22  C   UNL     1       2.709  -4.866   3.802  0.00  0.00    +0.044 A 
ATOM     23  C   UNL     1       2.586  -4.104   4.957  0.00  0.00    +0.025 A 
ATOM     24  C   UNL     1       3.046  -4.600   6.161  0.00  0.00    +0.022 A 
ATOM     25  C   UNL     1       3.638  -5.849   6.216  0.00  0.00    +0.041 A 
ATOM     26  C   UNL     1       3.767  -6.608   5.065  0.00  0.00    +0.022 A 
ATOM     27  C   UNL     1       3.303  -6.119   3.859  0.00  0.00    +0.025 A 
ATOM     28 CL   UNL     1       4.220  -6.467   7.730  0.00  0.00    -0.084 Cl
ENDBRANCH   7  22
BRANCH  18  29
ATOM     29  C   UNL     1      -2.461  -0.565   0.022  0.00  0.00    +0.148 C 
BRANCH  29  30
ATOM     30  C   UNL     1      -2.961  -0.433  -1.393  0.00  0.00    -0.030 A 
ATOM     31  C   UNL     1      -2.895   0.789  -2.038  0.00  0.00    +0.008 A 
ATOM     32  C   UNL     1      -3.349   0.910  -3.337  0.00  0.00    +0.038 A 
ATOM     33  C   UNL     1      -3.878  -0.190  -3.991  0.00  0.00    +0.123 A 
ATOM     34  C   UNL     1      -3.948  -1.411  -3.342  0.00  0.00    +0.038 A 
ATOM     35  C   UNL     1      -3.489  -1.532  -2.045  0.00  0.00    +0.008 A 
ATOM     36  F   UNL     1      -4.327  -0.071  -5.260  0.00  0.00    -0.205 F 
ENDBRANCH  29  30
ENDBRANCH  18  29
TORSDOF 3
