REMARK  Name = ZINC02354774
REMARK  12 active torsions:
REMARK  status: ('A' for Active; 'I' for Inactive)
REMARK    1  A    between atoms: C_1  and  C_2
REMARK    2  A    between atoms: C_2  and  O_3
REMARK    3  A    between atoms: O_3  and  C_4
REMARK    4  A    between atoms: C_7  and  C_12
REMARK    5  A    between atoms: C_9  and  O_10
REMARK    6  A    between atoms: O_10  and  C_11
REMARK    7  A    between atoms: C_17  and  C_29
REMARK    8  A    between atoms: N_18  and  C_21
REMARK    9  A    between atoms: C_21  and  C_22
REMARK   10  A    between atoms: C_25  and  C_28
REMARK   11  A    between atoms: C_31  and  N_35
REMARK   12  A    between atoms: C_32  and  C_33
REMARK                            x       y       z     vdW  Elec       q    Type
REMARK                         _______ _______ _______ _____ _____    ______ ____
ROOT
ATOM      1  C   UNL     1      -0.777  -4.615   0.320  0.00  0.00    +0.103 C 
ATOM      2  C   UNL     1      -0.502  -3.141   0.195  0.00  0.00    +0.072 A 
ATOM      3  C   UNL     1       0.783  -2.678   0.007  0.00  0.00    +0.141 A 
ATOM      4  C   UNL     1       0.998  -1.288  -0.105  0.00  0.00    +0.068 A 
ATOM      5  C   UNL     1      -0.050  -0.439  -0.027  0.00  0.00    +0.023 A 
ATOM      6  N   UNL     1      -1.312  -0.904   0.164  0.00  0.00    -0.308 N 
ATOM      7  C   UNL     1      -1.557  -2.223   0.270  0.00  0.00    +0.259 A 
ATOM      8  O   UNL     1      -2.700  -2.620   0.436  0.00  0.00    -0.267 OA
ATOM      9  C   UNL     1       0.186   1.044  -0.147  0.00  0.00    +0.064 C 
ATOM     10  O   UNL     1       1.827  -3.529  -0.071  0.00  0.00    -0.441 OA
ATOM     11  C   UNL     1       1.615  -4.828  -0.344  0.00  0.00    +0.199 C 
ATOM     12  C   UNL     1       0.401  -5.405  -0.180  0.00  0.00    +0.098 C 
ENDROOT
BRANCH   1  16
ATOM     13  C   UNL     1      -1.488  -5.578   4.425  0.00  0.00    +0.162 A 
ATOM     14  C   UNL     1      -0.273  -5.037   4.038  0.00  0.00    +0.050 A 
ATOM     15  C   UNL     1      -0.044  -4.732   2.709  0.00  0.00    +0.008 A 
ATOM     16  C   UNL     1      -1.029  -4.955   1.766  0.00  0.00    -0.031 A 
ATOM     17  C   UNL     1      -2.244  -5.495   2.146  0.00  0.00    +0.054 A 
ATOM     18  C   UNL     1      -2.478  -5.808   3.475  0.00  0.00    +0.162 A 
BRANCH  18  19
ATOM     19  O   UNL     1      -3.672  -6.340   3.850  0.00  0.00    -0.491 OA
ATOM     20  C   UNL     1      -4.641  -6.549   2.820  0.00  0.00    +0.277 C 
ENDBRANCH  18  19
BRANCH  13  21
ATOM     21  O   UNL     1      -1.713  -5.884   5.731  0.00  0.00    -0.489 OA
BRANCH  21  23
ATOM     22  C   UNL     1      -1.086  -6.027   8.061  0.00  0.00    +0.048 C 
ATOM     23  C   UNL     1      -0.651  -5.621   6.651  0.00  0.00    +0.226 C 
ENDBRANCH  21  23
ENDBRANCH  13  21
ENDBRANCH   1  16
BRANCH  11  24
ATOM     24  N   UNL     1       2.659  -5.592  -0.802  0.00  0.00    -0.328 N 
ATOM     25  H   UNL     1       3.535  -5.193  -0.925  0.00  0.00    +0.145 HD
ATOM     26  H   UNL     1       2.521  -6.531  -1.004  0.00  0.00    +0.145 HD
ENDBRANCH  11  24
BRANCH  12  27
ATOM     27  C   UNL     1       0.236  -6.794  -0.488  0.00  0.00    +0.101 C 
ATOM     28  N   UNL     1       0.105  -7.895  -0.732  0.00  0.00    -0.191 NA
ENDBRANCH  12  27
BRANCH   6  29
ATOM     29  C   UNL     1      -2.425   0.045   0.250  0.00  0.00    +0.160 C 
BRANCH  29  30
ATOM     30  C   UNL     1      -3.062   0.197  -1.107  0.00  0.00    -0.028 A 
ATOM     31  C   UNL     1      -2.695   1.245  -1.930  0.00  0.00    +0.005 A 
ATOM     32  C   UNL     1      -3.277   1.381  -3.177  0.00  0.00    +0.004 A 
ATOM     33  C   UNL     1      -4.232   0.475  -3.597  0.00  0.00    -0.050 A 
ATOM     34  C   UNL     1      -4.603  -0.571  -2.772  0.00  0.00    +0.004 A 
ATOM     35  C   UNL     1      -4.018  -0.710  -1.527  0.00  0.00    +0.005 A 
ATOM     36  C   UNL     1      -4.870   0.626  -4.954  0.00  0.00    +0.044 C 
ENDBRANCH  29  30
ENDBRANCH   6  29
TORSDOF 8
