REMARK  Name = ZINC42138523
REMARK  5 active torsions:
REMARK  status: ('A' for Active; 'I' for Inactive)
REMARK    1  A    between atoms: C_1  and  C_2
REMARK    2  A    between atoms: C_7  and  N_12
REMARK    3  A    between atoms: C_9  and  C_11
REMARK    4  A    between atoms: C_14  and  C_20
REMARK    5  A    between atoms: C_16  and  N_19
REMARK                            x       y       z     vdW  Elec       q    Type
REMARK                         _______ _______ _______ _____ _____    ______ ____
ROOT
ATOM      1  N   UNL     1      -0.614  -2.534   1.278  0.00  0.00    -0.325 N 
ATOM      2  C   UNL     1      -0.881  -3.803   1.764  0.00  0.00    +0.131 A 
ATOM      3  C   UNL     1      -2.210  -4.253   1.846  0.00  0.00    +0.078 A 
ATOM      4  C   UNL     1      -2.459  -5.538   2.340  0.00  0.00    +0.040 A 
ATOM      5  C   UNL     1      -1.375  -6.316   2.728  0.00  0.00    +0.044 A 
ATOM      6  C   UNL     1      -0.091  -5.799   2.615  0.00  0.00    +0.135 A 
ATOM      7  N   UNL     1       0.117  -4.586   2.141  0.00  0.00    -0.238 NA
ATOM      8  H   UNL     1      -1.334  -1.987   0.926  0.00  0.00    +0.148 HD
ENDROOT
BRANCH   1  14
ATOM      9  C   UNL     1      -0.031   1.556   0.096  0.00  0.00    +0.008 C 
ATOM     10  C   UNL     1       0.001   0.027   0.072  0.00  0.00    -0.009 C 
ATOM     11  C   UNL     1       0.742  -0.449  -1.179  0.00  0.00    +0.003 C 
ATOM     12  C   UNL     1       0.774  -1.978  -1.203  0.00  0.00    +0.002 C 
ATOM     13  C   UNL     1       1.497  -2.492   0.043  0.00  0.00    +0.022 C 
ATOM     14  C   UNL     1       0.757  -2.017   1.295  0.00  0.00    +0.075 C 
ATOM     15  C   UNL     1       0.725  -0.487   1.319  0.00  0.00    +0.009 C 
ATOM     16  C   UNL     1      -0.016  -0.012   2.570  0.00  0.00    +0.009 C 
ENDBRANCH   1  14
BRANCH   3  17
ATOM     17  C   UNL     1      -3.323  -3.384   1.421  0.00  0.00    +0.245 C 
ATOM     18  O   UNL     1      -3.091  -2.313   0.895  0.00  0.00    -0.270 OA
ATOM     19  N   UNL     1      -4.597  -3.778   1.615  0.00  0.00    -0.325 N 
ATOM     20  H   UNL     1      -4.782  -4.633   2.034  0.00  0.00    +0.145 HD
ATOM     21  H   UNL     1      -5.329  -3.207   1.335  0.00  0.00    +0.145 HD
ENDBRANCH   3  17
BRANCH   5  22
ATOM     22  N   UNL     1      -1.576  -7.609   3.228  0.00  0.00    -0.357 N 
ATOM     23  H   UNL     1      -2.474  -7.965   3.305  0.00  0.00    +0.142 HD
ATOM     24  H   UNL     1      -0.816  -8.148   3.497  0.00  0.00    +0.142 HD
ENDBRANCH   5  22
TORSDOF 3
