REMARK  Name = ZINC22301129
REMARK  10 active torsions:
REMARK  status: ('A' for Active; 'I' for Inactive)
REMARK    1  A    between atoms: C_1  and  C_2
REMARK    2  A    between atoms: C_2  and  O_3
REMARK    3  A    between atoms: O_3  and  C_4
REMARK    4  A    between atoms: C_11  and  C_18
REMARK    5  A    between atoms: C_13  and  O_14
REMARK    6  A    between atoms: C_18  and  S_19
REMARK    7  A    between atoms: S_19  and  C_20
REMARK    8  A    between atoms: C_23  and  C_26
REMARK    9  A    between atoms: C_29  and  O_32
REMARK   10  A    between atoms: O_32  and  C_33
REMARK                            x       y       z     vdW  Elec       q    Type
REMARK                         _______ _______ _______ _____ _____    ______ ____
ROOT
ATOM      1  C   UNL     1      -8.049   3.113   4.883  0.00  0.00    +0.405 C 
ATOM      2  O   UNL     1      -8.704   2.849   3.894  0.00  0.00    -0.226 OA
ATOM      3  N   UNL     1      -6.706   3.003   4.851  0.00  0.00    -0.251 N 
ATOM      4  C   UNL     1      -6.059   2.695   3.654  0.00  0.00    +0.040 A 
ATOM      5  C   UNL     1      -4.899   1.922   3.673  0.00  0.00    +0.024 A 
ATOM      6  C   UNL     1      -4.256   1.613   2.510  0.00  0.00    +0.013 A 
ATOM      7  C   UNL     1      -4.766   2.070   1.289  0.00  0.00    +0.022 A 
ATOM      8  C   UNL     1      -4.093   1.759   0.027  0.00  0.00    -0.020 A 
ATOM      9  C   UNL     1      -4.634   2.236  -1.124  0.00  0.00    +0.092 A 
ATOM     10  C   UNL     1      -5.811   3.012  -1.077  0.00  0.00    +0.285 A 
ATOM     11  O   UNL     1      -6.420   3.298   0.084  0.00  0.00    -0.425 OA
ATOM     12  C   UNL     1      -5.934   2.855   1.263  0.00  0.00    +0.141 A 
ATOM     13  C   UNL     1      -6.576   3.160   2.454  0.00  0.00    +0.070 A 
ATOM     14  H   UNL     1      -6.120   3.157   5.769  0.00  0.00    +0.158 HD
ENDROOT
BRANCH  10  15
ATOM     15  O   UNL     1      -6.285   3.433  -2.116  0.00  0.00    -0.480 OA
ATOM     16  H   UNL     1      -7.203   4.040  -2.096  0.00  0.00    +0.295 HD
ENDBRANCH  10  15
BRANCH   1  17
ATOM     17  O   UNL     1      -8.665   3.514   6.011  0.00  0.00    -0.450 OA
BRANCH  17  19
ATOM     18  C   UNL     1     -10.630   4.077   7.335  0.00  0.00    +0.048 C 
ATOM     19  C   UNL     1     -10.113   3.609   5.973  0.00  0.00    +0.230 C 
ENDBRANCH  17  19
ENDBRANCH   1  17
BRANCH   8  20
ATOM     20  C   UNL     1      -2.837   0.926   0.004  0.00  0.00    +0.113 C 
BRANCH  20  21
ATOM     21  S   UNL     1      -1.393   2.009   0.140  0.00  0.00    -0.082 S 
BRANCH  21  22
ATOM     22  C   UNL     1      -0.104   0.809   0.090  0.00  0.00    +0.185 A 
ATOM     23  N   UNL     1       1.238   1.058   0.150  0.00  0.00    -0.201 NA
ATOM     24  H   UNL     1      -1.173  -1.093  -0.087  0.00  0.00    +0.191 HD
ATOM     25  C   UNL     1       1.847  -0.173   0.070  0.00  0.00    +0.182 A 
ATOM     26  N   UNL     1       0.893  -1.070  -0.021  0.00  0.00    -0.152 NA
ATOM     27  N   UNL     1      -0.255  -0.492  -0.013  0.00  0.00    -0.253 N 
BRANCH  25  28
ATOM     28  C   UNL     1       3.302  -0.436   0.084  0.00  0.00    +0.021 A 
ATOM     29  C   UNL     1       4.204   0.624   0.191  0.00  0.00    +0.015 A 
ATOM     30  C   UNL     1       5.559   0.374   0.209  0.00  0.00    +0.046 A 
ATOM     31  C   UNL     1       6.028  -0.929   0.110  0.00  0.00    +0.120 A 
ATOM     32  C   UNL     1       5.135  -1.986  -0.002  0.00  0.00    +0.046 A 
ATOM     33  C   UNL     1       3.777  -1.745  -0.015  0.00  0.00    +0.015 A 
BRANCH  31  34
ATOM     34  O   UNL     1       7.365  -1.171   0.123  0.00  0.00    -0.495 OA
ATOM     35  C   UNL     1       8.228  -0.038   0.241  0.00  0.00    +0.277 C 
ENDBRANCH  31  34
ENDBRANCH  25  28
ENDBRANCH  21  22
ENDBRANCH  20  21
ENDBRANCH   8  20
TORSDOF 8
