REMARK  Name = ZINC12574453
REMARK  4 active torsions:
REMARK  status: ('A' for Active; 'I' for Inactive)
REMARK    1  A    between atoms: C_4  and  C_7
REMARK    2  A    between atoms: C_8  and  C_24
REMARK    3  A    between atoms: C_9  and  C_15
REMARK    4  A    between atoms: C_18  and  N_21
REMARK                            x       y       z     vdW  Elec       q    Type
REMARK                         _______ _______ _______ _____ _____    ______ ____
ROOT
ATOM      1  C   UNL     1       3.697  -0.725  -0.294  0.00  0.00    +0.050 C 
ATOM      2  C   UNL     1       3.711  -2.039   0.052  0.00  0.00    +0.031 C 
ATOM      3  C   UNL     1       5.056  -2.684   0.317  0.00  0.00    +0.139 C 
ATOM      4  N   UNL     1       6.248  -1.831   0.177  0.00  0.00    -0.288 N 
ATOM      5  C   UNL     1       6.084  -0.541  -0.174  0.00  0.00    +0.305 C 
ATOM      6  O   UNL     1       7.066   0.165  -0.291  0.00  0.00    -0.252 OA
ATOM      7  N   UNL     1       4.876  -0.011  -0.405  0.00  0.00    -0.269 N 
ATOM      8  H   UNL     1       7.135  -2.191   0.335  0.00  0.00    +0.151 HD
ATOM      9  H   UNL     1       4.825   0.924  -0.658  0.00  0.00    +0.156 HD
ENDROOT
BRANCH   2  10
ATOM     10  C   UNL     1       2.471  -2.804   0.167  0.00  0.00    +0.109 A 
ATOM     11  N   UNL     1       2.312  -4.102   0.357  0.00  0.00    -0.239 NA
ATOM     12  C   UNL     1       1.096  -4.674   0.443  0.00  0.00    +0.079 A 
ATOM     13  C   UNL     1       0.786  -6.041   0.644  0.00  0.00    +0.029 A 
ATOM     14  C   UNL     1      -0.506  -6.461   0.707  0.00  0.00    +0.002 A 
ATOM     15  C   UNL     1      -1.567  -5.576   0.578  0.00  0.00    +0.001 A 
ATOM     16  C   UNL     1      -1.308  -4.231   0.381  0.00  0.00    +0.017 A 
ATOM     17  C   UNL     1      -0.007  -3.797   0.316  0.00  0.00    +0.040 A 
ATOM     18  S   UNL     1       0.783  -2.222   0.092  0.00  0.00    -0.067 S 
ENDBRANCH   2  10
BRANCH   1  22
ATOM     19  C   UNL     1      -0.007   1.204  -1.065  0.00  0.00    +0.000 A 
ATOM     20  C   UNL     1       0.742   1.567   0.040  0.00  0.00    +0.001 A 
ATOM     21  C   UNL     1       1.946   0.945   0.297  0.00  0.00    +0.010 A 
ATOM     22  C   UNL     1       2.409  -0.055  -0.562  0.00  0.00    -0.003 A 
ATOM     23  C   UNL     1       1.648  -0.416  -1.676  0.00  0.00    +0.010 A 
ATOM     24  C   UNL     1       0.446   0.214  -1.921  0.00  0.00    +0.001 A 
ENDBRANCH   1  22
BRANCH   3  25
ATOM     25  C   UNL     1       5.040  -3.230   1.722  0.00  0.00    -0.023 A 
ATOM     26  C   UNL     1       5.246  -2.383   2.795  0.00  0.00    +0.008 A 
ATOM     27  C   UNL     1       5.231  -2.884   4.083  0.00  0.00    +0.033 A 
ATOM     28  C   UNL     1       5.011  -4.232   4.298  0.00  0.00    +0.126 A 
ATOM     29  C   UNL     1       4.805  -5.078   3.225  0.00  0.00    +0.033 A 
ATOM     30  C   UNL     1       4.815  -4.577   1.937  0.00  0.00    +0.008 A 
BRANCH  28  31
ATOM     31  N   UNL     1       4.997  -4.768   5.678  0.00  0.00    +0.056 N 
ATOM     32  O   UNL     1       5.177  -4.028   6.616  0.00  0.00    -0.126 OA
ATOM     33  O   UNL     1       4.804  -5.947   5.866  0.00  0.00    -0.126 OA
ENDBRANCH  28  31
ENDBRANCH   3  25
TORSDOF 4
