REMARK  Name = ZINC36274567
REMARK  6 active torsions:
REMARK  status: ('A' for Active; 'I' for Inactive)
REMARK    1  A    between atoms: C_1  and  C_2
REMARK    2  A    between atoms: C_7  and  C_8
REMARK    3  A    between atoms: C_8  and  C_10
REMARK    4  A    between atoms: C_8  and  N_20
REMARK    5  A    between atoms: C_16  and  C_18
REMARK    6  A    between atoms: C_24  and  C_27
REMARK                            x       y       z     vdW  Elec       q    Type
REMARK                         _______ _______ _______ _____ _____    ______ ____
ROOT
ATOM      1  C   UNL     1       0.025   0.045   2.504  0.00  0.00    +0.006 C 
ENDROOT
BRANCH   1   2
ATOM      2  C   UNL     1       1.421   0.527   2.805  0.00  0.00    +0.050 A 
ATOM      3  C   UNL     1       1.881   1.780   2.895  0.00  0.00    +0.282 A 
ATOM      4  N   UNL     1       3.203   2.022   3.182  0.00  0.00    -0.170 N 
ATOM      5  C   UNL     1       4.009   0.941   3.367  0.00  0.00    +0.199 A 
ATOM      6  S   UNL     1       2.894  -0.425   3.143  0.00  0.00    -0.050 S 
ATOM      7  N   UNL     1       5.224   1.340   3.628  0.00  0.00    -0.205 NA
ATOM      8  C   UNL     1       5.260   2.671   3.625  0.00  0.00    +0.150 A 
ATOM      9  N   UNL     1       4.068   3.133   3.361  0.00  0.00    -0.147 NA
ATOM     10  C   UNL     1       6.484   3.510   3.885  0.00  0.00    +0.090 C 
ATOM     11  O   UNL     1       1.032   2.825   2.701  0.00  0.00    -0.265 OA
ENDBRANCH   1   2
BRANCH   1  12
ATOM     12  N   UNL     1      -0.426  -0.849   3.579  0.00  0.00    +0.388 N 
ATOM     13  C   UNL     1      -1.782  -1.325   3.280  0.00  0.00    -0.077 C 
ATOM     14  C   UNL     1      -2.226  -2.320   4.354  0.00  0.00    -0.018 C 
ATOM     15  C   UNL     1      -2.216  -1.627   5.720  0.00  0.00    -0.001 C 
ATOM     16  C   UNL     1      -0.815  -1.070   5.988  0.00  0.00    -0.031 C 
ATOM     17  C   UNL     1      -0.423  -0.121   4.853  0.00  0.00    -0.074 C 
ATOM     18  C   UNL     1      -0.813  -0.309   7.315  0.00  0.00    +0.005 C 
ATOM     19  H   UNL     1       0.199  -1.639   3.642  0.00  0.00    -0.080 HD
ENDBRANCH   1  12
BRANCH   1  26
ATOM     20  C   UNL     1      -0.018   1.503   0.010  0.00  0.00    +0.044 C 
ATOM     21  C   UNL     1       0.002  -0.004   0.002  0.00  0.00    -0.049 A 
ATOM     22  C   UNL     1       0.006  -0.689  -1.199  0.00  0.00    +0.003 A 
ATOM     23  C   UNL     1       0.025  -2.071  -1.207  0.00  0.00    +0.000 A 
ATOM     24  C   UNL     1       0.040  -2.768  -0.013  0.00  0.00    +0.000 A 
ATOM     25  C   UNL     1       0.037  -2.084   1.188  0.00  0.00    +0.002 A 
ATOM     26  C   UNL     1       0.023  -0.702   1.195  0.00  0.00    -0.053 A 
ENDBRANCH   1  26
TORSDOF 3
