REMARK  Name = ZINC03048580
REMARK  6 active torsions:
REMARK  status: ('A' for Active; 'I' for Inactive)
REMARK    1  A    between atoms: C_6  and  S_7
REMARK    2  A    between atoms: S_7  and  N_10
REMARK    3  A    between atoms: C_16  and  N_29
REMARK    4  A    between atoms: C_17  and  C_19
REMARK    5  A    between atoms: N_21  and  C_22
REMARK    6  A    between atoms: C_22  and  C_23
REMARK                            x       y       z     vdW  Elec       q    Type
REMARK                         _______ _______ _______ _____ _____    ______ ____
ROOT
ATOM      1  C   UNL     1      -5.601   4.324   0.054  0.00  0.00    +0.029 A 
ATOM      2  C   UNL     1      -4.263   4.663   0.050  0.00  0.00    +0.017 A 
ATOM      3  C   UNL     1      -3.308   3.667   0.039  0.00  0.00    +0.022 A 
ATOM      4  C   UNL     1      -3.654   2.298   0.032  0.00  0.00    +0.012 A 
ATOM      5  C   UNL     1      -5.037   1.993   0.038  0.00  0.00    +0.039 A 
ATOM      6  C   UNL     1      -5.967   2.984   0.048  0.00  0.00    +0.106 A 
ATOM      7  C   UNL     1      -2.525   1.379   0.021  0.00  0.00    +0.052 A 
ATOM      8  C   UNL     1      -1.252   1.906   0.018  0.00  0.00    +0.096 A 
ATOM      9  S   UNL     1      -1.533   3.665   0.037  0.00  0.00    -0.082 S 
ENDROOT
BRANCH   8  10
ATOM     10  C   UNL     1      -0.014   1.214   0.009  0.00  0.00    +0.253 C 
ATOM     11  O   UNL     1       0.002  -0.004   0.002  0.00  0.00    -0.270 OA
ATOM     12  N   UNL     1       1.143   1.903   0.001  0.00  0.00    -0.308 N 
ATOM     13  H   UNL     1       1.130   2.873   0.007  0.00  0.00    +0.149 HD
BRANCH  12  14
ATOM     14  C   UNL     1       2.422   1.188  -0.015  0.00  0.00    +0.136 C 
BRANCH  14  15
ATOM     15  C   UNL     1       3.571   2.198  -0.020  0.00  0.00    +0.135 C 
ATOM     16  C   UNL     1       4.926   1.470  -0.163  0.00  0.00    +0.035 C 
ATOM     17  C   UNL     1       5.884   2.279   0.740  0.00  0.00    +0.031 C 
ATOM     18  C   UNL     1       4.995   3.400   1.322  0.00  0.00    +0.160 C 
ATOM     19  O   UNL     1       3.650   2.877   1.252  0.00  0.00    -0.375 OA
ENDBRANCH  14  15
ENDBRANCH  12  14
ENDBRANCH   8  10
BRANCH   6  20
ATOM     20  S   UNL     1      -7.677   2.559   0.054  0.00  0.00    +0.061 S 
ATOM     21  O   UNL     1      -8.374   3.673  -0.487  0.00  0.00    -0.153 OA
ATOM     22  O   UNL     1      -7.774   1.256  -0.503  0.00  0.00    -0.153 OA
BRANCH  20  23
ATOM     23  N   UNL     1      -8.144   2.432   1.638  0.00  0.00    -0.177 NA
ATOM     24  C   UNL     1      -8.056   1.147   2.344  0.00  0.00    +0.109 C 
ATOM     25  C   UNL     1      -7.250   1.352   3.635  0.00  0.00    +0.017 C 
ATOM     26  C   UNL     1      -7.889   2.476   4.455  0.00  0.00    +0.003 C 
ATOM     27  C   UNL     1      -7.853   3.779   3.652  0.00  0.00    +0.017 C 
ATOM     28  C   UNL     1      -8.660   3.602   2.362  0.00  0.00    +0.109 C 
ENDBRANCH  20  23
ENDBRANCH   6  20
BRANCH   7  29
ATOM     29  N   UNL     1      -2.726   0.006   0.014  0.00  0.00    -0.356 N 
ATOM     30  H   UNL     1      -1.965  -0.596   0.007  0.00  0.00    +0.142 HD
ATOM     31  H   UNL     1      -3.627  -0.352   0.016  0.00  0.00    +0.142 HD
ENDBRANCH   7  29
TORSDOF 6
