REMARK  Name = ZINC39912453
REMARK  10 active torsions:
REMARK  status: ('A' for Active; 'I' for Inactive)
REMARK    1  A    between atoms: C_1  and  C_2
REMARK    2  A    between atoms: C_4  and  C_38
REMARK    3  A    between atoms: C_5  and  O_37
REMARK    4  A    between atoms: C_6  and  C_8
REMARK    5  A    between atoms: N_16  and  C_29
REMARK    6  A    between atoms: C_17  and  C_19
REMARK    7  A    between atoms: C_23  and  O_25
REMARK    8  A    between atoms: O_25  and  C_26
REMARK    9  A    between atoms: C_26  and  C_27
REMARK   10  A    between atoms: C_29  and  C_30
REMARK                            x       y       z     vdW  Elec       q    Type
REMARK                         _______ _______ _______ _____ _____    ______ ____
ROOT
ATOM      1  C   UNL     1      -0.197  -3.102   2.762  0.00  0.00    +0.102 A 
ATOM      2  C   UNL     1       0.034  -2.388   3.943  0.00  0.00    +0.035 A 
ATOM      3  C   UNL     1       0.080  -3.331   4.951  0.00  0.00    +0.126 A 
ATOM      4  N   UNL     1      -0.120  -4.541   4.348  0.00  0.00    -0.272 N 
ATOM      5  H   UNL     1      -0.140  -5.395   4.806  0.00  0.00    +0.189 HD
ATOM      6  N   UNL     1      -0.282  -4.378   3.083  0.00  0.00    -0.173 NA
ATOM      7  C   UNL     1       0.321  -2.643   6.224  0.00  0.00    +0.266 C 
ATOM      8  O   UNL     1       0.416  -3.194   7.304  0.00  0.00    -0.268 OA
ATOM      9  N   UNL     1       0.423  -1.316   6.027  0.00  0.00    -0.281 N 
ATOM     10  C   UNL     1       0.253  -1.049   4.593  0.00  0.00    +0.142 C 
ENDROOT
BRANCH   1  16
ATOM     11  C   UNL     1       1.464  -0.039  -0.813  0.00  0.00    +0.044 C 
ATOM     12  C   UNL     1       0.467  -1.056  -0.323  0.00  0.00    -0.049 A 
ATOM     13  C   UNL     1      -0.573  -1.454  -1.144  0.00  0.00    +0.010 A 
ATOM     14  C   UNL     1      -1.492  -2.387  -0.703  0.00  0.00    -0.008 A 
ATOM     15  C   UNL     1      -1.377  -2.928   0.567  0.00  0.00    +0.129 A 
ATOM     16  C   UNL     1      -0.328  -2.528   1.399  0.00  0.00    +0.044 A 
ATOM     17  C   UNL     1       0.597  -1.592   0.943  0.00  0.00    +0.017 A 
ATOM     18  C   UNL     1      -2.622  -2.815  -1.604  0.00  0.00    +0.047 C 
BRANCH  15  19
ATOM     19  O   UNL     1      -2.281  -3.844   1.003  0.00  0.00    -0.506 OA
ATOM     20  H   UNL     1      -2.039  -4.760   0.806  0.00  0.00    +0.292 HD
ENDBRANCH  15  19
ENDBRANCH   1  16
BRANCH  10  21
ATOM     21  C   UNL     1      -0.944  -0.162   4.369  0.00  0.00    -0.019 A 
ATOM     22  C   UNL     1      -2.105  -0.372   5.091  0.00  0.00    +0.006 A 
ATOM     23  C   UNL     1      -3.205   0.441   4.888  0.00  0.00    +0.004 A 
ATOM     24  C   UNL     1      -3.147   1.464   3.962  0.00  0.00    +0.045 A 
ATOM     25  C   UNL     1      -1.985   1.677   3.236  0.00  0.00    +0.121 A 
ATOM     26  C   UNL     1      -0.880   0.864   3.446  0.00  0.00    +0.051 A 
BRANCH  25  27
ATOM     27  O   UNL     1      -1.926   2.683   2.325  0.00  0.00    -0.488 OA
BRANCH  27  28
ATOM     28  C   UNL     1      -3.099   3.484   2.165  0.00  0.00    +0.256 C 
BRANCH  28  29
ATOM     29  C   UNL     1      -2.848   4.540   1.120  0.00  0.00    +0.006 C 
ATOM     30  C   UNL     1      -3.748   4.777   0.199  0.00  0.00    +0.007 C 
ENDBRANCH  28  29
ENDBRANCH  27  28
ENDBRANCH  25  27
ENDBRANCH  10  21
BRANCH   9  31
ATOM     31  C   UNL     1       0.663  -0.311   7.065  0.00  0.00    +0.145 C 
BRANCH  31  32
ATOM     32  C   UNL     1       2.147  -0.102   7.228  0.00  0.00    -0.012 A 
ATOM     33  C   UNL     1       2.822  -0.719   8.265  0.00  0.00    +0.006 A 
ATOM     34  C   UNL     1       4.183  -0.528   8.415  0.00  0.00    +0.000 A 
ATOM     35  C   UNL     1       4.869   0.281   7.528  0.00  0.00    +0.001 A 
ATOM     36  C   UNL     1       4.196   0.899   6.492  0.00  0.00    +0.020 A 
ATOM     37  C   UNL     1       2.835   0.703   6.338  0.00  0.00    +0.046 A 
ATOM     38 CL   UNL     1       1.989   1.474   5.032  0.00  0.00    -0.083 Cl
ENDBRANCH  31  32
ENDBRANCH   9  31
TORSDOF 8
