REMARK  Name = ZINC49101481
REMARK  6 active torsions:
REMARK  status: ('A' for Active; 'I' for Inactive)
REMARK    1  A    between atoms: C_1  and  C_2
REMARK    2  A    between atoms: C_5  and  C_14
REMARK    3  A    between atoms: N_16  and  C_17
REMARK    4  A    between atoms: C_17  and  C_19
REMARK    5  A    between atoms: C_17  and  C_20
REMARK    6  A    between atoms: N_22  and  C_23
REMARK                            x       y       z     vdW  Elec       q    Type
REMARK                         _______ _______ _______ _____ _____    ______ ____
ROOT
ATOM      1  C   UNL     1      -0.094   1.701   0.112  0.00  0.00    +0.028 C 
ATOM      2  C   UNL     1      -0.122   0.199  -0.179  0.00  0.00    +0.068 C 
ATOM      3  C   UNL     1      -1.565  -0.317  -0.111  0.00  0.00    +0.039 C 
ATOM      4  C   UNL     1      -2.149   0.026   1.259  0.00  0.00    +0.108 C 
ATOM      5  C   UNL     1      -1.226  -0.438   2.356  0.00  0.00    -0.015 A 
ATOM      6  C   UNL     1      -1.738  -0.619   3.630  0.00  0.00    +0.006 A 
ATOM      7  C   UNL     1      -0.916  -1.040   4.657  0.00  0.00    +0.000 A 
ATOM      8  C   UNL     1       0.424  -1.285   4.420  0.00  0.00    +0.002 A 
ATOM      9  C   UNL     1       0.942  -1.108   3.153  0.00  0.00    +0.023 A 
ATOM     10  C   UNL     1       0.117  -0.684   2.116  0.00  0.00    +0.031 A 
ATOM     11  N   UNL     1       0.661  -0.519   0.837  0.00  0.00    -0.341 N 
ATOM     12  H   UNL     1       1.538  -0.873   0.623  0.00  0.00    +0.146 HD
ENDROOT
BRANCH   4  13
ATOM     13  C   UNL     1      -3.484  -0.654   1.417  0.00  0.00    +0.221 C 
ATOM     14  O   UNL     1      -3.656  -1.765   0.962  0.00  0.00    -0.275 OA
ATOM     15  N   UNL     1      -4.487  -0.028   2.064  0.00  0.00    -0.304 N 
ATOM     16  H   UNL     1      -4.374   0.888   2.363  0.00  0.00    +0.149 HD
BRANCH  15  17
ATOM     17  C   UNL     1      -5.748  -0.730   2.315  0.00  0.00    +0.156 C 
ATOM     18  C   UNL     1      -5.627  -1.551   3.600  0.00  0.00    +0.038 C 
BRANCH  17  19
ATOM     19  C   UNL     1      -6.862   0.274   2.462  0.00  0.00    +0.233 C 
ATOM     20  O   UNL     1      -6.626   1.460   2.367  0.00  0.00    -0.274 OA
ATOM     21  N   UNL     1      -8.120  -0.146   2.700  0.00  0.00    -0.317 N 
ATOM     22  C   UNL     1      -9.203   0.831   2.844  0.00  0.00    +0.128 C 
ATOM     23  H   UNL     1      -8.309  -1.094   2.776  0.00  0.00    +0.148 HD
ENDBRANCH  17  19
ENDBRANCH  15  17
ENDBRANCH   4  13
TORSDOF 3
