REMARK  Name = ZINC63256849
REMARK  9 active torsions:
REMARK  status: ('A' for Active; 'I' for Inactive)
REMARK    1  A    between atoms: C_1  and  C_2
REMARK    2  A    between atoms: C_5  and  N_11
REMARK    3  A    between atoms: C_6  and  N_8
REMARK    4  A    between atoms: C_12  and  C_14
REMARK    5  A    between atoms: C_14  and  S_15
REMARK    6  A    between atoms: S_15  and  C_16
REMARK    7  A    between atoms: C_19  and  C_28
REMARK    8  A    between atoms: N_20  and  C_21
REMARK    9  A    between atoms: C_26  and  C_27
REMARK                            x       y       z     vdW  Elec       q    Type
REMARK                         _______ _______ _______ _____ _____    ______ ____
ROOT
ATOM      1  C   UNL     1      -0.494  -8.390  -2.920  0.00  0.00    +0.197 A 
ATOM      2  N   UNL     1      -0.459  -9.121  -1.816  0.00  0.00    -0.122 NA
ATOM      3  N   UNL     1      -0.565 -10.368  -2.106  0.00  0.00    -0.128 NA
ATOM      4  C   UNL     1      -0.674 -10.516  -3.419  0.00  0.00    +0.168 A 
ATOM      5  N   UNL     1      -0.637  -9.246  -3.972  0.00  0.00    -0.270 N 
ENDROOT
BRANCH   4   6
ATOM      6  C   UNL     1      -0.809 -11.727  -4.115  0.00  0.00    +0.025 C 
ATOM      7  C   UNL     1      -0.860 -13.011  -3.572  0.00  0.00    +0.006 A 
ATOM      8  C   UNL     1      -0.798 -13.488  -2.245  0.00  0.00    +0.010 A 
ATOM      9  C   UNL     1      -0.874 -14.822  -2.005  0.00  0.00    +0.001 A 
ATOM     10  C   UNL     1      -1.013 -15.745  -3.043  0.00  0.00    +0.002 A 
ATOM     11  C   UNL     1      -1.078 -15.358  -4.341  0.00  0.00    +0.026 A 
ATOM     12  C   UNL     1      -1.006 -13.980  -4.670  0.00  0.00    +0.043 A 
ATOM     13  N   UNL     1      -1.045 -13.358  -5.832  0.00  0.00    -0.380 N 
ATOM     14  C   UNL     1      -0.935 -11.913  -5.611  0.00  0.00    +0.152 C 
ATOM     15  H   UNL     1      -1.136 -13.788  -6.696  0.00  0.00    +0.160 HD
ENDBRANCH   4   6
BRANCH   5  16
ATOM     16  C   UNL     1      -0.726  -8.911  -5.329  0.00  0.00    +0.053 A 
ATOM     17  C   UNL     1       0.425  -8.832  -6.103  0.00  0.00    +0.026 A 
ATOM     18  C   UNL     1       0.335  -8.502  -7.441  0.00  0.00    +0.002 A 
ATOM     19  C   UNL     1      -0.900  -8.251  -8.011  0.00  0.00    +0.000 A 
ATOM     20  C   UNL     1      -2.048  -8.329  -7.243  0.00  0.00    +0.005 A 
ATOM     21  C   UNL     1      -1.964  -8.664  -5.906  0.00  0.00    -0.026 A 
ATOM     22  C   UNL     1      -3.216  -8.756  -5.072  0.00  0.00    +0.046 C 
ENDBRANCH   5  16
BRANCH   1  23
ATOM     23  S   UNL     1      -0.383  -6.634  -3.013  0.00  0.00    -0.076 S 
BRANCH  23  24
ATOM     24  C   UNL     1      -0.207  -6.114  -1.284  0.00  0.00    +0.173 C 
BRANCH  24  26
ATOM     25  N   UNL     1       0.038  -3.996  -0.029  0.00  0.00    -0.283 N 
ATOM     26  C   UNL     1      -0.101  -4.612  -1.220  0.00  0.00    +0.228 C 
ATOM     27  O   UNL     1      -0.140  -3.957  -2.240  0.00  0.00    -0.275 OA
ATOM     28  H   UNL     1       0.151  -4.522   0.779  0.00  0.00    +0.155 HD
BRANCH  25  33
ATOM     29  C   UNL     1      -0.037   1.669   0.263  0.00  0.00    +0.044 C 
ATOM     30  C   UNL     1      -0.018   0.164   0.186  0.00  0.00    -0.048 A 
ATOM     31  C   UNL     1      -0.652  -0.482  -0.860  0.00  0.00    +0.005 A 
ATOM     32  C   UNL     1      -0.635  -1.861  -0.934  0.00  0.00    +0.026 A 
ATOM     33  C   UNL     1       0.020  -2.599   0.043  0.00  0.00    +0.064 A 
ATOM     34  C   UNL     1       0.655  -1.948   1.092  0.00  0.00    +0.148 A 
ATOM     35  C   UNL     1       0.639  -0.568   1.157  0.00  0.00    +0.038 A 
BRANCH  34  36
ATOM     36  N   UNL     1       1.354  -2.731   2.135  0.00  0.00    +0.058 N 
ATOM     37  O   UNL     1       1.825  -2.171   3.098  0.00  0.00    -0.126 OA
ATOM     38  O   UNL     1       1.454  -3.931   2.025  0.00  0.00    -0.126 OA
ENDBRANCH  34  36
ENDBRANCH  25  33
ENDBRANCH  24  26
ENDBRANCH  23  24
ENDBRANCH   1  23
TORSDOF 7
