REMARK  Name = ZINC07252140
REMARK  7 active torsions:
REMARK  status: ('A' for Active; 'I' for Inactive)
REMARK    1  A    between atoms: C_1  and  C_2
REMARK    2  A    between atoms: C_2  and  C_3
REMARK    3  A    between atoms: C_2  and  C_4
REMARK    4  A    between atoms: C_4  and  C_6
REMARK    5  A    between atoms: C_4  and  S_12
REMARK    6  A    between atoms: S_12  and  C_13
REMARK    7  A    between atoms: C_15  and  C_19
REMARK                            x       y       z     vdW  Elec       q    Type
REMARK                         _______ _______ _______ _____ _____    ______ ____
ROOT
ATOM      1  S   UNL     1      -2.389  -0.076  -1.324  0.00  0.00    -0.073 S 
ENDROOT
BRANCH   1   2
ATOM      2  C   UNL     1      -4.045  -0.499  -0.894  0.00  0.00    +0.185 A 
ATOM      3  N   UNL     1      -4.425  -1.115   0.204  0.00  0.00    -0.201 NA
ATOM      4  C   UNL     1      -5.756  -1.271   0.196  0.00  0.00    +0.183 A 
ATOM      5  N   UNL     1      -6.238  -0.754  -0.912  0.00  0.00    -0.152 NA
ATOM      6  H   UNL     1      -5.178   0.205  -2.493  0.00  0.00    +0.191 HD
ATOM      7  N   UNL     1      -5.147  -0.242  -1.633  0.00  0.00    -0.253 N 
BRANCH   4   8
ATOM      8  C   UNL     1      -6.556  -1.922   1.263  0.00  0.00    +0.035 A 
ATOM      9  C   UNL     1      -5.925  -2.429   2.398  0.00  0.00    +0.013 A 
ATOM     10  C   UNL     1      -6.673  -3.033   3.388  0.00  0.00    +0.001 A 
ATOM     11  C   UNL     1      -8.047  -3.136   3.255  0.00  0.00    +0.001 A 
ATOM     12  C   UNL     1      -8.678  -2.634   2.132  0.00  0.00    +0.016 A 
ATOM     13  C   UNL     1      -7.940  -2.023   1.137  0.00  0.00    +0.029 A 
ATOM     14 BR   UNL     1      -8.806  -1.331  -0.395  0.00  0.00    -0.050 Br
ENDBRANCH   4   8
ENDBRANCH   1   2
BRANCH   1  15
ATOM     15  C   UNL     1      -1.422  -0.550   0.136  0.00  0.00    +0.143 C 
BRANCH  15  16
ATOM     16  C   UNL     1      -1.430  -2.050   0.278  0.00  0.00    +0.234 C 
ATOM     17  O   UNL     1      -1.607  -2.750  -0.696  0.00  0.00    -0.274 OA
ATOM     18  N   UNL     1      -1.239  -2.613   1.487  0.00  0.00    -0.239 N 
ATOM     19  C   UNL     1      -1.246  -3.955   1.614  0.00  0.00    +0.303 C 
ATOM     20  O   UNL     1      -1.424  -4.657   0.638  0.00  0.00    -0.253 OA
ATOM     21  N   UNL     1      -1.055  -4.518   2.824  0.00  0.00    -0.313 N 
ATOM     22  H   UNL     1      -1.097  -2.053   2.266  0.00  0.00    +0.159 HD
ATOM     23  H   UNL     1      -0.913  -3.958   3.603  0.00  0.00    +0.146 HD
ATOM     24  H   UNL     1      -1.060  -5.484   2.915  0.00  0.00    +0.146 HD
ENDBRANCH  15  16
BRANCH  15  26
ATOM     25  C   UNL     1       0.027   1.464  -0.162  0.00  0.00    +0.009 C 
ATOM     26  C   UNL     1       0.018  -0.060  -0.026  0.00  0.00    +0.005 C 
ATOM     27  C   UNL     1       0.836  -0.467   1.202  0.00  0.00    +0.009 C 
ENDBRANCH  15  26
ENDBRANCH   1  15
TORSDOF 5
