REMARK  Name = ZINC36694876
REMARK  8 active torsions:
REMARK  status: ('A' for Active; 'I' for Inactive)
REMARK    1  A    between atoms: C_1  and  C_2
REMARK    2  A    between atoms: C_7  and  C_9
REMARK    3  A    between atoms: C_7  and  C_10
REMARK    4  A    between atoms: N_13  and  C_17
REMARK    5  A    between atoms: C_17  and  C_18
REMARK    6  A    between atoms: N_20  and  C_21
REMARK    7  A    between atoms: C_24  and  C_27
REMARK    8  A    between atoms: C_27  and  C_29
REMARK                            x       y       z     vdW  Elec       q    Type
REMARK                         _______ _______ _______ _____ _____    ______ ____
ROOT
ATOM      1  C   UNL     1       0.089   1.377  -0.547  0.00  0.00    +0.007 C 
ATOM      2  C   UNL     1       0.137  -0.144  -0.382  0.00  0.00    -0.011 C 
ATOM      3  C   UNL     1      -1.283  -0.711  -0.455  0.00  0.00    +0.038 C 
ATOM      4  C   UNL     1      -1.238  -2.224  -0.270  0.00  0.00    +0.113 C 
ATOM      5  C   UNL     1      -0.605  -2.584   1.070  0.00  0.00    +0.041 C 
ATOM      6  C   UNL     1       0.812  -2.011   1.138  0.00  0.00    -0.032 C 
ATOM      7  C   UNL     1       0.754  -0.490   0.975  0.00  0.00    +0.009 C 
ATOM      8  C   UNL     1       1.660  -2.612   0.015  0.00  0.00    +0.011 C 
ATOM      9  C   UNL     1       1.438  -2.355   2.490  0.00  0.00    +0.011 C 
ATOM     10  C   UNL     1      -2.627  -2.810  -0.373  0.00  0.00    +0.247 C 
ATOM     11  O   UNL     1      -3.578  -2.572   0.340  0.00  0.00    -0.273 OA
ATOM     12  N   UNL     1      -2.585  -3.652  -1.426  0.00  0.00    -0.215 N 
ATOM     13  C   UNL     1      -1.373  -3.674  -1.992  0.00  0.00    +0.310 C 
ATOM     14  O   UNL     1      -1.089  -4.356  -2.957  0.00  0.00    -0.252 OA
ATOM     15  N   UNL     1      -0.501  -2.855  -1.372  0.00  0.00    -0.285 N 
ATOM     16  H   UNL     1       0.428  -2.711  -1.608  0.00  0.00    +0.151 HD
ENDROOT
BRANCH  12  17
ATOM     17  C   UNL     1      -3.726  -4.444  -1.892  0.00  0.00    +0.214 C 
BRANCH  17  18
ATOM     18  C   UNL     1      -4.501  -3.655  -2.915  0.00  0.00    +0.235 C 
ATOM     19  O   UNL     1      -4.137  -2.541  -3.225  0.00  0.00    -0.274 OA
ATOM     20  N   UNL     1      -5.600  -4.188  -3.486  0.00  0.00    -0.284 N 
ATOM     21  H   UNL     1      -5.935  -5.047  -3.185  0.00  0.00    +0.155 HD
BRANCH  20  22
ATOM     22  C   UNL     1      -6.254  -3.505  -4.509  0.00  0.00    +0.033 A 
ATOM     23  C   UNL     1      -7.639  -3.582  -4.619  0.00  0.00    +0.024 A 
ATOM     24  C   UNL     1      -8.287  -2.911  -5.624  0.00  0.00    +0.013 A 
ATOM     25  C   UNL     1      -7.553  -2.148  -6.541  0.00  0.00    +0.017 A 
ATOM     26  C   UNL     1      -6.159  -2.074  -6.426  0.00  0.00    +0.013 A 
ATOM     27  C   UNL     1      -5.520  -2.744  -5.415  0.00  0.00    +0.024 A 
BRANCH  25  28
ATOM     28  C   UNL     1      -8.243  -1.428  -7.619  0.00  0.00    +0.160 C 
ATOM     29  O   UNL     1      -9.437  -1.569  -7.775  0.00  0.00    -0.292 OA
ATOM     30  C   UNL     1      -7.466  -0.514  -8.531  0.00  0.00    +0.091 C 
ENDBRANCH  25  28
ENDBRANCH  20  22
ENDBRANCH  17  18
ENDBRANCH  12  17
TORSDOF 4
