REMARK  Name = ZINC63654248
REMARK  11 active torsions:
REMARK  status: ('A' for Active; 'I' for Inactive)
REMARK    1  A    between atoms: C_1  and  C_2
REMARK    2  A    between atoms: C_2  and  C_3
REMARK    3  A    between atoms: C_6  and  C_9
REMARK    4  A    between atoms: C_9  and  C_10
REMARK    5  A    between atoms: C_9  and  N_23
REMARK    6  A    between atoms: C_10  and  N_11
REMARK    7  A    between atoms: C_12  and  C_14
REMARK    8  A    between atoms: C_16  and  S_19
REMARK    9  A    between atoms: S_19  and  N_22
REMARK   10  A    between atoms: N_23  and  C_24
REMARK   11  A    between atoms: N_23  and  C_25
REMARK                            x       y       z     vdW  Elec       q    Type
REMARK                         _______ _______ _______ _____ _____    ______ ____
ROOT
ATOM      1  N   UNL     1      -4.705  -4.072   1.088  0.00  0.00    -0.313 N 
ATOM      2  C   UNL     1      -4.524  -5.406   1.167  0.00  0.00    +0.245 C 
ATOM      3  O   UNL     1      -5.005  -6.136   0.322  0.00  0.00    -0.270 OA
ATOM      4  H   UNL     1      -4.321  -3.490   1.762  0.00  0.00    +0.149 HD
ENDROOT
BRANCH   2   5
ATOM      5  C   UNL     1      -3.745  -5.978   2.277  0.00  0.00    +0.046 A 
ATOM      6  C   UNL     1      -3.527  -7.400   2.392  0.00  0.00    +0.049 A 
ATOM      7  C   UNL     1      -2.796  -7.796   3.454  0.00  0.00    +0.143 A 
ATOM      8  S   UNL     1      -2.417  -6.264   4.276  0.00  0.00    -0.076 S 
ATOM      9  C   UNL     1      -3.186  -5.182   3.251  0.00  0.00    +0.060 A 
BRANCH   7  10
ATOM     10  S   UNL     1      -2.331  -9.432   3.914  0.00  0.00    +0.062 S 
ATOM     11  O   UNL     1      -2.084  -9.405   5.313  0.00  0.00    -0.153 OA
ATOM     12  O   UNL     1      -3.285 -10.306   3.326  0.00  0.00    -0.153 OA
BRANCH  10  13
ATOM     13  N   UNL     1      -0.881  -9.753   3.183  0.00  0.00    -0.203 NA
ATOM     14  H   UNL     1      -0.460  -9.081   2.624  0.00  0.00    +0.144 HD
ATOM     15  H   UNL     1      -0.451 -10.613   3.314  0.00  0.00    +0.144 HD
ENDBRANCH  10  13
ENDBRANCH   7  10
ENDBRANCH   2   5
BRANCH   1  16
ATOM     16  C   UNL     1      -5.480  -3.503  -0.017  0.00  0.00    +0.094 C 
BRANCH  16  17
ATOM     17  C   UNL     1      -5.422  -1.975   0.054  0.00  0.00    -0.021 C 
BRANCH  17  21
ATOM     18  C   UNL     1      -1.405  -0.674  -0.598  0.00  0.00    -0.048 A 
ATOM     19  C   UNL     1      -1.908  -0.748   0.688  0.00  0.00    +0.004 A 
ATOM     20  C   UNL     1      -3.208  -1.168   0.898  0.00  0.00    +0.002 A 
ATOM     21  C   UNL     1      -4.005  -1.516  -0.176  0.00  0.00    -0.059 A 
ATOM     22  C   UNL     1      -3.503  -1.441  -1.462  0.00  0.00    +0.002 A 
ATOM     23  C   UNL     1      -2.204  -1.016  -1.673  0.00  0.00    +0.004 A 
BRANCH  18  25
ATOM     24  C   UNL     1       0.034   1.305  -1.000  0.00  0.00    +0.009 C 
ATOM     25  C   UNL     1       0.011  -0.215  -0.828  0.00  0.00    +0.032 C 
ENDBRANCH  18  25
ENDBRANCH  17  21
BRANCH  17  26
ATOM     26  N   UNL     1      -6.296  -1.404  -0.979  0.00  0.00    +0.382 N 
ATOM     27  C   UNL     1      -7.679  -1.838  -0.745  0.00  0.00    -0.096 C 
ATOM     28  C   UNL     1      -6.226   0.063  -0.923  0.00  0.00    -0.096 C 
ATOM     29  H   UNL     1      -5.994  -1.720  -1.889  0.00  0.00    -0.082 HD
ENDBRANCH  17  26
ENDBRANCH  16  17
ENDBRANCH   1  16
TORSDOF 8
