REMARK  Name = ZINC08918045
REMARK  7 active torsions:
REMARK  status: ('A' for Active; 'I' for Inactive)
REMARK    1  A    between atoms: C_1  and  C_2
REMARK    2  A    between atoms: C_2  and  C_4
REMARK    3  A    between atoms: C_2  and  N_17
REMARK    4  A    between atoms: N_6  and  C_7
REMARK    5  A    between atoms: C_7  and  C_8
REMARK    6  A    between atoms: C_8  and  C_9
REMARK    7  A    between atoms: C_20  and  C_36
REMARK                            x       y       z     vdW  Elec       q    Type
REMARK                         _______ _______ _______ _____ _____    ______ ____
ROOT
ATOM      1  N   UNL     1       6.327  -0.845  -4.039  0.00  0.00    -0.212 N 
ATOM      2  C   UNL     1       6.511  -2.105  -4.491  0.00  0.00    +0.253 C 
ATOM      3  O   UNL     1       6.479  -3.129  -3.842  0.00  0.00    -0.272 OA
ATOM      4  C   UNL     1       6.763  -1.970  -5.973  0.00  0.00    +0.153 C 
ATOM      5  C   UNL     1       8.084  -2.584  -6.370  0.00  0.00    +0.053 A 
ATOM      6  C   UNL     1       9.050  -1.873  -7.018  0.00  0.00    -0.015 A 
ATOM      7  C   UNL     1      10.154  -2.792  -7.234  0.00  0.00    +0.003 A 
ATOM      8  C   UNL     1      11.397  -2.641  -7.856  0.00  0.00    +0.010 A 
ATOM      9  C   UNL     1      12.215  -3.744  -7.880  0.00  0.00    +0.001 A 
ATOM     10  C   UNL     1      11.839  -4.952  -7.317  0.00  0.00    +0.002 A 
ATOM     11  C   UNL     1      10.614  -5.128  -6.696  0.00  0.00    +0.026 A 
ATOM     12  C   UNL     1       9.762  -4.026  -6.659  0.00  0.00    +0.047 A 
ATOM     13  N   UNL     1       8.511  -3.853  -6.141  0.00  0.00    -0.356 N 
ATOM     14  H   UNL     1       7.997  -4.536  -5.682  0.00  0.00    +0.166 HD
ATOM     15  C   UNL     1       8.977  -0.425  -7.431  0.00  0.00    +0.056 C 
ATOM     16  C   UNL     1       7.531   0.084  -7.340  0.00  0.00    +0.115 C 
ATOM     17  N   UNL     1       6.926  -0.507  -6.145  0.00  0.00    -0.266 N 
ATOM     18  C   UNL     1       6.505   0.061  -5.014  0.00  0.00    +0.313 C 
ATOM     19  O   UNL     1       6.308   1.253  -4.881  0.00  0.00    -0.252 OA
ATOM     20  C   UNL     1       5.604  -2.524  -6.804  0.00  0.00    +0.048 C 
ENDROOT
BRANCH   1  22
ATOM     21  C   UNL     1       7.062   0.380  -2.054  0.00  0.00    +0.038 C 
ATOM     22  C   UNL     1       5.973  -0.509  -2.658  0.00  0.00    +0.168 C 
BRANCH  22  23
ATOM     23  C   UNL     1       4.658   0.227  -2.641  0.00  0.00    +0.234 C 
ATOM     24  O   UNL     1       4.074   0.448  -3.681  0.00  0.00    -0.274 OA
ATOM     25  N   UNL     1       4.131   0.638  -1.471  0.00  0.00    -0.313 N 
ATOM     26  H   UNL     1       4.598   0.461  -0.639  0.00  0.00    +0.149 HD
BRANCH  25  27
ATOM     27  C   UNL     1       2.852   1.353  -1.455  0.00  0.00    +0.109 C 
BRANCH  27  28
ATOM     28  C   UNL     1       2.482   1.704  -0.013  0.00  0.00    +0.055 C 
BRANCH  28  29
ATOM     29  C   UNL     1       1.167   2.440   0.004  0.00  0.00    -0.027 A 
ATOM     30  C   UNL     1       1.148   3.822   0.011  0.00  0.00    +0.006 A 
ATOM     31  C   UNL     1      -0.057   4.497   0.026  0.00  0.00    +0.020 A 
ATOM     32  C   UNL     1      -1.247   3.790   0.033  0.00  0.00    +0.042 A 
ATOM     33  C   UNL     1      -1.229   2.407   0.021  0.00  0.00    +0.040 A 
ATOM     34  C   UNL     1      -0.021   1.732   0.012  0.00  0.00    +0.046 A 
ATOM     35 CL   UNL     1       0.002  -0.004   0.002  0.00  0.00    -0.083 Cl
ATOM     36 CL   UNL     1      -2.761   4.639   0.051  0.00  0.00    -0.083 Cl
ENDBRANCH  28  29
ENDBRANCH  27  28
ENDBRANCH  25  27
ENDBRANCH  22  23
ENDBRANCH   1  22
TORSDOF 5
