REMARK  Name = ZINC54355473
REMARK  7 active torsions:
REMARK  status: ('A' for Active; 'I' for Inactive)
REMARK    1  A    between atoms: C_1  and  C_2
REMARK    2  A    between atoms: C_3  and  N_11
REMARK    3  A    between atoms: C_7  and  N_8
REMARK    4  A    between atoms: N_14  and  C_15
REMARK    5  A    between atoms: N_19  and  C_21
REMARK    6  A    between atoms: C_21  and  C_23
REMARK    7  A    between atoms: C_21  and  C_24
REMARK                            x       y       z     vdW  Elec       q    Type
REMARK                         _______ _______ _______ _____ _____    ______ ____
ROOT
ATOM      1  N   UNL     1      -0.409   0.193  -2.478  0.00  0.00    -0.269 N 
ATOM      2  C   UNL     1      -0.692  -0.489  -3.606  0.00  0.00    +0.304 C 
ATOM      3  O   UNL     1      -0.661  -1.704  -3.606  0.00  0.00    -0.253 OA
ATOM      4  N   UNL     1      -1.010   0.177  -4.734  0.00  0.00    -0.298 N 
ATOM      5  H   UNL     1      -0.382   1.162  -2.491  0.00  0.00    +0.156 HD
ATOM      6  H   UNL     1      -1.035   1.147  -4.734  0.00  0.00    +0.150 HD
ENDROOT
BRANCH   1   9
ATOM      7  C   UNL     1      -1.254   1.373  -0.030  0.00  0.00    +0.048 C 
ATOM      8  C   UNL     1      -0.549   0.041  -0.072  0.00  0.00    +0.001 A 
ATOM      9  C   UNL     1      -0.154  -0.499  -1.289  0.00  0.00    +0.040 A 
ATOM     10  C   UNL     1       0.495  -1.726  -1.322  0.00  0.00    +0.024 A 
ATOM     11  C   UNL     1       0.745  -2.406  -0.146  0.00  0.00    +0.004 A 
ATOM     12  C   UNL     1       0.350  -1.866   1.063  0.00  0.00    +0.033 A 
ATOM     13  C   UNL     1      -0.292  -0.641   1.101  0.00  0.00    +0.131 A 
BRANCH  13  14
ATOM     14  N   UNL     1      -0.708  -0.064   2.399  0.00  0.00    +0.057 N 
ATOM     15  O   UNL     1      -0.804   1.134   2.525  0.00  0.00    -0.126 OA
ATOM     16  O   UNL     1      -0.952  -0.791   3.333  0.00  0.00    -0.126 OA
ENDBRANCH  13  14
ENDBRANCH   1   9
BRANCH   4  17
ATOM     17  C   UNL     1      -1.318  -0.563  -5.960  0.00  0.00    +0.056 C 
ATOM     18  C   UNL     1      -2.830  -0.903  -6.030  0.00  0.00    +0.002 C 
ATOM     19  C   UNL     1      -3.053  -1.023  -7.558  0.00  0.00    -0.076 C 
ATOM     20  N   UNL     1      -2.193   0.024  -8.149  0.00  0.00    +0.385 N 
ATOM     21  C   UNL     1      -1.099   0.324  -7.203  0.00  0.00    -0.056 C 
ATOM     22  H   UNL     1      -2.738   0.857  -8.316  0.00  0.00    -0.081 HD
BRANCH  20  23
ATOM     23  C   UNL     1      -1.628  -0.457  -9.417  0.00  0.00    -0.041 C 
ATOM     24  C   UNL     1      -2.762  -0.755 -10.400  0.00  0.00    -0.008 C 
BRANCH  23  25
ATOM     25  C   UNL     1      -0.725   0.601  -9.998  0.00  0.00    -0.061 A 
ATOM     26  C   UNL     1      -1.085   1.933  -9.925  0.00  0.00    +0.002 A 
ATOM     27  C   UNL     1      -0.257   2.903 -10.457  0.00  0.00    +0.000 A 
ATOM     28  C   UNL     1       0.932   2.541 -11.062  0.00  0.00    +0.000 A 
ATOM     29  C   UNL     1       1.293   1.208 -11.134  0.00  0.00    +0.000 A 
ATOM     30  C   UNL     1       0.466   0.238 -10.598  0.00  0.00    +0.002 A 
ENDBRANCH  23  25
ENDBRANCH  20  23
ENDBRANCH   4  17
TORSDOF 5
