REMARK  Name = ZINC22735050
REMARK  8 active torsions:
REMARK  status: ('A' for Active; 'I' for Inactive)
REMARK    1  A    between atoms: C_1  and  N_2
REMARK    2  A    between atoms: N_5  and  C_8
REMARK    3  A    between atoms: C_8  and  C_10
REMARK    4  A    between atoms: C_8  and  C_26
REMARK    5  A    between atoms: C_10  and  N_11
REMARK    6  A    between atoms: C_12  and  C_14
REMARK    7  A    between atoms: N_16  and  C_17
REMARK    8  A    between atoms: N_35  and  C_36
REMARK                            x       y       z     vdW  Elec       q    Type
REMARK                         _______ _______ _______ _____ _____    ______ ____
ROOT
ATOM      1  C   UNL     1      -5.247  -4.085  -1.304  0.00  0.00    +0.104 C 
ENDROOT
BRANCH   1   2
ATOM      2  C   UNL     1      -6.361  -5.033  -0.943  0.00  0.00    -0.028 A 
ATOM      3  C   UNL     1      -6.866  -5.050   0.344  0.00  0.00    +0.007 A 
ATOM      4  C   UNL     1      -7.887  -5.916   0.671  0.00  0.00    +0.024 A 
ATOM      5  C   UNL     1      -8.409  -6.788  -0.286  0.00  0.00    +0.033 A 
ATOM      6  C   UNL     1      -7.899  -6.767  -1.573  0.00  0.00    -0.026 A 
ATOM      7  C   UNL     1      -6.875  -5.890  -1.895  0.00  0.00    +0.010 A 
ATOM      8  C   UNL     1      -8.426  -7.675  -2.656  0.00  0.00    +0.038 C 
ATOM      9  C   UNL     1      -9.251  -8.800  -2.029  0.00  0.00    +0.024 C 
ATOM     10  C   UNL     1     -10.212  -8.171  -1.012  0.00  0.00    +0.105 C 
ATOM     11  N   UNL     1      -9.430  -7.649   0.111  0.00  0.00    -0.333 N 
ATOM     12  C   UNL     1     -10.301  -7.010   1.107  0.00  0.00    +0.129 C 
ENDBRANCH   1   2
BRANCH   1  17
ATOM     13  C   UNL     1      -1.306  -6.087   2.212  0.00  0.00    -0.096 C 
ATOM     14  N   UNL     1      -2.531  -5.696   1.502  0.00  0.00    +0.379 N 
ATOM     15  C   UNL     1      -2.647  -4.234   1.417  0.00  0.00    -0.064 C 
ATOM     16  C   UNL     1      -3.971  -3.868   0.743  0.00  0.00    +0.066 C 
ATOM     17  N   UNL     1      -4.022  -4.475  -0.594  0.00  0.00    -0.297 NA
ATOM     18  C   UNL     1      -3.906  -5.938  -0.510  0.00  0.00    +0.066 C 
ATOM     19  C   UNL     1      -2.582  -6.304   0.165  0.00  0.00    -0.064 C 
ATOM     20  H   UNL     1      -3.389  -6.072   2.078  0.00  0.00    -0.082 HD
ENDBRANCH   1  17
BRANCH   1  21
ATOM     21  C   UNL     1      -5.638  -2.661  -0.901  0.00  0.00    +0.128 C 
BRANCH  21  22
ATOM     22  N   UNL     1      -4.576  -1.733  -1.296  0.00  0.00    -0.306 N 
ATOM     23  C   UNL     1      -4.658  -0.431  -0.956  0.00  0.00    +0.299 C 
ATOM     24  O   UNL     1      -5.611  -0.029  -0.322  0.00  0.00    -0.265 OA
ATOM     25  H   UNL     1      -3.712  -2.098  -1.871  0.00  0.00    +0.149 HD
BRANCH  23  26
ATOM     26  C   UNL     1      -3.575   0.515  -1.358  0.00  0.00    +0.303 C 
ATOM     27  O   UNL     1      -2.622   0.113  -1.992  0.00  0.00    -0.265 OA
ATOM     28  N   UNL     1      -3.657   1.817  -1.018  0.00  0.00    -0.278 N 
ATOM     29  H   UNL     1      -4.487   2.169  -0.388  0.00  0.00    +0.155 HD
BRANCH  28  30
ATOM     30  C   UNL     1      -2.687   2.719  -1.466  0.00  0.00    +0.038 A 
ATOM     31  C   UNL     1      -2.113   2.556  -2.721  0.00  0.00    +0.027 A 
ATOM     32  C   UNL     1      -1.160   3.450  -3.167  0.00  0.00    +0.051 A 
ATOM     33  C   UNL     1      -0.768   4.509  -2.362  0.00  0.00    +0.166 A 
ATOM     34  C   UNL     1      -1.337   4.672  -1.101  0.00  0.00    +0.168 A 
ATOM     35  C   UNL     1      -2.293   3.775  -0.655  0.00  0.00    +0.072 A 
ATOM     36  O   UNL     1      -0.789   5.776  -0.515  0.00  0.00    -0.453 OA
ATOM     37  C   UNL     1      -0.181   6.519  -1.587  0.00  0.00    +0.466 C 
ATOM     38  O   UNL     1       0.137   5.511  -2.565  0.00  0.00    -0.453 OA
ENDBRANCH  28  30
ENDBRANCH  23  26
ENDBRANCH  21  22
ENDBRANCH   1  21
TORSDOF 6
