REMARK  Name = ZINC36660332
REMARK  11 active torsions:
REMARK  status: ('A' for Active; 'I' for Inactive)
REMARK    1  A    between atoms: C_1  and  C_2
REMARK    2  A    between atoms: C_2  and  C_3
REMARK    3  A    between atoms: C_3  and  N_4
REMARK    4  A    between atoms: C_10  and  N_17
REMARK    5  A    between atoms: C_11  and  C_12
REMARK    6  A    between atoms: C_12  and  O_14
REMARK    7  A    between atoms: O_14  and  C_15
REMARK    8  A    between atoms: C_15  and  C_16
REMARK    9  A    between atoms: C_18  and  C_20
REMARK   10  A    between atoms: N_25  and  S_26
REMARK   11  A    between atoms: S_26  and  C_29
REMARK                            x       y       z     vdW  Elec       q    Type
REMARK                         _______ _______ _______ _____ _____    ______ ____
ROOT
ATOM      1  N   UNL     1      -0.416  -7.345   2.434  0.00  0.00    -0.278 N 
ATOM      2  C   UNL     1       0.160  -7.809   3.561  0.00  0.00    +0.236 C 
ATOM      3  O   UNL     1       0.537  -7.033   4.413  0.00  0.00    -0.274 OA
ATOM      4  H   UNL     1      -0.717  -7.966   1.753  0.00  0.00    +0.155 HD
ENDROOT
BRANCH   1  11
ATOM      5  N   UNL     1      -0.789  -1.122   1.427  0.00  0.00    +0.383 N 
ATOM      6  C   UNL     1      -2.009  -1.595   0.759  0.00  0.00    -0.074 C 
ATOM      7  C   UNL     1      -1.768  -2.975   0.136  0.00  0.00    +0.018 C 
ATOM      8  C   UNL     1      -1.191  -3.880   1.215  0.00  0.00    -0.025 A 
ATOM      9  C   UNL     1      -0.665  -3.346   2.341  0.00  0.00    -0.021 A 
ATOM     10  S   UNL     1      -0.132  -4.739   3.289  0.00  0.00    -0.079 S 
ATOM     11  C   UNL     1      -0.577  -5.981   2.250  0.00  0.00    +0.086 A 
ATOM     12  C   UNL     1      -1.142  -5.328   1.163  0.00  0.00    +0.091 A 
ATOM     13  C   UNL     1      -0.574  -1.889   2.668  0.00  0.00    -0.035 C 
ATOM     14  H   UNL     1       0.001  -1.248   0.813  0.00  0.00    -0.081 HD
BRANCH  12  15
ATOM     15  C   UNL     1      -1.667  -6.070   0.014  0.00  0.00    +0.342 C 
ATOM     16  O   UNL     1      -0.940  -6.329  -0.926  0.00  0.00    -0.245 OA
BRANCH  15  17
ATOM     17  O   UNL     1      -2.957  -6.465  -0.001  0.00  0.00    -0.461 OA
BRANCH  17  18
ATOM     18  C   UNL     1      -3.401  -7.184  -1.154  0.00  0.00    +0.229 C 
ATOM     19  C   UNL     1      -4.879  -7.545  -0.991  0.00  0.00    +0.048 C 
ENDBRANCH  17  18
ENDBRANCH  15  17
ENDBRANCH  12  15
BRANCH   5  20
ATOM     20  C   UNL     1      -0.932   0.304   1.753  0.00  0.00    -0.079 C 
BRANCH  20  22
ATOM     21  C   UNL     1       0.235   2.314   2.670  0.00  0.00    +0.002 C 
ATOM     22  C   UNL     1       0.383   0.829   2.331  0.00  0.00    -0.022 C 
ENDBRANCH  20  22
ENDBRANCH   5  20
ENDBRANCH   1  11
BRANCH   2  23
ATOM     23  C   UNL     1       0.335  -9.293   3.762  0.00  0.00    +0.166 C 
ATOM     24  C   UNL     1      -0.921  -9.883   4.437  0.00  0.00    +0.031 C 
ATOM     25  C   UNL     1      -0.330 -10.933   5.414  0.00  0.00    +0.019 C 
ATOM     26  C   UNL     1       0.979 -10.237   5.864  0.00  0.00    +0.110 C 
ATOM     27  N   UNL     1       1.474  -9.545   4.657  0.00  0.00    -0.165 NA
BRANCH  27  28
ATOM     28  S   UNL     1       3.048  -9.123   4.358  0.00  0.00    +0.062 S 
ATOM     29  O   UNL     1       3.017  -8.138   3.335  0.00  0.00    -0.153 OA
ATOM     30  O   UNL     1       3.653  -8.890   5.623  0.00  0.00    -0.153 OA
BRANCH  28  31
ATOM     31  C   UNL     1       3.845 -10.537   3.672  0.00  0.00    +0.106 A 
ATOM     32  C   UNL     1       4.384 -11.499   4.506  0.00  0.00    +0.031 A 
ATOM     33  C   UNL     1       5.009 -12.608   3.968  0.00  0.00    +0.040 A 
ATOM     34  C   UNL     1       5.095 -12.756   2.594  0.00  0.00    +0.124 A 
ATOM     35  C   UNL     1       4.555 -11.792   1.760  0.00  0.00    +0.040 A 
ATOM     36  C   UNL     1       3.926 -10.686   2.300  0.00  0.00    +0.031 A 
ATOM     37  F   UNL     1       5.706 -13.840   2.068  0.00  0.00    -0.205 F 
ENDBRANCH  28  31
ENDBRANCH  27  28
ENDBRANCH   2  23
TORSDOF 9
