REMARK  Name = ZINC04492584
REMARK  9 active torsions:
REMARK  status: ('A' for Active; 'I' for Inactive)
REMARK    1  A    between atoms: C_1  and  C_2
REMARK    2  A    between atoms: C_2  and  O_3
REMARK    3  A    between atoms: O_3  and  C_4
REMARK    4  A    between atoms: C_4  and  C_6
REMARK    5  A    between atoms: C_7  and  C_24
REMARK    6  A    between atoms: C_12  and  C_14
REMARK    7  A    between atoms: C_16  and  O_22
REMARK    8  A    between atoms: C_17  and  O_21
REMARK    9  A    between atoms: O_22  and  C_23
REMARK                            x       y       z     vdW  Elec       q    Type
REMARK                         _______ _______ _______ _____ _____    ______ ____
ROOT
ATOM      1  C   UNL     1       1.112   1.758  -1.023  0.00  0.00    +0.078 C 
ATOM      2  C   UNL     1       0.101   0.869  -0.915  0.00  0.00    +0.021 C 
ATOM      3  N   UNL     1       0.348  -0.458  -0.710  0.00  0.00    -0.273 N 
ATOM      4  C   UNL     1       1.578  -0.976  -0.601  0.00  0.00    +0.304 C 
ATOM      5  O   UNL     1       1.699  -2.172  -0.419  0.00  0.00    -0.252 OA
ATOM      6  N   UNL     1       2.687  -0.215  -0.688  0.00  0.00    -0.288 N 
ATOM      7  C   UNL     1       2.529   1.232  -0.909  0.00  0.00    +0.144 C 
ATOM      8  C   UNL     1      -1.323   1.349  -1.030  0.00  0.00    +0.061 C 
ATOM      9  H   UNL     1      -0.409  -1.060  -0.639  0.00  0.00    +0.156 HD
ATOM     10  H   UNL     1       3.569  -0.611  -0.607  0.00  0.00    +0.151 HD
ENDROOT
BRANCH   7  11
ATOM     11  C   UNL     1       3.261   1.591  -2.176  0.00  0.00    -0.017 A 
ATOM     12  C   UNL     1       3.080   0.831  -3.317  0.00  0.00    +0.055 A 
ATOM     13  C   UNL     1       3.748   1.162  -4.485  0.00  0.00    +0.163 A 
ATOM     14  C   UNL     1       4.609   2.255  -4.504  0.00  0.00    +0.177 A 
ATOM     15  C   UNL     1       4.790   3.011  -3.356  0.00  0.00    +0.086 A 
ATOM     16  C   UNL     1       4.116   2.677  -2.195  0.00  0.00    +0.029 A 
ATOM     17 CL   UNL     1       5.863   4.376  -3.375  0.00  0.00    -0.080 Cl
BRANCH  14  18
ATOM     18  O   UNL     1       5.271   2.582  -5.646  0.00  0.00    -0.502 OA
ATOM     19  H   UNL     1       6.132   2.153  -5.738  0.00  0.00    +0.292 HD
ENDBRANCH  14  18
BRANCH  13  20
ATOM     20  O   UNL     1       3.567   0.418  -5.608  0.00  0.00    -0.491 OA
ATOM     21  C   UNL     1       2.583  -0.616  -5.550  0.00  0.00    +0.277 C 
ENDBRANCH  13  20
ENDBRANCH   7  11
BRANCH   1  22
ATOM     22  C   UNL     1       0.857   3.133  -1.237  0.00  0.00    +0.339 C 
ATOM     23  O   UNL     1      -0.282   3.520  -1.415  0.00  0.00    -0.245 OA
BRANCH  22  24
ATOM     24  O   UNL     1       1.878   4.015  -1.242  0.00  0.00    -0.462 OA
BRANCH  24  26
ATOM     25  C   UNL     1       2.831   6.219  -1.516  0.00  0.00    +0.048 C 
ATOM     26  C   UNL     1       1.547   5.389  -1.455  0.00  0.00    +0.229 C 
ENDBRANCH  24  26
ENDBRANCH  22  24
ENDBRANCH   1  22
TORSDOF 6
