REMARK  Name = ZINC01022832
REMARK  14 active torsions:
REMARK  status: ('A' for Active; 'I' for Inactive)
REMARK    1  A    between atoms: C_1  and  C_2
REMARK    2  A    between atoms: C_2  and  C_3
REMARK    3  A    between atoms: C_4  and  C_34
REMARK    4  A    between atoms: C_6  and  C_32
REMARK    5  A    between atoms: C_7  and  S_9
REMARK    6  A    between atoms: S_9  and  C_10
REMARK    7  A    between atoms: C_10  and  C_11
REMARK    8  A    between atoms: C_12  and  C_27
REMARK    9  A    between atoms: C_13  and  C_21
REMARK   10  A    between atoms: C_15  and  C_19
REMARK   11  A    between atoms: C_16  and  N_18
REMARK   12  A    between atoms: C_27  and  O_29
REMARK   13  A    between atoms: O_29  and  C_30
REMARK   14  A    between atoms: C_30  and  C_31
REMARK                            x       y       z     vdW  Elec       q    Type
REMARK                         _______ _______ _______ _____ _____    ______ ____
ROOT
ATOM      1  C   UNL     1      -3.157  -1.174  -5.420  0.00  0.00    +0.128 C 
ATOM      2  C   UNL     1      -3.769  -0.142  -6.015  0.00  0.00    +0.088 C 
ATOM      3  C   UNL     1      -4.500  -0.317  -7.318  0.00  0.00    +0.105 C 
ATOM      4  C   UNL     1      -4.091  -1.612  -7.966  0.00  0.00    +0.098 C 
ATOM      5  C   UNL     1      -3.453  -2.573  -7.255  0.00  0.00    +0.198 C 
ATOM      6  O   UNL     1      -3.159  -2.405  -5.954  0.00  0.00    -0.444 OA
ENDROOT
BRANCH   3   7
ATOM      7  C   UNL     1      -5.985  -0.336  -7.060  0.00  0.00    -0.034 A 
ATOM      8  C   UNL     1      -6.530  -1.300  -6.232  0.00  0.00    +0.004 A 
ATOM      9  C   UNL     1      -7.892  -1.317  -5.995  0.00  0.00    +0.000 A 
ATOM     10  C   UNL     1      -8.708  -0.371  -6.586  0.00  0.00    +0.000 A 
ATOM     11  C   UNL     1      -8.163   0.593  -7.413  0.00  0.00    +0.000 A 
ATOM     12  C   UNL     1      -6.801   0.613  -7.646  0.00  0.00    +0.004 A 
ENDBRANCH   3   7
BRANCH   5  13
ATOM     13  N   UNL     1      -3.095  -3.743  -7.878  0.00  0.00    -0.328 N 
ATOM     14  H   UNL     1      -3.299  -3.874  -8.817  0.00  0.00    +0.145 HD
ATOM     15  H   UNL     1      -2.638  -4.438  -7.379  0.00  0.00    +0.145 HD
ENDBRANCH   5  13
BRANCH   4  16
ATOM     16  C   UNL     1      -4.380  -1.831  -9.351  0.00  0.00    +0.101 C 
ATOM     17  N   UNL     1      -4.609  -2.006 -10.450  0.00  0.00    -0.191 NA
ENDBRANCH   4  16
BRANCH   2  18
ATOM     18  C   UNL     1      -3.727   1.137  -5.407  0.00  0.00    +0.339 C 
ATOM     19  O   UNL     1      -2.949   1.978  -5.814  0.00  0.00    -0.245 OA
BRANCH  18  20
ATOM     20  O   UNL     1      -4.551   1.421  -4.377  0.00  0.00    -0.462 OA
BRANCH  20  21
ATOM     21  C   UNL     1      -4.456   2.730  -3.812  0.00  0.00    +0.229 C 
ATOM     22  C   UNL     1      -5.459   2.865  -2.665  0.00  0.00    +0.048 C 
ENDBRANCH  20  21
ENDBRANCH  18  20
ENDBRANCH   2  18
BRANCH   1  23
ATOM     23  C   UNL     1      -2.438  -0.944  -4.115  0.00  0.00    +0.150 C 
BRANCH  23  24
ATOM     24  S   UNL     1      -3.430  -1.615  -2.752  0.00  0.00    -0.097 S 
BRANCH  24  29
ATOM     25  C   UNL     1      -0.554  -0.375  -0.387  0.00  0.00    +0.045 A 
ATOM     26  C   UNL     1      -0.951  -0.725   0.891  0.00  0.00    -0.028 A 
ATOM     27  C   UNL     1      -2.158  -1.377   1.076  0.00  0.00    +0.026 A 
ATOM     28  C   UNL     1      -2.940  -1.660  -0.050  0.00  0.00    +0.084 A 
ATOM     29  C   UNL     1      -2.468  -1.272  -1.316  0.00  0.00    +0.115 A 
ATOM     30  N   UNL     1      -1.307  -0.646  -1.435  0.00  0.00    -0.244 NA
ATOM     31  C   UNL     1      -0.075  -0.400   2.074  0.00  0.00    +0.045 C 
BRANCH  25  33
ATOM     32  C   UNL     1       0.541   1.847  -0.503  0.00  0.00    +0.010 C 
ATOM     33  C   UNL     1       0.760   0.335  -0.584  0.00  0.00    +0.052 C 
ENDBRANCH  25  33
BRANCH  28  34
ATOM     34  C   UNL     1      -4.197  -2.333   0.086  0.00  0.00    +0.102 C 
ATOM     35  N   UNL     1      -5.194  -2.867   0.194  0.00  0.00    -0.191 NA
ENDBRANCH  28  34
ENDBRANCH  24  29
ENDBRANCH  23  24
ENDBRANCH   1  23
TORSDOF 11
