REMARK  Name = ZINC61938057
REMARK  4 active torsions:
REMARK  status: ('A' for Active; 'I' for Inactive)
REMARK    1  A    between atoms: C_1  and  C_2
REMARK    2  A    between atoms: C_10  and  C_12
REMARK    3  A    between atoms: C_12  and  C_19
REMARK    4  A    between atoms: N_20  and  O_21
REMARK                            x       y       z     vdW  Elec       q    Type
REMARK                         _______ _______ _______ _____ _____    ______ ____
ROOT
ATOM      1  C   UNL     1      -1.554  -3.962  -1.570  0.00  0.00    +0.105 C 
ATOM      2  C   UNL     1      -0.311  -4.575  -0.984  0.00  0.00    +0.024 C 
ATOM      3  C   UNL     1       0.881  -3.599  -0.980  0.00  0.00    +0.001 C 
ATOM      4  C   UNL     1       0.989  -2.781  -2.282  0.00  0.00    +0.000 C 
ATOM      5  C   UNL     1       0.727  -3.614  -3.508  0.00  0.00    +0.000 C 
ATOM      6  C   UNL     1      -0.763  -3.477  -3.883  0.00  0.00    +0.001 C 
ATOM      7  C   UNL     1      -1.621  -4.326  -3.068  0.00  0.00    +0.024 C 
ENDROOT
BRANCH   1  16
ATOM      8  C   UNL     1      -2.944   1.648  -0.296  0.00  0.00    +0.039 C 
ATOM      9  C   UNL     1      -3.182   0.165  -0.588  0.00  0.00    +0.132 C 
ATOM     10  C   UNL     1      -2.363  -0.254  -1.833  0.00  0.00    +0.139 C 
ATOM     11  N   UNL     1      -2.439  -1.693  -2.002  0.00  0.00    -0.298 N 
ATOM     12  C   UNL     1      -3.501  -2.344  -2.792  0.00  0.00    +0.110 C 
ATOM     13  C   UNL     1      -4.865  -1.691  -2.525  0.00  0.00    +0.047 C 
ATOM     14  C   UNL     1      -4.994  -1.370  -1.050  0.00  0.00    +0.162 C 
ATOM     15  O   UNL     1      -4.525  -0.047  -0.827  0.00  0.00    -0.375 OA
ATOM     16  C   UNL     1      -1.502  -2.464  -1.415  0.00  0.00    +0.229 C 
ATOM     17  O   UNL     1      -0.618  -1.953  -0.761  0.00  0.00    -0.275 OA
ENDBRANCH   1  16
BRANCH   1  18
ATOM     18  C   UNL     1      -2.771  -4.503  -0.864  0.00  0.00    +0.147 C 
ATOM     19  N   UNL     1      -3.609  -5.251  -1.502  0.00  0.00    -0.076 NA
ATOM     20  N   UNL     1      -2.989  -4.199   0.462  0.00  0.00    -0.343 N 
ATOM     21  H   UNL     1      -2.324  -3.700   0.961  0.00  0.00    +0.144 HD
ATOM     22  H   UNL     1      -3.808  -4.486   0.896  0.00  0.00    +0.144 HD
BRANCH  19  23
ATOM     23  O   UNL     1      -4.752  -5.759  -0.838  0.00  0.00    -0.408 OA
ATOM     24  H   UNL     1      -5.320  -6.307  -1.397  0.00  0.00    +0.328 HD
ENDBRANCH  19  23
ENDBRANCH   1  18
TORSDOF 3
