REMARK  Name = ZINC28120982
REMARK  12 active torsions:
REMARK  status: ('A' for Active; 'I' for Inactive)
REMARK    1  A    between atoms: C_1  and  C_2
REMARK    2  A    between atoms: C_2  and  C_3
REMARK    3  A    between atoms: C_8  and  C_30
REMARK    4  A    between atoms: C_9  and  C_25
REMARK    5  A    between atoms: C_12  and  C_15
REMARK    6  A    between atoms: C_13  and  O_14
REMARK    7  A    between atoms: C_15  and  N_16
REMARK    8  A    between atoms: C_21  and  C_23
REMARK    9  A    between atoms: C_23  and  C_24
REMARK   10  A    between atoms: C_25  and  O_27
REMARK   11  A    between atoms: O_27  and  C_28
REMARK   12  A    between atoms: C_28  and  C_29
REMARK                            x       y       z     vdW  Elec       q    Type
REMARK                         _______ _______ _______ _____ _____    ______ ____
ROOT
ATOM      1  C   UNL     1       3.738   1.525  -1.446  0.00  0.00    -0.005 A 
ATOM      2  C   UNL     1       3.984   2.721  -2.056  0.00  0.00    +0.022 A 
ATOM      3  C   UNL     1       2.977   3.342  -2.798  0.00  0.00    +0.065 A 
ATOM      4  C   UNL     1       3.212   4.633  -3.467  0.00  0.00    +0.203 A 
ATOM      5  O   UNL     1       4.288   5.200  -3.398  0.00  0.00    -0.286 OA
ATOM      6  C   UNL     1       2.080   5.208  -4.228  0.00  0.00    +0.104 A 
ATOM      7  C   UNL     1       0.890   4.509  -4.262  0.00  0.00    +0.225 A 
ATOM      8  O   UNL     1       0.734   3.336  -3.632  0.00  0.00    -0.447 OA
ATOM      9  C   UNL     1       1.711   2.739  -2.923  0.00  0.00    +0.144 A 
ATOM     10  C   UNL     1       1.477   1.525  -2.291  0.00  0.00    +0.021 A 
ATOM     11  C   UNL     1       2.486   0.922  -1.559  0.00  0.00    +0.125 A 
ENDROOT
BRANCH   6  12
ATOM     12  C   UNL     1       2.220   6.495  -4.932  0.00  0.00    +0.117 A 
ATOM     13  N   UNL     1       1.305   7.188  -5.577  0.00  0.00    -0.239 NA
ATOM     14  C   UNL     1       1.572   8.358  -6.175  0.00  0.00    +0.079 A 
ATOM     15  C   UNL     1       0.683   9.197  -6.891  0.00  0.00    +0.029 A 
ATOM     16  C   UNL     1       1.118  10.358  -7.447  0.00  0.00    +0.002 A 
ATOM     17  C   UNL     1       2.439  10.770  -7.338  0.00  0.00    +0.001 A 
ATOM     18  C   UNL     1       3.340   9.982  -6.647  0.00  0.00    +0.017 A 
ATOM     19  C   UNL     1       2.913   8.805  -6.081  0.00  0.00    +0.040 A 
ATOM     20  S   UNL     1       3.677   7.511  -5.135  0.00  0.00    -0.067 S 
ENDBRANCH   6  12
BRANCH   1  22
ATOM     21  C   UNL     1       5.554  -0.161  -1.527  0.00  0.00    +0.009 C 
ATOM     22  C   UNL     1       4.824   0.854  -0.645  0.00  0.00    +0.035 C 
ENDBRANCH   1  22
BRANCH  11  23
ATOM     23  O   UNL     1       2.255  -0.266  -0.946  0.00  0.00    -0.506 OA
ATOM     24  H   UNL     1       1.269  -0.746  -1.032  0.00  0.00    +0.292 HD
ENDBRANCH  11  23
BRANCH   7  25
ATOM     25  C   UNL     1      -0.248   5.073  -5.018  0.00  0.00    +0.376 C 
ATOM     26  O   UNL     1      -1.069   5.766  -4.452  0.00  0.00    -0.241 OA
BRANCH  25  27
ATOM     27  O   UNL     1      -0.375   4.817  -6.335  0.00  0.00    -0.459 OA
BRANCH  27  28
ATOM     28  C   UNL     1      -1.517   5.404  -7.013  0.00  0.00    +0.229 C 
ATOM     29  C   UNL     1      -1.493   5.006  -8.490  0.00  0.00    +0.048 C 
ENDBRANCH  27  28
ENDBRANCH  25  27
ENDBRANCH   7  25
BRANCH  10  30
ATOM     30  C   UNL     1       0.129   0.862  -2.405  0.00  0.00    -0.035 C 
BRANCH  30  31
ATOM     31  N   UNL     1      -0.681   1.190  -1.225  0.00  0.00    +0.384 N 
ATOM     32  C   UNL     1      -0.928   2.636  -1.141  0.00  0.00    -0.078 C 
ATOM     33  C   UNL     1      -1.646   2.957   0.171  0.00  0.00    -0.019 C 
ATOM     34  C   UNL     1      -2.970   2.191   0.224  0.00  0.00    -0.003 C 
ATOM     35  C   UNL     1      -2.689   0.692   0.086  0.00  0.00    -0.015 C 
ATOM     36  C   UNL     1      -1.941   0.436  -1.224  0.00  0.00    -0.068 C 
ATOM     37  H   UNL     1      -0.113   0.895  -0.330  0.00  0.00    -0.081 HD
BRANCH  36  38
ATOM     38  C   UNL     1      -1.640  -1.058  -1.355  0.00  0.00    -0.019 C 
ATOM     39  C   UNL     1      -2.954  -1.840  -1.412  0.00  0.00    +0.002 C 
ENDBRANCH  36  38
ENDBRANCH  30  31
ENDBRANCH  10  30
TORSDOF 9
