REMARK  Name = ZINC09325382
REMARK  6 active torsions:
REMARK  status: ('A' for Active; 'I' for Inactive)
REMARK    1  A    between atoms: C_1  and  N_2
REMARK    2  A    between atoms: C_3  and  C_5
REMARK    3  A    between atoms: C_9  and  N_10
REMARK    4  A    between atoms: C_11  and  C_13
REMARK    5  A    between atoms: C_23  and  O_25
REMARK    6  A    between atoms: O_25  and  C_26
REMARK                            x       y       z     vdW  Elec       q    Type
REMARK                         _______ _______ _______ _____ _____    ______ ____
ROOT
ATOM      1  C   UNL     1      -1.136  -2.160   0.001  0.00  0.00    +0.069 A 
ATOM      2  C   UNL     1      -1.119  -2.923   1.238  0.00  0.00    -0.020 A 
ATOM      3  C   UNL     1      -1.104  -4.261   1.057  0.00  0.00    +0.013 A 
ATOM      4  S   UNL     1      -1.107  -4.481  -0.697  0.00  0.00    -0.076 S 
ATOM      5  C   UNL     1      -1.138  -2.875  -1.186  0.00  0.00    +0.084 A 
ATOM      6  C   UNL     1      -1.091  -5.309   2.129  0.00  0.00    +0.153 C 
ATOM      7  N   UNL     1      -0.856  -4.615   3.411  0.00  0.00    -0.262 N 
ATOM      8  C   UNL     1      -1.575  -3.353   3.644  0.00  0.00    +0.116 C 
ATOM      9  C   UNL     1      -1.114  -2.305   2.628  0.00  0.00    +0.056 C 
ATOM     10  C   UNL     1      -0.015  -5.120   4.335  0.00  0.00    +0.403 C 
ATOM     11  O   UNL     1       0.162  -4.531   5.383  0.00  0.00    -0.226 OA
ENDROOT
BRANCH   1  14
ATOM     12  C   UNL     1      -0.018   1.461   0.010  0.00  0.00    +0.128 C 
ATOM     13  N   UNL     1       0.002  -0.004   0.002  0.00  0.00    -0.314 N 
ATOM     14  C   UNL     1      -1.156  -0.694   0.009  0.00  0.00    +0.246 C 
ATOM     15  O   UNL     1      -2.218  -0.100   0.023  0.00  0.00    -0.270 OA
ATOM     16  H   UNL     1       0.849  -0.478  -0.009  0.00  0.00    +0.149 HD
ENDBRANCH   1  14
BRANCH   5  17
ATOM     17  N   UNL     1      -1.158  -2.378  -2.480  0.00  0.00    -0.279 N 
ATOM     18  C   UNL     1      -1.157  -3.226  -3.528  0.00  0.00    +0.221 C 
ATOM     19  O   UNL     1      -1.138  -4.424  -3.338  0.00  0.00    -0.275 OA
ATOM     20  H   UNL     1      -1.173  -1.420  -2.632  0.00  0.00    +0.155 HD
BRANCH  18  21
ATOM     21  C   UNL     1      -1.178  -2.686  -4.934  0.00  0.00    +0.075 C 
ATOM     22  C   UNL     1      -2.441  -1.847  -5.139  0.00  0.00    +0.013 C 
ATOM     23  C   UNL     1      -2.463  -1.299  -6.568  0.00  0.00    +0.001 C 
ATOM     24  C   UNL     1      -2.457  -2.463  -7.561  0.00  0.00    +0.000 C 
ATOM     25  C   UNL     1      -1.194  -3.302  -7.356  0.00  0.00    +0.001 C 
ATOM     26  C   UNL     1      -1.172  -3.850  -5.928  0.00  0.00    +0.013 C 
ENDBRANCH  18  21
ENDBRANCH   5  17
BRANCH  10  27
ATOM     27  O   UNL     1       0.630  -6.278   4.096  0.00  0.00    -0.454 OA
ATOM     28  C   UNL     1       1.507  -6.755   5.119  0.00  0.00    +0.282 C 
ENDBRANCH  10  27
TORSDOF 4
