REMARK  Name = ZINC09459658
REMARK  12 active torsions:
REMARK  status: ('A' for Active; 'I' for Inactive)
REMARK    1  A    between atoms: C_1  and  C_2
REMARK    2  A    between atoms: C_5  and  N_8
REMARK    3  A    between atoms: C_9  and  C_11
REMARK    4  A    between atoms: C_11  and  C_37
REMARK    5  A    between atoms: N_13  and  C_29
REMARK    6  A    between atoms: C_17  and  C_18
REMARK    7  A    between atoms: C_20  and  O_26
REMARK    8  A    between atoms: C_23  and  O_24
REMARK    9  A    between atoms: O_24  and  C_25
REMARK   10  A    between atoms: O_26  and  C_27
REMARK   11  A    between atoms: C_32  and  C_36
REMARK   12  A    between atoms: C_33  and  C_35
REMARK                            x       y       z     vdW  Elec       q    Type
REMARK                         _______ _______ _______ _____ _____    ______ ____
ROOT
ATOM      1  C   UNL     1       0.991   5.072   0.055  0.00  0.00    +0.144 C 
ATOM      2  C   UNL     1       0.448   3.815  -0.225  0.00  0.00    +0.111 A 
ATOM      3  N   UNL     1      -0.806   3.512  -0.697  0.00  0.00    -0.269 N 
ATOM      4  C   UNL     1      -1.162   2.258  -0.916  0.00  0.00    +0.270 A 
ATOM      5  O   UNL     1      -2.267   1.975  -1.341  0.00  0.00    -0.266 OA
ATOM      6  C   UNL     1      -0.160   1.218  -0.619  0.00  0.00    +0.080 A 
ATOM      7  C   UNL     1      -0.255  -0.132  -0.744  0.00  0.00    +0.032 C 
ATOM      8  S   UNL     1       1.215   2.211  -0.057  0.00  0.00    -0.064 S 
ENDROOT
BRANCH   3   9
ATOM      9  C   UNL     1      -1.716   4.546  -0.955  0.00  0.00    +0.051 A 
ATOM     10  C   UNL     1      -1.683   5.213  -2.172  0.00  0.00    +0.026 A 
ATOM     11  C   UNL     1      -2.581   6.231  -2.424  0.00  0.00    +0.005 A 
ATOM     12  C   UNL     1      -3.513   6.586  -1.466  0.00  0.00    -0.047 A 
ATOM     13  C   UNL     1      -3.548   5.924  -0.253  0.00  0.00    -0.046 A 
ATOM     14  C   UNL     1      -2.656   4.900   0.003  0.00  0.00    +0.030 A 
ATOM     15  C   UNL     1      -4.564   6.314   0.789  0.00  0.00    +0.044 C 
ATOM     16  C   UNL     1      -4.492   7.698  -1.744  0.00  0.00    +0.044 C 
ENDBRANCH   3   9
BRANCH   7  17
ATOM     17  C   UNL     1      -1.549  -0.751  -1.055  0.00  0.00    +0.021 A 
ATOM     18  C   UNL     1      -2.727  -0.235  -0.503  0.00  0.00    +0.057 A 
ATOM     19  C   UNL     1      -3.942  -0.820  -0.805  0.00  0.00    +0.121 A 
ATOM     20  C   UNL     1      -3.995  -1.925  -1.647  0.00  0.00    +0.049 A 
ATOM     21  C   UNL     1      -2.837  -2.446  -2.192  0.00  0.00    +0.050 A 
ATOM     22  C   UNL     1      -1.612  -1.868  -1.904  0.00  0.00    +0.127 A 
BRANCH  22  23
ATOM     23  O   UNL     1      -0.474  -2.381  -2.440  0.00  0.00    -0.495 OA
ATOM     24  C   UNL     1      -0.615  -3.518  -3.295  0.00  0.00    +0.277 C 
ENDBRANCH  22  23
BRANCH  19  25
ATOM     25  O   UNL     1      -5.088  -0.317  -0.274  0.00  0.00    -0.495 OA
ATOM     26  C   UNL     1      -6.308  -0.973  -0.624  0.00  0.00    +0.277 C 
ENDBRANCH  19  25
ENDBRANCH   7  17
BRANCH   1  28
ATOM     27  N   UNL     1       2.908   6.399   0.754  0.00  0.00    -0.281 N 
ATOM     28  C   UNL     1       2.384   5.187   0.484  0.00  0.00    +0.261 C 
ATOM     29  O   UNL     1       3.071   4.188   0.598  0.00  0.00    -0.269 OA
ATOM     30  H   UNL     1       2.382   7.200   0.601  0.00  0.00    +0.155 HD
BRANCH  27  35
ATOM     31  C   UNL     1       8.188   6.818   2.784  0.00  0.00    +0.044 C 
ATOM     32  C   UNL     1       6.785   6.707   2.245  0.00  0.00    -0.050 A 
ATOM     33  C   UNL     1       6.477   5.725   1.321  0.00  0.00    +0.005 A 
ATOM     34  C   UNL     1       5.193   5.621   0.824  0.00  0.00    +0.023 A 
ATOM     35  C   UNL     1       4.210   6.502   1.255  0.00  0.00    +0.034 A 
ATOM     36  C   UNL     1       4.523   7.490   2.179  0.00  0.00    +0.023 A 
ATOM     37  C   UNL     1       5.809   7.586   2.675  0.00  0.00    +0.005 A 
ENDBRANCH  27  35
ENDBRANCH   1  28
BRANCH   1  38
ATOM     38  C   UNL     1       0.184   6.247  -0.078  0.00  0.00    +0.107 C 
ATOM     39  N   UNL     1      -0.457   7.179  -0.184  0.00  0.00    -0.191 NA
ENDBRANCH   1  38
TORSDOF 7
