REMARK  Name = ZINC11069591
REMARK  8 active torsions:
REMARK  status: ('A' for Active; 'I' for Inactive)
REMARK    1  A    between atoms: C_1  and  C_2
REMARK    2  A    between atoms: C_15  and  C_17
REMARK    3  A    between atoms: C_17  and  N_55
REMARK    4  A    between atoms: C_18  and  N_55
REMARK    5  A    between atoms: C_19  and  C_21
REMARK    6  A    between atoms: C_19  and  C_22
REMARK    7  A    between atoms: C_19  and  N_55
REMARK    8  A    between atoms: N_24  and  C_25
REMARK                            x       y       z     vdW  Elec       q    Type
REMARK                         _______ _______ _______ _____ _____    ______ ____
ROOT
ATOM      1  C   UNL     1       0.216   3.858  -2.407  0.00  0.00    +0.020 C 
ENDROOT
BRANCH   1  15
ATOM      2  C   UNL     1       0.133   5.461   1.937  0.00  0.00    +0.029 C 
ATOM      3  C   UNL     1       1.314   5.267   0.984  0.00  0.00    +0.087 C 
ATOM      4  C   UNL     1       2.502   4.692   1.756  0.00  0.00    +0.118 C 
ATOM      5  C   UNL     1       3.518   4.127   0.799  0.00  0.00    +0.219 C 
ATOM      6  O   UNL     1       4.541   4.739   0.576  0.00  0.00    -0.275 OA
ATOM      7  N   UNL     1       3.296   2.944   0.187  0.00  0.00    -0.284 N 
ATOM      8  C   UNL     1       2.079   2.274   0.357  0.00  0.00    +0.055 A 
ATOM      9  C   UNL     1       2.049   0.927   0.679  0.00  0.00    +0.025 A 
ATOM     10  C   UNL     1       0.835   0.279   0.813  0.00  0.00    +0.002 A 
ATOM     11  C   UNL     1      -0.348   0.968   0.620  0.00  0.00    +0.002 A 
ATOM     12  C   UNL     1      -0.327   2.314   0.304  0.00  0.00    +0.025 A 
ATOM     13  C   UNL     1       0.885   2.974   0.181  0.00  0.00    +0.058 A 
ATOM     14  N   UNL     1       0.926   4.348  -0.088  0.00  0.00    -0.268 N 
ATOM     15  C   UNL     1       0.614   4.816  -1.313  0.00  0.00    +0.204 C 
ATOM     16  O   UNL     1       0.652   6.008  -1.535  0.00  0.00    -0.277 OA
ATOM     17  H   UNL     1       3.985   2.556  -0.375  0.00  0.00    +0.155 HD
ENDBRANCH   1  15
BRANCH   1  19
ATOM     18  C   UNL     1       1.141   5.253  -4.157  0.00  0.00    -0.094 C 
ATOM     19  N   UNL     1      -0.091   4.631  -3.628  0.00  0.00    +0.391 N 
ATOM     20  H   UNL     1      -0.764   5.371  -3.395  0.00  0.00    -0.080 HD
BRANCH  19  21
ATOM     21  C   UNL     1      -0.688   3.745  -4.650  0.00  0.00    +0.017 C 
ATOM     22  C   UNL     1       0.116   2.448  -4.770  0.00  0.00    -0.004 C 
BRANCH  21  23
ATOM     23  C   UNL     1      -2.103   3.422  -4.244  0.00  0.00    +0.203 C 
ATOM     24  O   UNL     1      -2.487   3.685  -3.124  0.00  0.00    -0.277 OA
ATOM     25  N   UNL     1      -2.942   2.843  -5.126  0.00  0.00    -0.286 N 
ATOM     26  H   UNL     1      -2.661   2.707  -6.045  0.00  0.00    +0.155 HD
BRANCH  25  27
ATOM     27  C   UNL     1      -4.218   2.438  -4.716  0.00  0.00    +0.052 A 
ATOM     28  C   UNL     1      -4.484   2.235  -3.369  0.00  0.00    +0.026 A 
ATOM     29  C   UNL     1      -5.744   1.836  -2.967  0.00  0.00    +0.022 A 
ATOM     30  C   UNL     1      -6.741   1.638  -3.906  0.00  0.00    +0.042 A 
ATOM     31  C   UNL     1      -6.479   1.839  -5.250  0.00  0.00    +0.041 A 
ATOM     32  C   UNL     1      -5.222   2.244  -5.657  0.00  0.00    +0.064 A 
ATOM     33 CL   UNL     1      -4.896   2.503  -7.342  0.00  0.00    -0.082 Cl
ATOM     34 CL   UNL     1      -8.323   1.137  -3.397  0.00  0.00    -0.083 Cl
ENDBRANCH  25  27
ENDBRANCH  21  23
ENDBRANCH  19  21
ENDBRANCH   1  19
TORSDOF 5
