REMARK  Name = ZINC39695630
REMARK  9 active torsions:
REMARK  status: ('A' for Active; 'I' for Inactive)
REMARK    1  A    between atoms: C_1  and  C_2
REMARK    2  A    between atoms: C_2  and  N_3
REMARK    3  A    between atoms: C_7  and  C_9
REMARK    4  A    between atoms: C_9  and  N_10
REMARK    5  A    between atoms: C_11  and  C_13
REMARK    6  A    between atoms: C_24  and  C_26
REMARK    7  A    between atoms: C_26  and  O_27
REMARK    8  A    between atoms: O_27  and  C_28
REMARK    9  A    between atoms: C_38  and  C_39
REMARK                            x       y       z     vdW  Elec       q    Type
REMARK                         _______ _______ _______ _____ _____    ______ ____
ROOT
ATOM      1  C   UNL     1      -1.561  -1.275   4.977  0.00  0.00    +0.100 C 
ATOM      2  C   UNL     1      -0.136  -1.789   5.279  0.00  0.00    +0.121 C 
ATOM      3  N   UNL     1      -0.059  -1.833   6.759  0.00  0.00    -0.297 N 
ATOM      4  C   UNL     1      -1.392  -2.326   7.182  0.00  0.00    +0.115 C 
ATOM      5  C   UNL     1      -2.383  -1.630   6.228  0.00  0.00    -0.004 C 
ATOM      6  C   UNL     1      -3.518  -2.581   5.862  0.00  0.00    -0.010 C 
ATOM      7  C   UNL     1      -4.356  -2.873   7.110  0.00  0.00    -0.082 C 
ATOM      8  N   UNL     1      -4.895  -1.617   7.645  0.00  0.00    +0.379 N 
ATOM      9  C   UNL     1      -3.797  -0.746   8.081  0.00  0.00    -0.082 C 
ATOM     10  C   UNL     1      -2.936  -0.363   6.874  0.00  0.00    -0.010 C 
ATOM     11  C   UNL     1       0.985  -1.499   7.542  0.00  0.00    +0.253 C 
ATOM     12  O   UNL     1       0.893  -1.591   8.748  0.00  0.00    -0.272 OA
ATOM     13  H   UNL     1      -5.429  -1.150   6.928  0.00  0.00    -0.086 HD
ATOM     14  H   UNL     1      -5.496  -1.818   8.431  0.00  0.00    -0.086 HD
ENDROOT
BRANCH   1  16
ATOM     15  N   UNL     1      -3.029  -1.343   2.987  0.00  0.00    -0.317 N 
ATOM     16  C   UNL     1      -2.124  -1.971   3.765  0.00  0.00    +0.218 C 
ATOM     17  O   UNL     1      -1.763  -3.095   3.489  0.00  0.00    -0.275 OA
ATOM     18  H   UNL     1      -3.318  -0.444   3.208  0.00  0.00    +0.149 HD
BRANCH  15  19
ATOM     19  C   UNL     1      -3.576  -2.020   1.809  0.00  0.00    +0.089 C 
BRANCH  19  24
ATOM     20  N   UNL     1      -5.609  -0.659   2.062  0.00  0.00    +0.382 N 
ATOM     21  C   UNL     1      -6.923  -1.138   1.582  0.00  0.00    -0.078 C 
ATOM     22  C   UNL     1      -6.743  -1.324   0.055  0.00  0.00    -0.020 C 
ATOM     23  C   UNL     1      -5.289  -1.860  -0.026  0.00  0.00    -0.016 C 
ATOM     24  C   UNL     1      -4.574  -1.096   1.107  0.00  0.00    -0.051 C 
ATOM     25  H   UNL     1      -5.419  -1.051   2.972  0.00  0.00    -0.081 HD
BRANCH  20  27
ATOM     26  C   UNL     1      -6.606   1.251   3.226  0.00  0.00    -0.017 C 
ATOM     27  C   UNL     1      -5.618   0.807   2.145  0.00  0.00    -0.082 C 
ENDBRANCH  20  27
ENDBRANCH  19  24
ENDBRANCH  15  19
ENDBRANCH   1  16
BRANCH  11  28
ATOM     28  C   UNL     1       2.269  -1.013   6.920  0.00  0.00    +0.324 C 
BRANCH  28  29
ATOM     29  O   UNL     1       3.218  -0.725   7.949  0.00  0.00    -0.479 OA
BRANCH  29  30
ATOM     30  C   UNL     1       4.438  -0.272   7.554  0.00  0.00    +0.164 A 
ATOM     31  C   UNL     1       4.712  -0.103   6.209  0.00  0.00    +0.049 A 
ATOM     32  C   UNL     1       5.953   0.358   5.794  0.00  0.00    +0.004 A 
ATOM     33  C   UNL     1       6.930   0.655   6.717  0.00  0.00    +0.012 A 
ATOM     34  C   UNL     1       6.669   0.490   8.081  0.00  0.00    +0.024 A 
ATOM     35  C   UNL     1       5.412   0.028   8.504  0.00  0.00    +0.181 A 
ATOM     36  O   UNL     1       5.160  -0.126   9.822  0.00  0.00    -0.418 OA
ATOM     37  C   UNL     1       6.087   0.159  10.750  0.00  0.00    +0.338 A 
ATOM     38  O   UNL     1       5.815   0.004  11.927  0.00  0.00    -0.245 OA
ATOM     39  C   UNL     1       7.369   0.633  10.396  0.00  0.00    +0.096 A 
ATOM     40  C   UNL     1       7.689   0.798   9.088  0.00  0.00    -0.033 A 
ATOM     41  C   UNL     1       9.051   1.301   8.682  0.00  0.00    +0.045 C 
ENDBRANCH  29  30
ENDBRANCH  28  29
ENDBRANCH  11  28
TORSDOF 7
