REMARK  Name = ZINC21626617
REMARK  10 active torsions:
REMARK  status: ('A' for Active; 'I' for Inactive)
REMARK    1  A    between atoms: C_1  and  C_2
REMARK    2  A    between atoms: C_6  and  N_9
REMARK    3  A    between atoms: C_7  and  C_8
REMARK    4  A    between atoms: C_22  and  S_23
REMARK    5  A    between atoms: S_23  and  C_24
REMARK    6  A    between atoms: C_24  and  C_26
REMARK    7  A    between atoms: C_24  and  C_27
REMARK    8  A    between atoms: N_29  and  C_30
REMARK    9  A    between atoms: C_30  and  C_32
REMARK   10  A    between atoms: C_30  and  C_33
REMARK                            x       y       z     vdW  Elec       q    Type
REMARK                         _______ _______ _______ _____ _____    ______ ____
ROOT
ATOM      1  N   UNL     1      -1.173  -0.740   0.010  0.00  0.00    -0.245 N 
ATOM      2  C   UNL     1      -2.375  -0.127   0.025  0.00  0.00    +0.268 A 
ATOM      3  O   UNL     1      -3.401  -0.780   0.033  0.00  0.00    -0.267 OA
ATOM      4  C   UNL     1      -2.425   1.346   0.034  0.00  0.00    +0.064 A 
ATOM      5  C   UNL     1      -3.641   2.028   0.050  0.00  0.00    +0.015 A 
ATOM      6  C   UNL     1      -3.648   3.407   0.057  0.00  0.00    +0.001 A 
ATOM      7  C   UNL     1      -2.456   4.114   0.049  0.00  0.00    +0.002 A 
ATOM      8  C   UNL     1      -1.246   3.450   0.033  0.00  0.00    +0.027 A 
ATOM      9  C   UNL     1      -1.218   2.063   0.020  0.00  0.00    +0.064 A 
ATOM     10  N   UNL     1      -0.017   1.366   0.010  0.00  0.00    -0.255 N 
ATOM     11  C   UNL     1       0.002  -0.004   0.002  0.00  0.00    +0.245 A 
ATOM     12  N   UNL     1       1.262  -0.367  -0.012  0.00  0.00    -0.109 NA
ATOM     13  N   UNL     1       2.021   0.670  -0.014  0.00  0.00    -0.120 NA
ATOM     14  C   UNL     1       1.294   1.761  -0.001  0.00  0.00    +0.198 A 
ENDROOT
BRANCH   1  20
ATOM     15  C   UNL     1      -1.011  -4.955  -2.517  0.00  0.00    +0.044 C 
ATOM     16  C   UNL     1      -1.031  -4.207  -1.209  0.00  0.00    -0.046 A 
ATOM     17  C   UNL     1      -0.988  -4.903  -0.015  0.00  0.00    +0.004 A 
ATOM     18  C   UNL     1      -1.007  -4.220   1.188  0.00  0.00    +0.002 A 
ATOM     19  C   UNL     1      -1.063  -2.840   1.199  0.00  0.00    +0.026 A 
ATOM     20  C   UNL     1      -1.111  -2.138   0.002  0.00  0.00    +0.056 A 
ATOM     21  C   UNL     1      -1.092  -2.827  -1.204  0.00  0.00    -0.024 A 
ATOM     22  C   UNL     1      -1.138  -2.070  -2.507  0.00  0.00    +0.046 C 
ENDBRANCH   1  20
BRANCH  14  23
ATOM     23  S   UNL     1       1.891   3.419   0.002  0.00  0.00    -0.073 S 
BRANCH  23  24
ATOM     24  C   UNL     1       3.695   3.236  -0.016  0.00  0.00    +0.137 C 
ATOM     25  C   UNL     1       4.154   2.571   1.284  0.00  0.00    +0.029 C 
BRANCH  24  26
ATOM     26  C   UNL     1       4.336   4.594  -0.139  0.00  0.00    +0.227 C 
ATOM     27  O   UNL     1       3.741   5.582   0.237  0.00  0.00    -0.275 OA
ATOM     28  N   UNL     1       5.571   4.711  -0.666  0.00  0.00    -0.308 N 
ATOM     29  H   UNL     1       6.111   3.816  -1.006  0.00  0.00    +0.149 HD
BRANCH  28  30
ATOM     30  C   UNL     1       6.195   6.032  -0.785  0.00  0.00    +0.100 C 
ATOM     31  C   UNL     1       6.883   6.392   0.533  0.00  0.00    +0.033 C 
BRANCH  30  32
ATOM     32  C   UNL     1       7.215   6.007  -1.894  0.00  0.00    -0.027 A 
ATOM     33  C   UNL     1       8.034   4.906  -2.055  0.00  0.00    +0.005 A 
ATOM     34  C   UNL     1       8.967   4.882  -3.075  0.00  0.00    +0.000 A 
ATOM     35  C   UNL     1       9.087   5.963  -3.928  0.00  0.00    +0.000 A 
ATOM     36  C   UNL     1       8.270   7.066  -3.764  0.00  0.00    +0.000 A 
ATOM     37  C   UNL     1       7.335   7.089  -2.747  0.00  0.00    +0.005 A 
ENDBRANCH  30  32
ENDBRANCH  28  30
ENDBRANCH  24  26
ENDBRANCH  23  24
ENDBRANCH  14  23
TORSDOF 6
