REMARK  Name = ZINC25402283
REMARK  7 active torsions:
REMARK  status: ('A' for Active; 'I' for Inactive)
REMARK    1  A    between atoms: C_1  and  N_2
REMARK    2  A    between atoms: C_10  and  C_11
REMARK    3  A    between atoms: C_11  and  N_12
REMARK    4  A    between atoms: C_13  and  C_15
REMARK    5  A    between atoms: C_15  and  C_17
REMARK    6  A    between atoms: C_15  and  N_24
REMARK    7  A    between atoms: C_17  and  C_18
REMARK                            x       y       z     vdW  Elec       q    Type
REMARK                         _______ _______ _______ _____ _____    ______ ____
ROOT
ATOM      1  N   UNL     1      -3.699  -0.219   1.682  0.00  0.00    -0.307 N 
ATOM      2  C   UNL     1      -2.511   0.246   1.246  0.00  0.00    +0.234 C 
ATOM      3  O   UNL     1      -1.493  -0.039   1.840  0.00  0.00    -0.274 OA
ATOM      4  H   UNL     1      -4.622   0.039   1.143  0.00  0.00    +0.149 HD
ENDROOT
BRANCH   1   5
ATOM      5  C   UNL     1      -3.759  -1.069   2.874  0.00  0.00    +0.178 C 
BRANCH   5  15
ATOM      6  C   UNL     1      -5.217  -3.561   1.766  0.00  0.00    +0.150 C 
ATOM      7  N   UNL     1      -5.812  -2.554   2.648  0.00  0.00    -0.329 N 
ATOM      8  C   UNL     1      -7.107  -2.548   3.126  0.00  0.00    +0.069 A 
ATOM      9  C   UNL     1      -8.199  -3.391   2.971  0.00  0.00    +0.028 A 
ATOM     10  C   UNL     1      -9.387  -3.093   3.603  0.00  0.00    +0.002 A 
ATOM     11  C   UNL     1      -9.498  -1.957   4.392  0.00  0.00    +0.002 A 
ATOM     12  C   UNL     1      -8.434  -1.115   4.556  0.00  0.00    +0.030 A 
ATOM     13  C   UNL     1      -7.220  -1.398   3.925  0.00  0.00    +0.089 A 
ATOM     14  N   UNL     1      -6.013  -0.777   3.897  0.00  0.00    -0.231 NA
ATOM     15  C   UNL     1      -5.191  -1.451   3.146  0.00  0.00    +0.128 A 
ENDBRANCH   5  15
ENDBRANCH   1   5
BRANCH   2  16
ATOM     16  C   UNL     1      -2.449   1.120   0.020  0.00  0.00    +0.165 C 
BRANCH  16  17
ATOM     17  N   UNL     1      -1.191   1.870   0.018  0.00  0.00    -0.288 N 
ATOM     18  C   UNL     1      -0.014   1.212   0.009  0.00  0.00    +0.298 C 
ATOM     19  O   UNL     1       0.002  -0.004   0.002  0.00  0.00    -0.253 OA
ATOM     20  N   UNL     1       1.143   1.901   0.001  0.00  0.00    -0.313 N 
ATOM     21  H   UNL     1      -1.206   2.970   0.024  0.00  0.00    +0.151 HD
ATOM     22  H   UNL     1       2.103   1.364  -0.006  0.00  0.00    +0.146 HD
ATOM     23  H   UNL     1       1.129   3.001   0.003  0.00  0.00    +0.146 HD
ENDBRANCH  16  17
BRANCH  16  24
ATOM     24  C   UNL     1      -2.524   0.246  -1.234  0.00  0.00    +0.067 C 
BRANCH  24  25
ATOM     25  C   UNL     1      -2.586   1.125  -2.456  0.00  0.00    -0.045 A 
ATOM     26  C   UNL     1      -3.810   1.532  -2.954  0.00  0.00    +0.004 A 
ATOM     27  C   UNL     1      -3.866   2.343  -4.072  0.00  0.00    +0.000 A 
ATOM     28  C   UNL     1      -2.699   2.738  -4.699  0.00  0.00    +0.000 A 
ATOM     29  C   UNL     1      -1.475   2.327  -4.204  0.00  0.00    +0.000 A 
ATOM     30  C   UNL     1      -1.419   1.521  -3.083  0.00  0.00    +0.004 A 
ENDBRANCH  24  25
ENDBRANCH  16  24
ENDBRANCH   2  16
TORSDOF 6
