REMARK  Name = ZINC09669227
REMARK  8 active torsions:
REMARK  status: ('A' for Active; 'I' for Inactive)
REMARK    1  A    between atoms: C_1  and  O_2
REMARK    2  A    between atoms: O_2  and  C_3
REMARK    3  A    between atoms: C_3  and  C_4
REMARK    4  A    between atoms: C_4  and  O_5
REMARK    5  A    between atoms: O_5  and  C_6
REMARK    6  A    between atoms: C_6  and  C_8
REMARK    7  A    between atoms: C_9  and  N_32
REMARK    8  A    between atoms: C_23  and  C_25
REMARK                            x       y       z     vdW  Elec       q    Type
REMARK                         _______ _______ _______ _____ _____    ______ ____
ROOT
ATOM      1  C   UNL     1      -1.157   3.562  -0.354  0.00  0.00    +0.105 C 
ATOM      2  C   UNL     1       0.088   4.077  -0.526  0.00  0.00    +0.195 C 
ATOM      3  O   UNL     1       1.187   3.384  -0.183  0.00  0.00    -0.441 OA
ATOM      4  C   UNL     1       1.121   2.047  -0.028  0.00  0.00    +0.148 A 
ATOM      5  C   UNL     1       2.349   1.242  -0.073  0.00  0.00    +0.041 A 
ATOM      6  C   UNL     1       3.597   1.837  -0.275  0.00  0.00    +0.013 A 
ATOM      7  C   UNL     1       4.721   1.059  -0.310  0.00  0.00    +0.001 A 
ATOM      8  C   UNL     1       4.633  -0.316  -0.146  0.00  0.00    +0.002 A 
ATOM      9  C   UNL     1       3.412  -0.924   0.054  0.00  0.00    +0.026 A 
ATOM     10  C   UNL     1       2.255  -0.151   0.093  0.00  0.00    +0.053 A 
ATOM     11  N   UNL     1       1.019  -0.731   0.291  0.00  0.00    -0.322 N 
ATOM     12  H   UNL     1       0.937  -1.820   0.420  0.00  0.00    +0.169 HD
ATOM     13  C   UNL     1      -0.098   0.014   0.331  0.00  0.00    +0.257 A 
ATOM     14  O   UNL     1      -1.171  -0.538   0.509  0.00  0.00    -0.267 OA
ATOM     15  C   UNL     1      -0.067   1.411   0.174  0.00  0.00    +0.072 A 
ATOM     16  C   UNL     1      -1.353   2.192   0.236  0.00  0.00    +0.101 C 
ENDROOT
BRANCH  16  17
ATOM     17  C   UNL     1      -1.790   2.321   1.673  0.00  0.00    -0.017 A 
ATOM     18  C   UNL     1      -0.970   2.950   2.591  0.00  0.00    +0.006 A 
ATOM     19  C   UNL     1      -1.370   3.067   3.909  0.00  0.00    +0.000 A 
ATOM     20  C   UNL     1      -2.591   2.556   4.309  0.00  0.00    +0.001 A 
ATOM     21  C   UNL     1      -3.412   1.927   3.392  0.00  0.00    +0.020 A 
ATOM     22  C   UNL     1      -3.014   1.814   2.072  0.00  0.00    +0.045 A 
ATOM     23 CL   UNL     1      -4.047   1.030   0.918  0.00  0.00    -0.083 Cl
ENDBRANCH  16  17
BRANCH   2  24
ATOM     24  N   UNL     1       0.226   5.330  -1.060  0.00  0.00    -0.329 N 
ATOM     25  H   UNL     1       1.229   5.759  -1.205  0.00  0.00    +0.145 HD
ATOM     26  H   UNL     1      -0.665   5.908  -1.345  0.00  0.00    +0.145 HD
ENDBRANCH   2  24
BRANCH   1  27
ATOM     27  C   UNL     1      -2.276   4.322  -0.727  0.00  0.00    +0.341 C 
ATOM     28  O   UNL     1      -2.849   4.087  -1.775  0.00  0.00    -0.245 OA
BRANCH  27  29
ATOM     29  O   UNL     1      -2.717   5.314   0.077  0.00  0.00    -0.459 OA
BRANCH  29  30
ATOM     30  C   UNL     1      -3.862   6.046  -0.366  0.00  0.00    +0.260 C 
BRANCH  30  31
ATOM     31  C   UNL     1      -4.211   7.120   0.667  0.00  0.00    +0.200 C 
BRANCH  31  33
ATOM     32  C   UNL     1      -3.380   9.129   1.675  0.00  0.00    +0.194 C 
ATOM     33  O   UNL     1      -3.152   8.077   0.735  0.00  0.00    -0.380 OA
ENDBRANCH  31  33
ENDBRANCH  30  31
ENDBRANCH  29  30
ENDBRANCH  27  29
ENDBRANCH   1  27
TORSDOF 7
