REMARK  Name = ZINC13319787
REMARK  10 active torsions:
REMARK  status: ('A' for Active; 'I' for Inactive)
REMARK    1  A    between atoms: C_1  and  C_2
REMARK    2  A    between atoms: C_9  and  C_11
REMARK    3  A    between atoms: C_12  and  C_35
REMARK    4  A    between atoms: C_16  and  C_18
REMARK    5  A    between atoms: C_22  and  O_26
REMARK    6  A    between atoms: C_23  and  O_24
REMARK    7  A    between atoms: O_24  and  C_25
REMARK    8  A    between atoms: O_26  and  C_27
REMARK    9  A    between atoms: C_31  and  C_33
REMARK   10  A    between atoms: C_31  and  C_34
REMARK                            x       y       z     vdW  Elec       q    Type
REMARK                         _______ _______ _______ _____ _____    ______ ____
ROOT
ATOM      1  C   UNL     1      -3.315   4.551   1.010  0.00  0.00    +0.043 C 
ATOM      2  C   UNL     1      -4.491   5.128   0.714  0.00  0.00    +0.014 C 
ATOM      3  N   UNL     1      -5.190   4.746  -0.398  0.00  0.00    -0.321 N 
ATOM      4  C   UNL     1      -4.566   4.088  -1.423  0.00  0.00    +0.016 C 
ATOM      5  C   UNL     1      -3.385   3.467  -1.220  0.00  0.00    +0.024 C 
ATOM      6  C   UNL     1      -2.737   3.471   0.142  0.00  0.00    +0.094 C 
ATOM      7  C   UNL     1      -2.725   2.801  -2.268  0.00  0.00    +0.162 C 
ATOM      8  O   UNL     1      -1.668   2.243  -2.048  0.00  0.00    -0.292 OA
ATOM      9  C   UNL     1      -3.304   2.767  -3.656  0.00  0.00    +0.086 C 
ATOM     10  C   UNL     1      -4.155   4.023  -3.872  0.00  0.00    -0.023 C 
ATOM     11  C   UNL     1      -5.226   4.077  -2.780  0.00  0.00    +0.058 C 
ATOM     12  C   UNL     1      -3.268   5.266  -3.784  0.00  0.00    +0.011 C 
ATOM     13  C   UNL     1      -4.825   3.959  -5.246  0.00  0.00    +0.011 C 
ATOM     14  C   UNL     1      -5.044   6.204   1.612  0.00  0.00    +0.061 C 
ATOM     15  H   UNL     1      -6.265   4.966  -0.474  0.00  0.00    +0.152 HD
ENDROOT
BRANCH   1  24
ATOM     16  C   UNL     1       1.523   6.415   6.813  0.00  0.00    +0.045 C 
ATOM     17  C   UNL     1       0.762   5.851   5.641  0.00  0.00    -0.032 A 
ATOM     18  C   UNL     1       1.323   4.854   4.854  0.00  0.00    +0.008 A 
ATOM     19  C   UNL     1       0.590   4.364   3.788  0.00  0.00    +0.044 A 
ATOM     20  C   UNL     1      -0.676   4.883   3.542  0.00  0.00    +0.125 A 
ATOM     21  N   UNL     1      -1.175   5.837   4.312  0.00  0.00    -0.240 NA
ATOM     22  C   UNL     1      -0.501   6.320   5.338  0.00  0.00    +0.116 A 
ATOM     23  N   UNL     1      -1.425   4.399   2.471  0.00  0.00    -0.267 N 
ATOM     24  C   UNL     1      -2.606   4.969   2.162  0.00  0.00    +0.248 C 
ATOM     25  O   UNL     1      -3.064   5.844   2.874  0.00  0.00    -0.270 OA
ATOM     26  H   UNL     1      -1.051   3.551   1.878  0.00  0.00    +0.157 HD
ENDBRANCH   1  24
BRANCH   6  27
ATOM     27  C   UNL     1      -2.961   2.134   0.801  0.00  0.00    +0.010 A 
ATOM     28  C   UNL     1      -1.912   1.242   0.927  0.00  0.00    +0.008 A 
ATOM     29  C   UNL     1      -2.115   0.013   1.526  0.00  0.00    +0.004 A 
ATOM     30  C   UNL     1      -3.367  -0.328   2.005  0.00  0.00    +0.049 A 
ATOM     31  C   UNL     1      -4.420   0.564   1.886  0.00  0.00    +0.162 A 
ATOM     32  C   UNL     1      -4.215   1.802   1.284  0.00  0.00    +0.166 A 
BRANCH  32  33
ATOM     33  O   UNL     1      -5.247   2.681   1.165  0.00  0.00    -0.491 OA
ATOM     34  C   UNL     1      -5.663   3.357   2.353  0.00  0.00    +0.277 C 
ENDBRANCH  32  33
BRANCH  31  35
ATOM     35  O   UNL     1      -5.652   0.230   2.358  0.00  0.00    -0.491 OA
ATOM     36  C   UNL     1      -5.788  -1.057   2.964  0.00  0.00    +0.277 C 
ENDBRANCH  31  35
ENDBRANCH   6  27
TORSDOF 4
