REMARK  Name = ZINC39782333
REMARK  9 active torsions:
REMARK  status: ('A' for Active; 'I' for Inactive)
REMARK    1  A    between atoms: C_1  and  C_2
REMARK    2  A    between atoms: C_4  and  C_12
REMARK    3  A    between atoms: C_12  and  C_14
REMARK    4  A    between atoms: C_14  and  C_16
REMARK    5  A    between atoms: C_14  and  S_17
REMARK    6  A    between atoms: S_17  and  C_18
REMARK    7  A    between atoms: C_22  and  C_24
REMARK    8  A    between atoms: C_24  and  O_25
REMARK    9  A    between atoms: O_25  and  C_26
REMARK                            x       y       z     vdW  Elec       q    Type
REMARK                         _______ _______ _______ _____ _____    ______ ____
ROOT
ATOM      1  S   UNL     1      -4.463  -1.320  -2.426  0.00  0.00    -0.085 S 
ENDROOT
BRANCH   1   2
ATOM      2  C   UNL     1      -5.951  -2.304  -2.100  0.00  0.00    +0.339 C 
ATOM      3  N   UNL     1      -6.856  -1.585  -1.186  0.00  0.00    -0.219 N 
ATOM      4  N   UNL     1      -6.964  -2.404  -0.052  0.00  0.00    -0.146 NA
ATOM      5  C   UNL     1      -6.260  -3.465  -0.196  0.00  0.00    +0.246 C 
ATOM      6  O   UNL     1      -5.615  -3.504  -1.387  0.00  0.00    -0.444 OA
ATOM      7  H   UNL     1      -7.285  -0.728  -1.336  0.00  0.00    +0.173 HD
BRANCH   5   8
ATOM      8  C   UNL     1      -6.160  -4.550   0.844  0.00  0.00    +0.325 C 
BRANCH   8   9
ATOM      9  O   UNL     1      -6.960  -4.200   1.976  0.00  0.00    -0.481 OA
BRANCH   9  10
ATOM     10  C   UNL     1      -6.980  -5.080   3.012  0.00  0.00    +0.139 A 
ATOM     11  C   UNL     1      -6.242  -6.252   2.944  0.00  0.00    +0.047 A 
ATOM     12  C   UNL     1      -6.264  -7.143   3.999  0.00  0.00    +0.004 A 
ATOM     13  C   UNL     1      -7.022  -6.869   5.122  0.00  0.00    +0.002 A 
ATOM     14  C   UNL     1      -7.760  -5.702   5.193  0.00  0.00    +0.023 A 
ATOM     15  C   UNL     1      -7.736  -4.803   4.143  0.00  0.00    +0.083 A 
ATOM     16 CL   UNL     1      -8.657  -3.334   4.236  0.00  0.00    -0.080 Cl
ENDBRANCH   9  10
ENDBRANCH   8   9
ENDBRANCH   5   8
ENDBRANCH   1   2
BRANCH   1  17
ATOM     17  C   UNL     1      -3.750  -1.043  -0.781  0.00  0.00    +0.119 C 
ATOM     18  C   UNL     1      -4.706  -0.185   0.051  0.00  0.00    +0.027 C 
BRANCH  17  19
ATOM     19  C   UNL     1      -2.428  -0.333  -0.919  0.00  0.00    +0.174 C 
ATOM     20  O   UNL     1      -2.208   0.355  -1.895  0.00  0.00    -0.291 OA
BRANCH  19  23
ATOM     21  C   UNL     1      -0.049   1.594  -0.054  0.00  0.00    +0.035 C 
ATOM     22  C   UNL     1      -0.032   0.069   0.061  0.00  0.00    +0.111 C 
ATOM     23  C   UNL     1      -1.447  -0.467   0.086  0.00  0.00    +0.027 C 
ATOM     24  C   UNL     1      -1.577  -1.116   1.301  0.00  0.00    +0.006 A 
ATOM     25  C   UNL     1      -2.647  -1.812   1.911  0.00  0.00    +0.010 A 
ATOM     26  C   UNL     1      -2.493  -2.360   3.137  0.00  0.00    +0.001 A 
ATOM     27  C   UNL     1      -1.291  -2.271   3.856  0.00  0.00    +0.002 A 
ATOM     28  C   UNL     1      -0.209  -1.630   3.365  0.00  0.00    +0.026 A 
ATOM     29  C   UNL     1      -0.292  -1.004   2.034  0.00  0.00    +0.043 A 
ATOM     30  N   UNL     1       0.579  -0.335   1.331  0.00  0.00    -0.377 N 
ATOM     31  H   UNL     1       1.488  -0.135   1.605  0.00  0.00    +0.160 HD
ENDBRANCH  19  23
ENDBRANCH  17  19
ENDBRANCH   1  17
TORSDOF 7
