REMARK  Name = ZINC25181267
REMARK  5 active torsions:
REMARK  status: ('A' for Active; 'I' for Inactive)
REMARK    1  A    between atoms: C_1  and  C_2
REMARK    2  A    between atoms: C_5  and  S_9
REMARK    3  A    between atoms: S_9  and  N_12
REMARK    4  A    between atoms: N_12  and  N_13
REMARK    5  A    between atoms: C_14  and  C_16
REMARK                            x       y       z     vdW  Elec       q    Type
REMARK                         _______ _______ _______ _____ _____    ______ ____
ROOT
ATOM      1  N   UNL     1       3.763  -2.210  -0.326  0.00  0.00    -0.228 N 
ATOM      2  C   UNL     1       3.666  -0.873  -0.469  0.00  0.00    +0.259 C 
ATOM      3  O   UNL     1       4.669  -0.186  -0.454  0.00  0.00    -0.269 OA
ATOM      4  H   UNL     1       2.856  -2.831  -0.339  0.00  0.00    +0.171 HD
ENDROOT
BRANCH   2   5
ATOM      5  C   UNL     1       2.342  -0.243  -0.643  0.00  0.00    +0.042 A 
ATOM      6  C   UNL     1       1.189  -1.031  -0.661  0.00  0.00    +0.017 A 
ATOM      7  C   UNL     1      -0.045  -0.441  -0.825  0.00  0.00    +0.050 A 
ATOM      8  C   UNL     1      -0.148   0.937  -0.974  0.00  0.00    +0.162 A 
ATOM      9  C   UNL     1       0.998   1.728  -0.955  0.00  0.00    +0.163 A 
ATOM     10  C   UNL     1       2.240   1.141  -0.791  0.00  0.00    +0.062 A 
ATOM     11  O   UNL     1       0.913   3.080  -1.091  0.00  0.00    -0.485 OA
ATOM     12  C   UNL     1      -0.310   3.598  -1.625  0.00  0.00    +0.270 C 
ATOM     13  C   UNL     1      -1.478   2.906  -0.908  0.00  0.00    +0.270 C 
ATOM     14  O   UNL     1      -1.375   1.497  -1.143  0.00  0.00    -0.485 OA
ENDBRANCH   2   5
BRANCH   1  15
ATOM     15  N   UNL     1       5.019  -2.807  -0.160  0.00  0.00    -0.108 NA
ATOM     16  H   UNL     1       5.718  -2.658  -0.816  0.00  0.00    +0.172 HD
BRANCH  15  17
ATOM     17  S   UNL     1       5.311  -3.769   1.156  0.00  0.00    +0.075 S 
ATOM     18  O   UNL     1       6.598  -4.341   0.964  0.00  0.00    -0.152 OA
ATOM     19  O   UNL     1       4.986  -2.996   2.304  0.00  0.00    -0.152 OA
BRANCH  17  24
ATOM     20  C   UNL     1       1.350  -8.316   0.958  0.00  0.00    +0.044 C 
ATOM     21  C   UNL     1       2.340  -7.181   1.007  0.00  0.00    -0.049 A 
ATOM     22  C   UNL     1       2.293  -6.268   2.044  0.00  0.00    +0.005 A 
ATOM     23  C   UNL     1       3.200  -5.226   2.090  0.00  0.00    +0.030 A 
ATOM     24  C   UNL     1       4.155  -5.097   1.098  0.00  0.00    +0.125 A 
ATOM     25  C   UNL     1       4.199  -6.008   0.058  0.00  0.00    +0.068 A 
ATOM     26  C   UNL     1       3.295  -7.054   0.016  0.00  0.00    +0.025 A 
ATOM     27 CL   UNL     1       5.394  -5.842  -1.191  0.00  0.00    -0.082 Cl
ENDBRANCH  17  24
ENDBRANCH  15  17
ENDBRANCH   1  15
TORSDOF 4
