REMARK  Name = ZINC05395989
REMARK  8 active torsions:
REMARK  status: ('A' for Active; 'I' for Inactive)
REMARK    1  A    between atoms: C_1  and  C_2
REMARK    2  A    between atoms: C_2  and  C_4
REMARK    3  A    between atoms: C_2  and  O_29
REMARK    4  A    between atoms: C_4  and  O_28
REMARK    5  A    between atoms: C_9  and  O_26
REMARK    6  A    between atoms: C_12  and  O_13
REMARK    7  A    between atoms: C_21  and  O_22
REMARK    8  A    between atoms: O_22  and  C_23
REMARK                            x       y       z     vdW  Elec       q    Type
REMARK                         _______ _______ _______ _____ _____    ______ ____
ROOT
ATOM      1  C   UNL     1      -1.245   3.533  -0.390  0.00  0.00    +0.096 C 
ATOM      2  C   UNL     1      -0.136   4.188   0.441  0.00  0.00    +0.042 C 
ATOM      3  C   UNL     1       1.204   3.608  -0.006  0.00  0.00    +0.042 C 
ATOM      4  C   UNL     1       1.161   2.102   0.002  0.00  0.00    +0.002 A 
ATOM      5  C   UNL     1      -0.017   1.397   0.010  0.00  0.00    +0.004 A 
ATOM      6  C   UNL     1       0.002  -0.004   0.002  0.00  0.00    +0.132 A 
ATOM      7  C   UNL     1       1.212  -0.694  -0.006  0.00  0.00    +0.078 A 
ATOM      8  C   UNL     1       2.422   0.030  -0.008  0.00  0.00    +0.078 A 
ATOM      9  C   UNL     1       2.387   1.422  -0.004  0.00  0.00    +0.132 A 
ATOM     10  C   UNL     1       3.707  -0.694  -0.012  0.00  0.00    +0.202 C 
ATOM     11  O   UNL     1       4.743  -0.109  -0.265  0.00  0.00    -0.286 OA
ATOM     12  C   UNL     1       3.721  -2.137   0.294  0.00  0.00    +0.075 A 
ATOM     13  C   UNL     1       2.513  -2.862   0.296  0.00  0.00    +0.037 A 
ATOM     14  C   UNL     1       2.525  -4.221   0.584  0.00  0.00    +0.012 A 
ATOM     15  C   UNL     1       3.722  -4.858   0.869  0.00  0.00    +0.004 A 
ATOM     16  C   UNL     1       4.909  -4.155   0.869  0.00  0.00    +0.046 A 
ATOM     17  C   UNL     1       4.920  -2.792   0.582  0.00  0.00    +0.132 A 
ATOM     18  C   UNL     1       1.243  -2.168  -0.009  0.00  0.00    +0.198 C 
ATOM     19  O   UNL     1       0.238  -2.804  -0.259  0.00  0.00    -0.286 OA
ATOM     20  C   UNL     1      -1.365   2.071   0.035  0.00  0.00    +0.076 C 
ENDROOT
BRANCH   1  22
ATOM     21  C   UNL     1      -2.437   5.723  -0.541  0.00  0.00    +0.040 C 
ATOM     22  C   UNL     1      -2.571   4.253  -0.138  0.00  0.00    +0.143 C 
BRANCH  22  23
ATOM     23  O   UNL     1      -3.602   3.639  -0.914  0.00  0.00    -0.389 OA
ATOM     24  H   UNL     1      -3.442   3.661  -1.868  0.00  0.00    +0.210 HD
ENDBRANCH  22  23
ENDBRANCH   1  22
BRANCH   9  25
ATOM     25  O   UNL     1       3.546   2.125  -0.008  0.00  0.00    -0.506 OA
ATOM     26  H   UNL     1       3.879   2.331  -0.893  0.00  0.00    +0.292 HD
ENDBRANCH   9  25
BRANCH  17  27
ATOM     27  O   UNL     1       6.089  -2.105   0.582  0.00  0.00    -0.494 OA
ATOM     28  C   UNL     1       7.275  -2.842   0.886  0.00  0.00    +0.277 C 
ENDBRANCH  17  27
BRANCH   6  29
ATOM     29  O   UNL     1      -1.166  -0.693   0.002  0.00  0.00    -0.506 OA
ATOM     30  H   UNL     1      -1.507  -0.888  -0.882  0.00  0.00    +0.292 HD
ENDBRANCH   6  29
BRANCH   1  31
ATOM     31  O   UNL     1      -0.914   3.605  -1.778  0.00  0.00    -0.386 OA
ATOM     32  H   UNL     1      -0.806   4.506  -2.110  0.00  0.00    +0.210 HD
ENDBRANCH   1  31
TORSDOF 6
