REMARK  Name = ZINC14744335
REMARK  10 active torsions:
REMARK  status: ('A' for Active; 'I' for Inactive)
REMARK    1  A    between atoms: C_1  and  C_2
REMARK    2  A    between atoms: C_2  and  C_3
REMARK    3  A    between atoms: C_2  and  N_4
REMARK    4  A    between atoms: N_4  and  S_5
REMARK    5  A    between atoms: S_5  and  C_8
REMARK    6  A    between atoms: C_10  and  C_25
REMARK    7  A    between atoms: C_12  and  N_14
REMARK    8  A    between atoms: N_14  and  C_15
REMARK    9  A    between atoms: C_15  and  C_16
REMARK   10  A    between atoms: N_27  and  C_28
REMARK                            x       y       z     vdW  Elec       q    Type
REMARK                         _______ _______ _______ _____ _____    ______ ____
ROOT
ATOM      1  C   UNL     1      -1.581   2.662  -1.498  0.00  0.00    +0.108 A 
ATOM      2  C   UNL     1      -2.151   2.061  -2.602  0.00  0.00    +0.041 A 
ATOM      3  C   UNL     1      -2.245   2.759  -3.807  0.00  0.00    +0.041 A 
ATOM      4  C   UNL     1      -1.761   4.065  -3.891  0.00  0.00    +0.036 A 
ATOM      5  C   UNL     1      -1.191   4.660  -2.776  0.00  0.00    +0.030 A 
ATOM      6  C   UNL     1      -1.107   3.958  -1.579  0.00  0.00    +0.051 A 
ENDROOT
BRANCH   3   7
ATOM      7  C   UNL     1      -2.853   2.116  -4.991  0.00  0.00    +0.248 C 
ATOM      8  O   UNL     1      -3.274   0.978  -4.916  0.00  0.00    -0.270 OA
ATOM      9  N   UNL     1      -2.943   2.792  -6.154  0.00  0.00    -0.281 N 
ATOM     10  H   UNL     1      -2.670   3.722  -6.196  0.00  0.00    +0.155 HD
BRANCH   9  11
ATOM     11  C   UNL     1      -3.429   2.153  -7.299  0.00  0.00    +0.034 A 
ATOM     12  C   UNL     1      -4.436   1.202  -7.190  0.00  0.00    +0.023 A 
ATOM     13  C   UNL     1      -4.916   0.573  -8.322  0.00  0.00    +0.008 A 
ATOM     14  C   UNL     1      -4.395   0.888  -9.561  0.00  0.00    -0.016 A 
ATOM     15  C   UNL     1      -3.390   1.837  -9.673  0.00  0.00    -0.015 A 
ATOM     16  C   UNL     1      -2.910   2.472  -8.547  0.00  0.00    +0.029 A 
ATOM     17  C   UNL     1      -3.042   1.951 -11.139  0.00  0.00    +0.196 C 
ATOM     18  O   UNL     1      -4.148   1.370 -11.854  0.00  0.00    -0.371 OA
ATOM     19  C   UNL     1      -4.698   0.390 -10.955  0.00  0.00    +0.195 C 
ENDBRANCH   9  11
ENDBRANCH   3   7
BRANCH   1  20
ATOM     20  S   UNL     1      -1.464   1.778   0.021  0.00  0.00    +0.059 S 
ATOM     21  O   UNL     1      -2.476   0.781  -0.010  0.00  0.00    -0.153 OA
ATOM     22  O   UNL     1      -1.386   2.752   1.053  0.00  0.00    -0.153 OA
BRANCH  20  23
ATOM     23  N   UNL     1      -0.013   0.980   0.013  0.00  0.00    -0.187 NA
ATOM     24  H   UNL     1       0.007   0.010   0.006  0.00  0.00    +0.148 HD
BRANCH  23  26
ATOM     25  C   UNL     1       1.752   1.886   1.443  0.00  0.00    +0.025 C 
ATOM     26  C   UNL     1       1.240   1.738   0.008  0.00  0.00    +0.070 C 
ATOM     27  C   UNL     1       2.282   0.997  -0.831  0.00  0.00    +0.025 C 
ENDBRANCH  23  26
ENDBRANCH  20  23
ENDBRANCH   1  20
BRANCH   5  28
ATOM     28  N   UNL     1      -0.706   5.968  -2.855  0.00  0.00    -0.340 N 
ATOM     29  H   UNL     1      -0.307   6.385  -2.075  0.00  0.00    +0.146 HD
BRANCH  28  30
ATOM     30  C   UNL     1      -0.799   6.710  -4.115  0.00  0.00    +0.137 C 
BRANCH  30  31
ATOM     31  C   UNL     1      -0.208   8.084  -3.933  0.00  0.00    -0.027 A 
ATOM     32  C   UNL     1      -1.014   9.133  -3.530  0.00  0.00    +0.009 A 
ATOM     33  C   UNL     1      -0.475  10.395  -3.357  0.00  0.00    +0.050 A 
ATOM     34  C   UNL     1       0.871  10.613  -3.599  0.00  0.00    +0.166 A 
ATOM     35  C   UNL     1       1.681   9.558  -4.010  0.00  0.00    +0.167 A 
ATOM     36  C   UNL     1       1.136   8.295  -4.176  0.00  0.00    +0.054 A 
ATOM     37  O   UNL     1       2.953  10.024  -4.181  0.00  0.00    -0.453 OA
ATOM     38  C   UNL     1       2.829  11.457  -4.264  0.00  0.00    +0.466 C 
ATOM     39  O   UNL     1       1.635  11.741  -3.511  0.00  0.00    -0.453 OA
ENDBRANCH  30  31
ENDBRANCH  28  30
ENDBRANCH   5  28
TORSDOF 8
