REMARK  Name = ZINC08915040
REMARK  16 active torsions:
REMARK  status: ('A' for Active; 'I' for Inactive)
REMARK    1  A    between atoms: C_1  and  C_2
REMARK    2  A    between atoms: C_6  and  C_8
REMARK    3  A    between atoms: C_8  and  O_9
REMARK    4  A    between atoms: O_9  and  C_10
REMARK    5  A    between atoms: C_13  and  C_16
REMARK    6  A    between atoms: C_16  and  C_18
REMARK    7  A    between atoms: N_22  and  C_34
REMARK    8  A    between atoms: C_23  and  C_25
REMARK    9  A    between atoms: C_28  and  O_33
REMARK   10  A    between atoms: C_29  and  O_31
REMARK   11  A    between atoms: O_31  and  C_32
REMARK   12  A    between atoms: C_34  and  C_35
REMARK   13  A    between atoms: C_35  and  C_36
REMARK   14  A    between atoms: C_36  and  N_37
REMARK   15  A    between atoms: N_37  and  C_38
REMARK   16  A    between atoms: N_37  and  C_39
REMARK                            x       y       z     vdW  Elec       q    Type
REMARK                         _______ _______ _______ _____ _____    ______ ____
ROOT
ATOM      1  C   UNL     1      -5.535   0.058  -1.035  0.00  0.00    +0.076 C 
ATOM      2  C   UNL     1      -6.740  -0.463  -0.704  0.00  0.00    +0.249 C 
ATOM      3  C   UNL     1      -6.792  -0.675   0.758  0.00  0.00    +0.288 C 
ATOM      4  O   UNL     1      -7.742  -1.131   1.363  0.00  0.00    -0.266 OA
ATOM      5  N   UNL     1      -5.632  -0.288   1.321  0.00  0.00    -0.284 N 
ATOM      6  C   UNL     1      -4.754   0.200   0.250  0.00  0.00    +0.145 C 
ATOM      7  O   UNL     1      -7.738  -0.745  -1.573  0.00  0.00    -0.282 OA
ENDROOT
BRANCH   6   8
ATOM      8  C   UNL     1      -3.500  -0.634   0.189  0.00  0.00    -0.019 A 
ATOM      9  C   UNL     1      -3.580  -2.010   0.298  0.00  0.00    +0.009 A 
ATOM     10  C   UNL     1      -2.433  -2.779   0.242  0.00  0.00    +0.049 A 
ATOM     11  C   UNL     1      -1.199  -2.171   0.076  0.00  0.00    +0.158 A 
ATOM     12  C   UNL     1      -1.118  -0.786  -0.034  0.00  0.00    +0.162 A 
ATOM     13  C   UNL     1      -2.271  -0.021   0.029  0.00  0.00    +0.055 A 
BRANCH  12  14
ATOM     14  O   UNL     1       0.091  -0.185  -0.197  0.00  0.00    -0.491 OA
ATOM     15  C   UNL     1       0.112   1.244  -0.185  0.00  0.00    +0.277 C 
ENDBRANCH  12  14
BRANCH  11  16
ATOM     16  O   UNL     1      -0.069  -2.926   0.021  0.00  0.00    -0.503 OA
ATOM     17  H   UNL     1       0.910  -2.442  -0.111  0.00  0.00    +0.292 HD
ENDBRANCH  11  16
ENDBRANCH   6   8
BRANCH   1  18
ATOM     18  C   UNL     1      -5.077   0.415  -2.381  0.00  0.00    +0.195 C 
ATOM     19  O   UNL     1      -4.896  -0.454  -3.213  0.00  0.00    -0.287 OA
BRANCH  18  23
ATOM     20  C   UNL     1      -4.383   4.485  -3.377  0.00  0.00    +0.121 A 
ATOM     21  C   UNL     1      -4.255   3.502  -4.351  0.00  0.00    +0.046 A 
ATOM     22  C   UNL     1      -4.480   2.182  -4.033  0.00  0.00    +0.015 A 
ATOM     23  C   UNL     1      -4.836   1.830  -2.727  0.00  0.00    +0.022 A 
ATOM     24  C   UNL     1      -4.969   2.823  -1.752  0.00  0.00    +0.015 A 
ATOM     25  C   UNL     1      -4.738   4.140  -2.077  0.00  0.00    +0.046 A 
BRANCH  20  26
ATOM     26  O   UNL     1      -4.161   5.786  -3.695  0.00  0.00    -0.487 OA
BRANCH  26  27
ATOM     27  C   UNL     1      -4.201   6.731  -2.624  0.00  0.00    +0.264 C 
BRANCH  27  33
ATOM     28  C   UNL     1      -1.271  10.561  -3.964  0.00  0.00    +0.044 C 
ATOM     29  C   UNL     1      -2.644   9.956  -3.819  0.00  0.00    -0.050 A 
ATOM     30  C   UNL     1      -3.760  10.680  -4.193  0.00  0.00    +0.003 A 
ATOM     31  C   UNL     1      -5.020  10.126  -4.060  0.00  0.00    +0.001 A 
ATOM     32  C   UNL     1      -5.162   8.848  -3.552  0.00  0.00    +0.007 A 
ATOM     33  C   UNL     1      -4.046   8.124  -3.178  0.00  0.00    -0.010 A 
ATOM     34  C   UNL     1      -2.787   8.680  -3.307  0.00  0.00    +0.010 A 
ENDBRANCH  27  33
ENDBRANCH  26  27
ENDBRANCH  20  26
ENDBRANCH  18  23
ENDBRANCH   1  18
BRANCH   5  35
ATOM     35  C   UNL     1      -5.303  -0.343   2.747  0.00  0.00    +0.107 C 
BRANCH  35  36
ATOM     36  C   UNL     1      -5.716   0.969   3.417  0.00  0.00    +0.000 C 
BRANCH  36  37
ATOM     37  C   UNL     1      -5.373   0.912   4.907  0.00  0.00    -0.078 C 
BRANCH  37  38
ATOM     38  N   UNL     1      -5.769   2.171   5.550  0.00  0.00    +0.376 N 
ATOM     39  C   UNL     1      -5.676   2.068   7.012  0.00  0.00    -0.097 C 
ATOM     40  C   UNL     1      -4.965   3.294   5.049  0.00  0.00    -0.097 C 
ATOM     41  H   UNL     1      -6.821   2.366   5.291  0.00  0.00    -0.083 HD
ENDBRANCH  37  38
ENDBRANCH  36  37
ENDBRANCH  35  36
ENDBRANCH   5  35
TORSDOF 12
