REMARK  Name = ZINC05008706
REMARK  10 active torsions:
REMARK  status: ('A' for Active; 'I' for Inactive)
REMARK    1  A    between atoms: C_1  and  C_2
REMARK    2  A    between atoms: C_2  and  C_3
REMARK    3  A    between atoms: C_3  and  O_4
REMARK    4  A    between atoms: O_4  and  C_5
REMARK    5  A    between atoms: C_5  and  C_7
REMARK    6  A    between atoms: C_8  and  C_29
REMARK    7  A    between atoms: C_13  and  C_15
REMARK    8  A    between atoms: C_20  and  O_21
REMARK    9  A    between atoms: O_21  and  C_22
REMARK   10  A    between atoms: C_22  and  C_23
REMARK                            x       y       z     vdW  Elec       q    Type
REMARK                         _______ _______ _______ _____ _____    ______ ____
ROOT
ATOM      1  C   UNL     1       0.669   4.021  -1.378  0.00  0.00    +0.078 C 
ATOM      2  C   UNL     1       1.457   4.846  -2.099  0.00  0.00    +0.021 C 
ATOM      3  N   UNL     1       2.664   5.267  -1.618  0.00  0.00    -0.273 N 
ATOM      4  C   UNL     1       3.153   4.909  -0.425  0.00  0.00    +0.304 C 
ATOM      5  O   UNL     1       4.239   5.336  -0.082  0.00  0.00    -0.252 OA
ATOM      6  N   UNL     1       2.482   4.090   0.409  0.00  0.00    -0.288 N 
ATOM      7  C   UNL     1       1.168   3.579  -0.017  0.00  0.00    +0.147 C 
ATOM      8  C   UNL     1       0.998   5.309  -3.458  0.00  0.00    +0.061 C 
ATOM      9  H   UNL     1       3.196   5.859  -2.172  0.00  0.00    +0.156 HD
ATOM     10  H   UNL     1       2.856   3.842   1.270  0.00  0.00    +0.151 HD
ENDROOT
BRANCH   7  11
ATOM     11  C   UNL     1       1.231   2.074  -0.011  0.00  0.00    +0.019 A 
ATOM     12  C   UNL     1       1.371   1.383  -1.200  0.00  0.00    +0.009 A 
ATOM     13  C   UNL     1       1.428   0.002  -1.196  0.00  0.00    +0.001 A 
ATOM     14  C   UNL     1       1.346  -0.692  -0.002  0.00  0.00    +0.004 A 
ATOM     15  C   UNL     1       1.207  -0.007   1.189  0.00  0.00    +0.046 A 
ATOM     16  C   UNL     1       1.149   1.380   1.187  0.00  0.00    +0.126 A 
BRANCH  16  17
ATOM     17  O   UNL     1       1.007   2.057   2.357  0.00  0.00    -0.487 OA
BRANCH  17  18
ATOM     18  C   UNL     1       0.807   1.276   3.537  0.00  0.00    +0.264 C 
BRANCH  18  19
ATOM     19  C   UNL     1       0.550   2.192   4.707  0.00  0.00    -0.010 A 
ATOM     20  C   UNL     1       1.613   2.730   5.409  0.00  0.00    +0.007 A 
ATOM     21  C   UNL     1       1.377   3.573   6.479  0.00  0.00    +0.000 A 
ATOM     22  C   UNL     1       0.080   3.870   6.853  0.00  0.00    +0.000 A 
ATOM     23  C   UNL     1      -0.982   3.328   6.153  0.00  0.00    +0.000 A 
ATOM     24  C   UNL     1      -0.747   2.489   5.080  0.00  0.00    +0.007 A 
ENDBRANCH  18  19
ENDBRANCH  17  18
ENDBRANCH  16  17
ENDBRANCH   7  11
BRANCH   1  25
ATOM     25  C   UNL     1      -0.580   3.583  -1.876  0.00  0.00    +0.339 C 
ATOM     26  O   UNL     1      -0.915   3.865  -3.011  0.00  0.00    -0.245 OA
BRANCH  25  27
ATOM     27  O   UNL     1      -1.400   2.852  -1.093  0.00  0.00    -0.461 OA
BRANCH  27  28
ATOM     28  C   UNL     1      -2.691   2.539  -1.619  0.00  0.00    +0.232 C 
BRANCH  28  30
ATOM     29  C   UNL     1      -4.851   1.373  -1.151  0.00  0.00    +0.007 C 
ATOM     30  C   UNL     1      -3.516   1.818  -0.551  0.00  0.00    +0.038 C 
ENDBRANCH  28  30
ENDBRANCH  27  28
ENDBRANCH  25  27
ENDBRANCH   1  25
TORSDOF 8
