REMARK  Name = ZINC04532109
REMARK  10 active torsions:
REMARK  status: ('A' for Active; 'I' for Inactive)
REMARK    1  A    between atoms: C_1  and  C_2
REMARK    2  A    between atoms: C_2  and  O_4
REMARK    3  A    between atoms: O_4  and  C_5
REMARK    4  A    between atoms: C_11  and  C_35
REMARK    5  A    between atoms: C_22  and  C_34
REMARK    6  A    between atoms: C_25  and  O_30
REMARK    7  A    between atoms: C_27  and  C_28
REMARK    8  A    between atoms: C_27  and  C_29
REMARK    9  A    between atoms: O_30  and  C_31
REMARK   10  A    between atoms: C_31  and  C_33
REMARK                            x       y       z     vdW  Elec       q    Type
REMARK                         _______ _______ _______ _____ _____    ______ ____
ROOT
ATOM      1  C   UNL     1      -4.255  -8.757   0.371  0.00  0.00    +0.183 C 
ATOM      2  C   UNL     1      -2.795  -9.124   0.706  0.00  0.00    +0.045 C 
ATOM      3  C   UNL     1      -1.966  -8.896  -0.597  0.00  0.00    +0.008 C 
ATOM      4  C   UNL     1      -2.819  -7.854  -1.380  0.00  0.00    +0.009 C 
ATOM      5  C   UNL     1      -4.254  -8.337  -1.105  0.00  0.00    +0.008 C 
ATOM      6  C   UNL     1      -5.300  -7.290  -1.413  0.00  0.00    +0.011 C 
ATOM      7  C   UNL     1      -4.997  -5.978  -0.691  0.00  0.00    +0.006 C 
ATOM      8  C   UNL     1      -3.612  -5.489  -1.130  0.00  0.00    +0.010 C 
ATOM      9  C   UNL     1      -2.565  -6.497  -0.718  0.00  0.00    +0.067 C 
ATOM     10  C   UNL     1      -1.226  -5.970  -1.202  0.00  0.00    +0.160 C 
ATOM     11  O   UNL     1      -0.433  -6.689  -1.772  0.00  0.00    -0.292 OA
ATOM     12  C   UNL     1      -0.932  -4.555  -0.951  0.00  0.00    +0.047 C 
ATOM     13  C   UNL     1      -1.906  -3.719  -0.619  0.00  0.00    -0.051 C 
ATOM     14  C   UNL     1      -3.350  -4.127  -0.515  0.00  0.00    -0.006 C 
ATOM     15  C   UNL     1      -3.780  -4.071   0.948  0.00  0.00    +0.015 C 
ATOM     16  C   UNL     1      -2.954  -3.021   1.692  0.00  0.00    +0.046 C 
ATOM     17  C   UNL     1      -2.615  -1.840   0.784  0.00  0.00    +0.186 C 
ATOM     18  C   UNL     1      -1.582  -2.278  -0.266  0.00  0.00    +0.024 C 
ATOM     19  C   UNL     1      -1.693  -1.396  -1.511  0.00  0.00    +0.019 C 
ATOM     20  C   UNL     1      -0.171  -2.187   0.319  0.00  0.00    +0.019 C 
ATOM     21  C   UNL     1      -4.181  -3.098  -1.284  0.00  0.00    +0.016 C 
ATOM     22  C   UNL     1      -4.530  -9.581  -1.953  0.00  0.00    +0.015 C 
ENDROOT
BRANCH   1  23
ATOM     23  O   UNL     1      -5.118  -9.909   0.563  0.00  0.00    -0.461 OA
BRANCH  23  25
ATOM     24  C   UNL     1      -6.627 -11.198   2.031  0.00  0.00    +0.136 C 
ATOM     25  C   UNL     1      -5.718 -10.028   1.758  0.00  0.00    +0.304 C 
ATOM     26  O   UNL     1      -5.528  -9.198   2.615  0.00  0.00    -0.251 OA
ENDBRANCH  23  25
ENDBRANCH   1  23
BRANCH  17  27
ATOM     27  O   UNL     1      -3.820  -1.383   0.114  0.00  0.00    -0.461 OA
BRANCH  27  28
ATOM     28  C   UNL     1      -4.541  -0.436   0.736  0.00  0.00    +0.304 C 
ATOM     29  O   UNL     1      -4.176  -0.003   1.803  0.00  0.00    -0.251 OA
ATOM     30  C   UNL     1      -5.804   0.087   0.102  0.00  0.00    +0.136 C 
ENDBRANCH  27  28
ENDBRANCH  17  27
TORSDOF 4
