REMARK  Name = ZINC05812770
REMARK  5 active torsions:
REMARK  status: ('A' for Active; 'I' for Inactive)
REMARK    1  A    between atoms: C_4  and  C_7
REMARK    2  A    between atoms: C_10  and  C_11
REMARK    3  A    between atoms: C_12  and  O_19
REMARK    4  A    between atoms: C_14  and  O_18
REMARK    5  A    between atoms: C_16  and  O_17
REMARK                            x       y       z     vdW  Elec       q    Type
REMARK                         _______ _______ _______ _____ _____    ______ ____
ROOT
ATOM      1  C   UNL     1       1.284  -0.418  -0.012  0.00  0.00    +0.232 C 
ATOM      2  N   UNL     1       2.111   0.591  -0.015  0.00  0.00    -0.205 NA
ATOM      3  C   UNL     1       1.397   1.753  -0.002  0.00  0.00    +0.153 C 
ATOM      4  C   UNL     1       1.897   3.043   0.000  0.00  0.00    +0.050 C 
ATOM      5  C   UNL     1      -0.016   1.346   0.009  0.00  0.00    +0.364 C 
ATOM      6  O   UNL     1      -0.994   2.072   0.018  0.00  0.00    -0.243 OA
ATOM      7  O   UNL     1       0.002  -0.004   0.002  0.00  0.00    -0.402 OA
ENDROOT
BRANCH   1  11
ATOM      8  C   UNL     1       2.481  -4.492  -0.048  0.00  0.00    +0.000 A 
ATOM      9  C   UNL     1       1.136  -4.169  -0.033  0.00  0.00    +0.001 A 
ATOM     10  C   UNL     1       0.740  -2.848  -0.021  0.00  0.00    +0.013 A 
ATOM     11  C   UNL     1       1.700  -1.835  -0.025  0.00  0.00    +0.037 A 
ATOM     12  C   UNL     1       3.057  -2.167  -0.045  0.00  0.00    +0.013 A 
ATOM     13  C   UNL     1       3.438  -3.493  -0.052  0.00  0.00    +0.001 A 
ENDBRANCH   1  11
BRANCH   4  14
ATOM     14  C   UNL     1       3.295   3.260  -0.012  0.00  0.00    +0.060 A 
ATOM     15  C   UNL     1       4.124   2.595   0.913  0.00  0.00    +0.131 A 
ATOM     16  C   UNL     1       5.489   2.810   0.889  0.00  0.00    +0.091 A 
ATOM     17  C   UNL     1       6.043   3.687  -0.036  0.00  0.00    +0.124 A 
ATOM     18  C   UNL     1       5.233   4.352  -0.949  0.00  0.00    +0.091 A 
ATOM     19  C   UNL     1       3.867   4.147  -0.945  0.00  0.00    +0.131 A 
BRANCH  19  20
ATOM     20  O   UNL     1       3.079   4.798  -1.838  0.00  0.00    -0.506 OA
ATOM     21  H   UNL     1       2.752   5.652  -1.524  0.00  0.00    +0.292 HD
ENDBRANCH  19  20
BRANCH  17  22
ATOM     22  O   UNL     1       7.384   3.895  -0.047  0.00  0.00    -0.507 OA
ATOM     23  H   UNL     1       7.674   4.622   0.522  0.00  0.00    +0.292 HD
ENDBRANCH  17  22
BRANCH  15  24
ATOM     24  O   UNL     1       3.585   1.743   1.821  0.00  0.00    -0.506 OA
ATOM     25  H   UNL     1       3.527   0.828   1.515  0.00  0.00    +0.292 HD
ENDBRANCH  15  24
ENDBRANCH   4  14
TORSDOF 5
