REMARK  Name = ZINC38684651
REMARK  13 active torsions:
REMARK  status: ('A' for Active; 'I' for Inactive)
REMARK    1  A    between atoms: C_1  and  C_2
REMARK    2  A    between atoms: C_2  and  C_3
REMARK    3  A    between atoms: C_2  and  C_4
REMARK    4  A    between atoms: C_4  and  C_5
REMARK    5  A    between atoms: C_5  and  O_6
REMARK    6  A    between atoms: O_6  and  C_7
REMARK    7  A    between atoms: C_11  and  C_13
REMARK    8  A    between atoms: C_18  and  O_27
REMARK    9  A    between atoms: C_22  and  N_26
REMARK   10  A    between atoms: C_23  and  C_24
REMARK   11  A    between atoms: O_27  and  C_28
REMARK   12  A    between atoms: C_28  and  C_30
REMARK   13  A    between atoms: C_33  and  N_36
REMARK                            x       y       z     vdW  Elec       q    Type
REMARK                         _______ _______ _______ _____ _____    ______ ____
ROOT
ATOM      1  C   UNL     1      -5.716  -6.362  -0.301  0.00  0.00    +0.098 C 
ATOM      2  C   UNL     1      -5.861  -7.322   0.850  0.00  0.00    +0.008 A 
ATOM      3  C   UNL     1      -5.947  -6.829   2.140  0.00  0.00    +0.012 A 
ATOM      4  C   UNL     1      -6.081  -7.693   3.208  0.00  0.00    +0.047 A 
ATOM      5  C   UNL     1      -6.129  -9.063   2.990  0.00  0.00    +0.135 A 
ATOM      6  C   UNL     1      -6.043  -9.560   1.700  0.00  0.00    +0.093 A 
ATOM      7  C   UNL     1      -5.908  -8.689   0.627  0.00  0.00    +0.138 A 
ATOM      8  O   UNL     1      -5.825  -9.191  -0.630  0.00  0.00    -0.441 OA
ATOM      9  C   UNL     1      -6.082  -8.401  -1.686  0.00  0.00    +0.199 C 
ATOM     10  C   UNL     1      -6.046  -7.054  -1.594  0.00  0.00    +0.098 C 
ENDROOT
BRANCH   1  15
ATOM     11  C   UNL     1      -2.736  -4.039  -0.273  0.00  0.00    +0.121 A 
ATOM     12  C   UNL     1      -1.689  -4.933  -0.450  0.00  0.00    +0.045 A 
ATOM     13  C   UNL     1      -1.950  -6.284  -0.578  0.00  0.00    +0.004 A 
ATOM     14  C   UNL     1      -3.253  -6.745  -0.529  0.00  0.00    +0.005 A 
ATOM     15  C   UNL     1      -4.297  -5.856  -0.353  0.00  0.00    -0.031 A 
ATOM     16  C   UNL     1      -4.041  -4.505  -0.219  0.00  0.00    +0.050 A 
BRANCH  11  17
ATOM     17  O   UNL     1      -2.481  -2.710  -0.147  0.00  0.00    -0.492 OA
BRANCH  17  18
ATOM     18  C   UNL     1      -1.113  -2.302  -0.212  0.00  0.00    +0.229 C 
BRANCH  18  19
ATOM     19  C   UNL     1      -1.026  -0.783  -0.052  0.00  0.00    +0.044 C 
BRANCH  19  21
ATOM     20  C   UNL     1       0.518   1.181  -0.086  0.00  0.00    +0.007 C 
ATOM     21  C   UNL     1       0.439  -0.347  -0.122  0.00  0.00    -0.014 C 
ATOM     22  C   UNL     1       1.201  -0.924   1.073  0.00  0.00    +0.007 C 
ENDBRANCH  19  21
ENDBRANCH  18  19
ENDBRANCH  17  18
ENDBRANCH  11  17
ENDBRANCH   1  15
BRANCH   9  23
ATOM     23  N   UNL     1      -6.388  -8.980  -2.892  0.00  0.00    -0.328 N 
ATOM     24  H   UNL     1      -6.417  -9.947  -2.973  0.00  0.00    +0.145 HD
ATOM     25  H   UNL     1      -6.576  -8.423  -3.664  0.00  0.00    +0.145 HD
ENDBRANCH   9  23
BRANCH  10  26
ATOM     26  C   UNL     1      -6.329  -6.268  -2.757  0.00  0.00    +0.101 C 
ATOM     27  N   UNL     1      -6.554  -5.645  -3.680  0.00  0.00    -0.191 NA
ENDBRANCH  10  26
BRANCH   5  28
ATOM     28  O   UNL     1      -6.260  -9.916   4.040  0.00  0.00    -0.422 OA
BRANCH  28  29
ATOM     29  C   UNL     1      -7.435  -9.931   4.699  0.00  0.00    +0.344 C 
ATOM     30  O   UNL     1      -8.371  -9.276   4.288  0.00  0.00    -0.245 OA
BRANCH  29  31
ATOM     31  C   UNL     1      -7.585 -10.745   5.923  0.00  0.00    +0.060 A 
ATOM     32  C   UNL     1      -6.509 -11.495   6.402  0.00  0.00    +0.017 A 
ATOM     33  C   UNL     1      -6.655 -12.253   7.545  0.00  0.00    +0.033 A 
ATOM     34  C   UNL     1      -7.865 -12.272   8.217  0.00  0.00    +0.126 A 
ATOM     35  C   UNL     1      -8.936 -11.531   7.747  0.00  0.00    +0.033 A 
ATOM     36  C   UNL     1      -8.801 -10.764   6.609  0.00  0.00    +0.017 A 
BRANCH  34  37
ATOM     37  N   UNL     1      -8.016 -13.088   9.442  0.00  0.00    +0.056 N 
ATOM     38  O   UNL     1      -7.082 -13.737   9.854  0.00  0.00    -0.126 OA
ATOM     39  O   UNL     1      -9.072 -13.107  10.030  0.00  0.00    -0.126 OA
ENDBRANCH  34  37
ENDBRANCH  29  31
ENDBRANCH  28  29
ENDBRANCH   5  28
TORSDOF 11
