REMARK  Name = ZINC19762599
REMARK  11 active torsions:
REMARK  status: ('A' for Active; 'I' for Inactive)
REMARK    1  A    between atoms: C_1  and  C_2
REMARK    2  A    between atoms: C_3  and  C_23
REMARK    3  A    between atoms: C_4  and  C_14
REMARK    4  A    between atoms: C_17  and  O_22
REMARK    5  A    between atoms: C_18  and  O_20
REMARK    6  A    between atoms: O_20  and  C_21
REMARK    7  A    between atoms: C_23  and  O_25
REMARK    8  A    between atoms: O_25  and  C_26
REMARK    9  A    between atoms: C_26  and  C_27
REMARK   10  A    between atoms: C_30  and  O_33
REMARK   11  A    between atoms: O_33  and  C_34
REMARK                            x       y       z     vdW  Elec       q    Type
REMARK                         _______ _______ _______ _____ _____    ______ ____
ROOT
ATOM      1  C   UNL     1      -0.018   1.503   0.010  0.00  0.00    +0.061 C 
ATOM      2  C   UNL     1       0.002  -0.004   0.002  0.00  0.00    +0.016 C 
ATOM      3  C   UNL     1      -1.155  -0.688   0.004  0.00  0.00    +0.065 C 
ATOM      4  C   UNL     1      -1.174  -2.188   0.005  0.00  0.00    +0.092 C 
ATOM      5  C   UNL     1       0.160  -2.746  -0.422  0.00  0.00    +0.024 C 
ATOM      6  C   UNL     1       1.267  -1.974  -0.410  0.00  0.00    +0.015 C 
ATOM      7  N   UNL     1       1.198  -0.667  -0.013  0.00  0.00    -0.321 N 
ATOM      8  C   UNL     1       2.604  -2.524  -0.842  0.00  0.00    +0.051 C 
ATOM      9  C   UNL     1       2.670  -4.019  -0.526  0.00  0.00    +0.014 C 
ATOM     10  C   UNL     1       1.517  -4.721  -1.252  0.00  0.00    +0.080 C 
ATOM     11  C   UNL     1       0.218  -4.091  -0.830  0.00  0.00    +0.162 C 
ATOM     12  O   UNL     1      -0.799  -4.755  -0.843  0.00  0.00    -0.292 OA
ATOM     13  H   UNL     1       2.005  -0.207   0.265  0.00  0.00    +0.152 HD
ENDROOT
BRANCH   4  14
ATOM     14  C   UNL     1      -1.492  -2.678   1.395  0.00  0.00    -0.032 A 
ATOM     15  C   UNL     1      -0.664  -2.343   2.450  0.00  0.00    +0.008 A 
ATOM     16  C   UNL     1      -0.951  -2.789   3.726  0.00  0.00    +0.049 A 
ATOM     17  C   UNL     1      -2.071  -3.574   3.950  0.00  0.00    +0.158 A 
ATOM     18  C   UNL     1      -2.904  -3.911   2.888  0.00  0.00    +0.162 A 
ATOM     19  C   UNL     1      -2.613  -3.456   1.612  0.00  0.00    +0.054 A 
BRANCH  18  20
ATOM     20  O   UNL     1      -4.005  -4.681   3.102  0.00  0.00    -0.491 OA
ATOM     21  C   UNL     1      -4.814  -4.987   1.965  0.00  0.00    +0.277 C 
ENDBRANCH  18  20
BRANCH  17  22
ATOM     22  O   UNL     1      -2.355  -4.015   5.205  0.00  0.00    -0.503 OA
ATOM     23  H   UNL     1      -2.917  -3.415   5.715  0.00  0.00    +0.292 HD
ENDBRANCH  17  22
ENDBRANCH   4  14
BRANCH   3  24
ATOM     24  C   UNL     1      -2.380   0.021   0.005  0.00  0.00    +0.338 C 
ATOM     25  O   UNL     1      -2.378   1.238   0.004  0.00  0.00    -0.245 OA
BRANCH  24  26
ATOM     26  O   UNL     1      -3.549  -0.652   0.007  0.00  0.00    -0.457 OA
BRANCH  26  27
ATOM     27  C   UNL     1      -4.747   0.128   0.008  0.00  0.00    +0.268 C 
BRANCH  27  28
ATOM     28  C   UNL     1      -5.943  -0.789   0.010  0.00  0.00    -0.010 A 
ATOM     29  C   UNL     1      -6.489  -1.214  -1.187  0.00  0.00    +0.010 A 
ATOM     30  C   UNL     1      -7.585  -2.054  -1.188  0.00  0.00    +0.046 A 
ATOM     31  C   UNL     1      -8.139  -2.471   0.014  0.00  0.00    +0.120 A 
ATOM     32  C   UNL     1      -7.589  -2.044   1.214  0.00  0.00    +0.046 A 
ATOM     33  C   UNL     1      -6.489  -1.208   1.209  0.00  0.00    +0.010 A 
BRANCH  31  34
ATOM     34  O   UNL     1      -9.218  -3.297   0.016  0.00  0.00    -0.495 OA
ATOM     35  C   UNL     1      -9.735  -3.686   1.290  0.00  0.00    +0.277 C 
ENDBRANCH  31  34
ENDBRANCH  27  28
ENDBRANCH  26  27
ENDBRANCH  24  26
ENDBRANCH   3  24
TORSDOF 8
