REMARK  Name = ZINC15956650
REMARK  8 active torsions:
REMARK  status: ('A' for Active; 'I' for Inactive)
REMARK    1  A    between atoms: C_1  and  C_2
REMARK    2  A    between atoms: C_16  and  C_19
REMARK    3  A    between atoms: C_19  and  C_21
REMARK    4  A    between atoms: C_19  and  O_22
REMARK    5  A    between atoms: N_25  and  C_28
REMARK    6  A    between atoms: C_28  and  C_29
REMARK    7  A    between atoms: C_34  and  O_35
REMARK    8  A    between atoms: O_35  and  C_36
REMARK                            x       y       z     vdW  Elec       q    Type
REMARK                         _______ _______ _______ _____ _____    ______ ____
ROOT
ATOM      1  C   UNL     1      -0.018   1.503   0.010  0.00  0.00    +0.045 C 
ATOM      2  C   UNL     1       0.002  -0.004   0.002  0.00  0.00    -0.029 A 
ATOM      3  C   UNL     1       0.006  -0.685  -1.198  0.00  0.00    +0.005 A 
ATOM      4  C   UNL     1       0.024  -2.067  -1.216  0.00  0.00    +0.001 A 
ATOM      5  C   UNL     1       0.041  -2.772  -0.024  0.00  0.00    +0.008 A 
ATOM      6  C   UNL     1       0.038  -2.096   1.175  0.00  0.00    +0.004 A 
ATOM      7  C   UNL     1       0.023  -0.705   1.205  0.00  0.00    +0.042 A 
ATOM      8  N   UNL     1       0.027  -0.250   2.526  0.00  0.00    -0.283 N 
ATOM      9  C   UNL     1       0.051  -1.264   3.412  0.00  0.00    +0.243 C 
ATOM     10  O   UNL     1       0.059  -1.169   4.621  0.00  0.00    -0.273 OA
ATOM     11  C   UNL     1       0.053  -2.537   2.611  0.00  0.00    +0.136 C 
ATOM     12  C   UNL     1      -1.153  -3.424   2.943  0.00  0.00    +0.123 C 
ATOM     13  C   UNL     1      -0.607  -4.458   3.967  0.00  0.00    +0.109 C 
ATOM     14  C   UNL     1       0.874  -4.074   4.168  0.00  0.00    +0.096 C 
ATOM     15  N   UNL     1       1.246  -3.348   2.917  0.00  0.00    -0.293 NA
ATOM     16  C   UNL     1      -0.700  -5.770   3.222  0.00  0.00    +0.228 C 
ATOM     17  O   UNL     1      -0.364  -6.850   3.659  0.00  0.00    -0.275 OA
ATOM     18  N   UNL     1      -1.212  -5.554   2.004  0.00  0.00    -0.237 N 
ATOM     19  C   UNL     1      -1.514  -4.263   1.738  0.00  0.00    +0.229 C 
ATOM     20  O   UNL     1      -1.993  -3.839   0.708  0.00  0.00    -0.275 OA
ATOM     21  H   UNL     1       0.015   0.688   2.776  0.00  0.00    +0.155 HD
ATOM     22  H   UNL     1       1.452  -3.987   2.164  0.00  0.00    +0.124 HD
ENDROOT
BRANCH  14  23
ATOM     23  C   UNL     1       1.735  -5.330   4.316  0.00  0.00    +0.129 C 
ATOM     24  C   UNL     1       3.197  -4.925   4.514  0.00  0.00    +0.039 C 
BRANCH  23  25
ATOM     25  O   UNL     1       1.291  -6.081   5.447  0.00  0.00    -0.390 OA
ATOM     26  H   UNL     1       1.343  -5.600   6.284  0.00  0.00    +0.210 HD
ENDBRANCH  23  25
ENDBRANCH  14  23
BRANCH  18  27
ATOM     27  C   UNL     1      -1.432  -6.631   1.035  0.00  0.00    +0.155 C 
BRANCH  27  28
ATOM     28  C   UNL     1      -2.818  -7.195   1.218  0.00  0.00    +0.012 A 
ATOM     29  C   UNL     1      -2.999  -8.367   1.925  0.00  0.00    +0.009 A 
ATOM     30  C   UNL     1      -4.270  -8.885   2.093  0.00  0.00    +0.001 A 
ATOM     31  C   UNL     1      -5.363  -8.231   1.553  0.00  0.00    +0.004 A 
ATOM     32  C   UNL     1      -5.186  -7.059   0.845  0.00  0.00    +0.046 A 
ATOM     33  C   UNL     1      -3.913  -6.534   0.680  0.00  0.00    +0.125 A 
BRANCH  33  34
ATOM     34  O   UNL     1      -3.737  -5.377  -0.011  0.00  0.00    -0.495 OA
ATOM     35  C   UNL     1      -4.909  -4.751  -0.536  0.00  0.00    +0.277 C 
ENDBRANCH  33  34
ENDBRANCH  27  28
ENDBRANCH  18  27
TORSDOF 5
