REMARK  Name = ZINC39637502
REMARK  10 active torsions:
REMARK  status: ('A' for Active; 'I' for Inactive)
REMARK    1  A    between atoms: C_1  and  C_2
REMARK    2  A    between atoms: C_7  and  N_12
REMARK    3  A    between atoms: C_9  and  C_11
REMARK    4  A    between atoms: C_13  and  C_15
REMARK    5  A    between atoms: C_26  and  C_28
REMARK    6  A    between atoms: C_28  and  C_30
REMARK    7  A    between atoms: C_28  and  O_33
REMARK    8  A    between atoms: C_30  and  C_31
REMARK    9  A    between atoms: C_30  and  C_32
REMARK   10  A    between atoms: O_33  and  C_34
REMARK                            x       y       z     vdW  Elec       q    Type
REMARK                         _______ _______ _______ _____ _____    ______ ____
ROOT
ATOM      1  C   UNL     1      -2.047  -5.177   1.963  0.00  0.00    +0.100 C 
ATOM      2  C   UNL     1      -2.938  -4.110   2.638  0.00  0.00    +0.121 C 
ATOM      3  N   UNL     1      -3.933  -4.888   3.413  0.00  0.00    -0.297 N 
ATOM      4  C   UNL     1      -3.159  -6.020   3.976  0.00  0.00    +0.115 C 
ATOM      5  C   UNL     1      -2.194  -6.429   2.844  0.00  0.00    -0.004 C 
ATOM      6  C   UNL     1      -0.841  -6.829   3.424  0.00  0.00    -0.010 C 
ATOM      7  C   UNL     1      -1.002  -8.109   4.248  0.00  0.00    -0.082 C 
ATOM      8  N   UNL     1      -1.527  -9.181   3.394  0.00  0.00    +0.379 N 
ATOM      9  C   UNL     1      -2.869  -8.828   2.916  0.00  0.00    -0.082 C 
ATOM     10  C   UNL     1      -2.787  -7.578   2.035  0.00  0.00    -0.010 C 
ATOM     11  C   UNL     1      -5.245  -4.626   3.570  0.00  0.00    +0.257 C 
ATOM     12  O   UNL     1      -5.756  -3.704   2.969  0.00  0.00    -0.272 OA
ATOM     13  H   UNL     1      -0.913  -9.310   2.604  0.00  0.00    -0.086 HD
ATOM     14  H   UNL     1      -1.575 -10.038   3.923  0.00  0.00    -0.086 HD
ENDROOT
BRANCH   1  16
ATOM     15  N   UNL     1       0.202  -5.115   0.935  0.00  0.00    -0.312 N 
ATOM     16  C   UNL     1      -0.611  -4.721   1.935  0.00  0.00    +0.218 C 
ATOM     17  O   UNL     1      -0.187  -3.999   2.812  0.00  0.00    -0.275 OA
ATOM     18  H   UNL     1      -0.138  -5.693   0.233  0.00  0.00    +0.149 HD
BRANCH  15  24
ATOM     19  C   UNL     1       2.534  -6.149  -2.523  0.00  0.00    +0.008 C 
ATOM     20  C   UNL     1       2.019  -6.123  -1.082  0.00  0.00    -0.009 C 
ATOM     21  C   UNL     1       2.869  -7.059  -0.220  0.00  0.00    +0.003 C 
ATOM     22  C   UNL     1       2.353  -7.032   1.220  0.00  0.00    +0.002 C 
ATOM     23  C   UNL     1       2.447  -5.607   1.770  0.00  0.00    +0.022 C 
ATOM     24  C   UNL     1       1.597  -4.672   0.907  0.00  0.00    +0.076 C 
ATOM     25  C   UNL     1       2.113  -4.698  -0.533  0.00  0.00    +0.009 C 
ATOM     26  C   UNL     1       1.263  -3.762  -1.395  0.00  0.00    +0.009 C 
ENDBRANCH  15  24
ENDBRANCH   1  16
BRANCH  11  27
ATOM     27  C   UNL     1      -6.079  -5.478   4.492  0.00  0.00    +0.261 C 
BRANCH  27  28
ATOM     28  C   UNL     1      -5.583  -5.309   5.930  0.00  0.00    +0.033 C 
ATOM     29  C   UNL     1      -5.817  -3.866   6.383  0.00  0.00    +0.011 C 
ATOM     30  C   UNL     1      -6.349  -6.263   6.849  0.00  0.00    +0.011 C 
ENDBRANCH  27  28
BRANCH  27  31
ATOM     31  O   UNL     1      -7.447  -5.072   4.409  0.00  0.00    -0.479 OA
BRANCH  31  32
ATOM     32  C   UNL     1      -8.386  -6.050   4.499  0.00  0.00    +0.122 A 
ATOM     33  C   UNL     1      -9.733  -5.729   4.410  0.00  0.00    +0.045 A 
ATOM     34  C   UNL     1     -10.687  -6.725   4.502  0.00  0.00    +0.004 A 
ATOM     35  C   UNL     1     -10.300  -8.040   4.681  0.00  0.00    +0.000 A 
ATOM     36  C   UNL     1      -8.958  -8.362   4.770  0.00  0.00    +0.004 A 
ATOM     37  C   UNL     1      -8.001  -7.371   4.674  0.00  0.00    +0.045 A 
ENDBRANCH  31  32
ENDBRANCH  27  31
ENDBRANCH  11  27
TORSDOF 6
