REMARK  Name = ZINC39446107
REMARK  8 active torsions:
REMARK  status: ('A' for Active; 'I' for Inactive)
REMARK    1  A    between atoms: C_1  and  C_2
REMARK    2  A    between atoms: C_5  and  C_8
REMARK    3  A    between atoms: N_14  and  C_27
REMARK    4  A    between atoms: C_15  and  C_17
REMARK    5  A    between atoms: C_20  and  C_23
REMARK    6  A    between atoms: C_23  and  O_25
REMARK    7  A    between atoms: O_25  and  C_26
REMARK    8  A    between atoms: C_30  and  C_33
REMARK                            x       y       z     vdW  Elec       q    Type
REMARK                         _______ _______ _______ _____ _____    ______ ____
ROOT
ATOM      1  C   UNL     1       0.059  -4.275  -0.021  0.00  0.00    +0.159 C 
ATOM      2  C   UNL     1       1.446  -4.793   0.272  0.00  0.00    +0.015 C 
ATOM      3  C   UNL     1       1.317  -5.504   1.413  0.00  0.00    +0.149 C 
ATOM      4  C   UNL     1       2.643  -6.050   1.773  0.00  0.00    +0.272 C 
ATOM      5  O   UNL     1       2.868  -6.738   2.750  0.00  0.00    -0.268 OA
ATOM      6  N   UNL     1       3.563  -5.678   0.866  0.00  0.00    -0.255 N 
ATOM      7  C   UNL     1       2.885  -4.859  -0.148  0.00  0.00    +0.143 C 
ATOM      8  N   UNL     1       0.013  -5.463   1.824  0.00  0.00    -0.173 NA
ATOM      9  N   UNL     1      -0.741  -4.813   1.093  0.00  0.00    -0.297 N 
ATOM     10  H   UNL     1      -1.692  -4.678   1.227  0.00  0.00    +0.183 HD
ENDROOT
BRANCH   1  15
ATOM     11  C   UNL     1      -0.018   1.503   0.010  0.00  0.00    +0.044 C 
ATOM     12  C   UNL     1       0.002  -0.004   0.002  0.00  0.00    -0.050 A 
ATOM     13  C   UNL     1       0.006  -0.689  -1.199  0.00  0.00    +0.004 A 
ATOM     14  C   UNL     1       0.025  -2.071  -1.206  0.00  0.00    +0.006 A 
ATOM     15  C   UNL     1       0.040  -2.768  -0.013  0.00  0.00    -0.020 A 
ATOM     16  C   UNL     1       0.037  -2.084   1.188  0.00  0.00    +0.006 A 
ATOM     17  C   UNL     1       0.023  -0.702   1.195  0.00  0.00    +0.004 A 
ENDBRANCH   1  15
BRANCH   7  18
ATOM     18  C   UNL     1       3.002  -5.509  -1.503  0.00  0.00    -0.022 A 
ATOM     19  C   UNL     1       2.944  -6.887  -1.613  0.00  0.00    +0.006 A 
ATOM     20  C   UNL     1       3.050  -7.489  -2.850  0.00  0.00    +0.015 A 
ATOM     21  C   UNL     1       3.216  -6.703  -3.993  0.00  0.00    +0.059 A 
ATOM     22  C   UNL     1       3.273  -5.313  -3.874  0.00  0.00    +0.015 A 
ATOM     23  C   UNL     1       3.160  -4.725  -2.632  0.00  0.00    +0.006 A 
BRANCH  21  24
ATOM     24  C   UNL     1       3.330  -7.340  -5.321  0.00  0.00    +0.339 C 
ATOM     25  O   UNL     1       3.280  -8.550  -5.420  0.00  0.00    -0.245 OA
BRANCH  24  26
ATOM     26  O   UNL     1       3.490  -6.580  -6.421  0.00  0.00    -0.464 OA
ATOM     27  C   UNL     1       3.594  -7.262  -7.672  0.00  0.00    +0.280 C 
ENDBRANCH  24  26
ENDBRANCH  21  24
ENDBRANCH   7  18
BRANCH   6  28
ATOM     28  C   UNL     1       4.915  -6.009   0.885  0.00  0.00    +0.038 A 
ATOM     29  C   UNL     1       5.758  -5.546  -0.122  0.00  0.00    +0.024 A 
ATOM     30  C   UNL     1       7.090  -5.870  -0.107  0.00  0.00    +0.017 A 
ATOM     31  C   UNL     1       7.602  -6.668   0.922  0.00  0.00    +0.063 A 
ATOM     32  C   UNL     1       6.753  -7.131   1.933  0.00  0.00    +0.017 A 
ATOM     33  C   UNL     1       5.423  -6.798   1.914  0.00  0.00    +0.024 A 
BRANCH  31  34
ATOM     34  C   UNL     1       9.032  -7.018   0.941  0.00  0.00    +0.387 C 
ATOM     35  O   UNL     1       9.773  -6.613   0.057  0.00  0.00    -0.241 OA
ATOM     36  O   UNL     1       9.479  -7.715   1.842  0.00  0.00    -0.241 OA
ENDBRANCH  31  34
ENDBRANCH   6  28
TORSDOF 6
