REMARK  Name = ZINC02909501
REMARK  14 active torsions:
REMARK  status: ('A' for Active; 'I' for Inactive)
REMARK    1  A    between atoms: C_1  and  O_2
REMARK    2  A    between atoms: O_2  and  C_3
REMARK    3  A    between atoms: C_6  and  C_13
REMARK    4  A    between atoms: C_7  and  O_11
REMARK    5  A    between atoms: C_8  and  O_9
REMARK    6  A    between atoms: O_9  and  C_10
REMARK    7  A    between atoms: O_11  and  C_12
REMARK    8  A    between atoms: C_13  and  N_14
REMARK    9  A    between atoms: N_14  and  C_15
REMARK   10  A    between atoms: C_16  and  C_24
REMARK   11  A    between atoms: N_26  and  C_27
REMARK   12  A    between atoms: C_30  and  C_33
REMARK   13  A    between atoms: C_33  and  O_35
REMARK   14  A    between atoms: O_35  and  C_36
REMARK                            x       y       z     vdW  Elec       q    Type
REMARK                         _______ _______ _______ _____ _____    ______ ____
ROOT
ATOM      1  C   UNL     1      -4.202   0.097  -1.884  0.00  0.00    +0.078 A 
ATOM      2  C   UNL     1      -4.918   0.129  -3.074  0.00  0.00    +0.069 A 
ATOM      3  C   UNL     1      -6.242  -0.472  -3.076  0.00  0.00    -0.023 A 
ATOM      4  C   UNL     1      -6.635  -1.002  -1.899  0.00  0.00    -0.005 A 
ATOM      5  S   UNL     1      -5.275  -0.723  -0.800  0.00  0.00    -0.078 S 
ATOM      6  C   UNL     1      -7.937  -1.681  -1.603  0.00  0.00    +0.043 C 
ATOM      7  C   UNL     1      -8.920  -1.355  -2.737  0.00  0.00    +0.005 C 
ATOM      8  C   UNL     1      -8.220  -1.588  -4.079  0.00  0.00    +0.005 C 
ATOM      9  C   UNL     1      -7.149  -0.518  -4.300  0.00  0.00    +0.037 C 
ENDROOT
BRANCH   2  10
ATOM     10  C   UNL     1      -4.360   0.744  -4.280  0.00  0.00    +0.251 C 
ATOM     11  O   UNL     1      -3.708   0.074  -5.060  0.00  0.00    -0.270 OA
ATOM     12  N   UNL     1      -4.569   2.052  -4.528  0.00  0.00    -0.281 N 
ATOM     13  H   UNL     1      -5.227   2.638  -3.870  0.00  0.00    +0.155 HD
BRANCH  12  14
ATOM     14  C   UNL     1      -3.951   2.662  -5.617  0.00  0.00    +0.034 A 
ATOM     15  C   UNL     1      -4.604   3.682  -6.304  0.00  0.00    +0.024 A 
ATOM     16  C   UNL     1      -3.994   4.291  -7.377  0.00  0.00    +0.017 A 
ATOM     17  C   UNL     1      -2.722   3.876  -7.784  0.00  0.00    +0.059 A 
ATOM     18  C   UNL     1      -2.072   2.848  -7.095  0.00  0.00    +0.017 A 
ATOM     19  C   UNL     1      -2.685   2.247  -6.020  0.00  0.00    +0.024 A 
BRANCH  17  20
ATOM     20  C   UNL     1      -2.068   4.523  -8.936  0.00  0.00    +0.339 C 
ATOM     21  O   UNL     1      -0.962   4.162  -9.288  0.00  0.00    -0.245 OA
BRANCH  20  22
ATOM     22  O   UNL     1      -2.696   5.514  -9.599  0.00  0.00    -0.464 OA
ATOM     23  C   UNL     1      -1.992   6.104 -10.723  0.00  0.00    +0.280 C 
ENDBRANCH  20  22
ENDBRANCH  17  20
ENDBRANCH  12  14
ENDBRANCH   2  10
BRANCH   1  24
ATOM     24  N   UNL     1      -2.938   0.594  -1.629  0.00  0.00    -0.334 N 
ATOM     25  H   UNL     1      -2.370   1.091  -2.429  0.00  0.00    +0.147 HD
BRANCH  24  26
ATOM     26  C   UNL     1      -2.354   0.459  -0.292  0.00  0.00    +0.141 C 
BRANCH  26  30
ATOM     27  C   UNL     1       1.550   2.212  -0.261  0.00  0.00    +0.165 A 
ATOM     28  C   UNL     1       1.402   0.838  -0.377  0.00  0.00    +0.050 A 
ATOM     29  C   UNL     1       0.140   0.275  -0.383  0.00  0.00    +0.012 A 
ATOM     30  C   UNL     1      -0.980   1.078  -0.279  0.00  0.00    +0.015 A 
ATOM     31  C   UNL     1      -0.841   2.452  -0.157  0.00  0.00    +0.170 A 
ATOM     32  C   UNL     1       0.426   3.023  -0.151  0.00  0.00    +0.204 A 
BRANCH  27  34
ATOM     33  C   UNL     1       3.901   1.872  -0.372  0.00  0.00    +0.277 C 
ATOM     34  O   UNL     1       2.792   2.766  -0.255  0.00  0.00    -0.491 OA
ENDBRANCH  27  34
BRANCH  32  35
ATOM     35  O   UNL     1       0.567   4.372  -0.037  0.00  0.00    -0.488 OA
ATOM     36  C   UNL     1       0.658   5.120  -1.251  0.00  0.00    +0.277 C 
ENDBRANCH  32  35
BRANCH  31  37
ATOM     37  O   UNL     1      -1.944   3.241  -0.050  0.00  0.00    -0.491 OA
ATOM     38  C   UNL     1      -2.353   3.608   1.269  0.00  0.00    +0.277 C 
ENDBRANCH  31  37
ENDBRANCH  26  30
ENDBRANCH  24  26
ENDBRANCH   1  24
TORSDOF 10
