REMARK  Name = ZINC07384867
REMARK  11 active torsions:
REMARK  status: ('A' for Active; 'I' for Inactive)
REMARK    1  A    between atoms: C_1  and  C_2
REMARK    2  A    between atoms: C_2  and  O_3
REMARK    3  A    between atoms: O_3  and  C_4
REMARK    4  A    between atoms: C_10  and  C_30
REMARK    5  A    between atoms: C_12  and  C_28
REMARK    6  A    between atoms: C_12  and  C_29
REMARK    7  A    between atoms: C_14  and  C_16
REMARK    8  A    between atoms: C_16  and  N_17
REMARK    9  A    between atoms: C_20  and  C_26
REMARK   10  A    between atoms: C_21  and  C_25
REMARK   11  A    between atoms: C_22  and  C_24
REMARK                            x       y       z     vdW  Elec       q    Type
REMARK                         _______ _______ _______ _____ _____    ______ ____
ROOT
ATOM      1  C   UNL     1       6.550  -1.187   1.263  0.00  0.00    +0.121 A 
ATOM      2  C   UNL     1       5.651  -0.173   1.570  0.00  0.00    +0.047 A 
ATOM      3  C   UNL     1       4.804   0.329   0.598  0.00  0.00    +0.028 A 
ATOM      4  C   UNL     1       4.854  -0.181  -0.685  0.00  0.00    +0.045 A 
ATOM      5  C   UNL     1       5.758  -1.208  -1.001  0.00  0.00    +0.003 A 
ATOM      6  C   UNL     1       6.608  -1.707  -0.020  0.00  0.00    +0.055 A 
ATOM      7  C   UNL     1       5.780  -1.734  -2.380  0.00  0.00    -0.043 C 
ATOM      8  C   UNL     1       5.192  -1.050  -3.354  0.00  0.00    +0.002 C 
ATOM      9  C   UNL     1       4.511   0.260  -3.084  0.00  0.00    +0.055 C 
ATOM     10  N   UNL     1       4.018   0.299  -1.702  0.00  0.00    -0.260 N 
ATOM     11  C   UNL     1       2.791   0.780  -1.418  0.00  0.00    +0.242 C 
ATOM     12  O   UNL     1       2.050   1.118  -2.317  0.00  0.00    -0.273 OA
ATOM     13  C   UNL     1       3.334   0.428  -4.048  0.00  0.00    +0.036 C 
ATOM     14  C   UNL     1       5.509   1.400  -3.300  0.00  0.00    +0.036 C 
ATOM     15  C   UNL     1       6.466  -3.041  -2.681  0.00  0.00    +0.044 C 
ENDROOT
BRANCH   1  16
ATOM     16  O   UNL     1       7.378  -1.671   2.227  0.00  0.00    -0.492 OA
BRANCH  16  18
ATOM     17  C   UNL     1       8.271  -1.758   4.471  0.00  0.00    +0.048 C 
ATOM     18  C   UNL     1       7.268  -1.091   3.529  0.00  0.00    +0.225 C 
ENDBRANCH  16  18
ENDBRANCH   1  16
BRANCH  11  19
ATOM     19  C   UNL     1       2.340   0.896   0.015  0.00  0.00    +0.243 C 
BRANCH  19  20
ATOM     20  N   UNL     1       0.887   1.083   0.056  0.00  0.00    -0.219 N 
ATOM     21  C   UNL     1       0.088  -0.001   0.122  0.00  0.00    +0.285 A 
ATOM     22  O   UNL     1       0.561  -1.124   0.148  0.00  0.00    -0.265 OA
ATOM     23  C   UNL     1      -1.366   0.203   0.156  0.00  0.00    +0.122 A 
ATOM     24  C   UNL     1      -1.819   1.521   0.128  0.00  0.00    -0.005 A 
ATOM     25  C   UNL     1      -0.864   2.542   0.059  0.00  0.00    +0.063 A 
ATOM     26  N   UNL     1       0.411   2.273   0.027  0.00  0.00    -0.173 NA
ATOM     27  C   UNL     1      -1.318   3.979   0.020  0.00  0.00    +0.068 C 
ATOM     28  C   UNL     1      -3.292   1.837   0.164  0.00  0.00    +0.047 C 
BRANCH  23  29
ATOM     29  C   UNL     1      -2.276  -0.901   0.221  0.00  0.00    +0.105 C 
ATOM     30  N   UNL     1      -2.997  -1.776   0.272  0.00  0.00    -0.191 NA
ENDBRANCH  23  29
ENDBRANCH  19  20
ENDBRANCH  11  19
TORSDOF 5
