REMARK  Name = ZINC20153119
REMARK  12 active torsions:
REMARK  status: ('A' for Active; 'I' for Inactive)
REMARK    1  A    between atoms: C_1  and  C_2
REMARK    2  A    between atoms: N_5  and  C_8
REMARK    3  A    between atoms: C_11  and  C_17
REMARK    4  A    between atoms: C_13  and  N_14
REMARK    5  A    between atoms: N_19  and  C_20
REMARK    6  A    between atoms: C_20  and  N_22
REMARK    7  A    between atoms: N_22  and  C_23
REMARK    8  A    between atoms: C_25  and  C_31
REMARK    9  A    between atoms: C_28  and  O_29
REMARK   10  A    between atoms: O_29  and  C_30
REMARK   11  A    between atoms: C_34  and  C_36
REMARK   12  A    between atoms: C_36  and  O_37
REMARK                            x       y       z     vdW  Elec       q    Type
REMARK                         _______ _______ _______ _____ _____    ______ ____
ROOT
ATOM      1  C   UNL     1      -2.972  -6.343   4.420  0.00  0.00    +0.250 C 
ATOM      2  O   UNL     1      -3.658  -5.957   5.347  0.00  0.00    -0.270 OA
ATOM      3  N   UNL     1      -2.716  -7.658   4.272  0.00  0.00    -0.264 N 
ATOM      4  H   UNL     1      -2.170  -7.965   3.533  0.00  0.00    +0.157 HD
ENDROOT
BRANCH   1   8
ATOM      5  C   UNL     1      -1.385  -3.555   1.646  0.00  0.00    +0.060 A 
ATOM      6  C   UNL     1      -1.123  -4.914   1.498  0.00  0.00    +0.026 A 
ATOM      7  C   UNL     1      -1.632  -5.814   2.390  0.00  0.00    +0.015 A 
ATOM      8  C   UNL     1      -2.421  -5.372   3.457  0.00  0.00    +0.039 A 
ATOM      9  C   UNL     1      -2.686  -4.007   3.608  0.00  0.00    +0.047 A 
ATOM     10  C   UNL     1      -2.164  -3.105   2.709  0.00  0.00    +0.148 A 
BRANCH   5  15
ATOM     11  C   UNL     1       1.512  -1.919  -2.720  0.00  0.00    +0.007 C 
ATOM     12  C   UNL     1       0.609  -1.729  -1.500  0.00  0.00    -0.011 C 
ATOM     13  C   UNL     1       1.332  -2.230  -0.248  0.00  0.00    +0.022 C 
ATOM     14  C   UNL     1       0.439  -2.006   0.976  0.00  0.00    +0.105 C 
ATOM     15  N   UNL     1      -0.863  -2.644   0.735  0.00  0.00    -0.328 N 
ATOM     16  C   UNL     1      -1.601  -2.301  -0.488  0.00  0.00    +0.105 C 
ATOM     17  C   UNL     1      -0.685  -2.522  -1.696  0.00  0.00    +0.022 C 
ENDBRANCH   5  15
BRANCH  10  18
ATOM     18  N   UNL     1      -2.436  -1.659   2.868  0.00  0.00    +0.058 N 
ATOM     19  O   UNL     1      -3.033  -1.259   3.841  0.00  0.00    -0.126 OA
ATOM     20  O   UNL     1      -2.061  -0.877   2.026  0.00  0.00    -0.126 OA
ENDBRANCH  10  18
ENDBRANCH   1   8
BRANCH   3  21
ATOM     21  C   UNL     1      -3.220  -8.545   5.152  0.00  0.00    +0.141 C 
ATOM     22  S   UNL     1      -4.186  -8.002   6.458  0.00  0.00    -0.018 S 
BRANCH  21  23
ATOM     23  N   UNL     1      -2.965  -9.860   5.005  0.00  0.00    -0.294 N 
ATOM     24  H   UNL     1      -2.364 -10.162   4.306  0.00  0.00    +0.154 HD
BRANCH  23  25
ATOM     25  C   UNL     1      -3.567 -10.791   5.861  0.00  0.00    +0.076 A 
ATOM     26  C   UNL     1      -3.575 -10.571   7.228  0.00  0.00    +0.038 A 
ATOM     27  C   UNL     1      -4.175 -11.501   8.078  0.00  0.00    +0.019 A 
ATOM     28  C   UNL     1      -4.765 -12.649   7.546  0.00  0.00    +0.015 A 
ATOM     29  C   UNL     1      -4.754 -12.863   6.183  0.00  0.00    +0.048 A 
ATOM     30  C   UNL     1      -4.163 -11.937   5.337  0.00  0.00    +0.141 A 
BRANCH  27  31
ATOM     31  C   UNL     1      -4.186 -11.271   9.538  0.00  0.00    +0.135 A 
ATOM     32  C   UNL     1      -4.730 -12.097  10.471  0.00  0.00    +0.050 A 
ATOM     33  C   UNL     1      -4.513 -11.490  11.725  0.00  0.00    +0.047 A 
ATOM     34  C   UNL     1      -3.855 -10.337  11.497  0.00  0.00    +0.131 A 
ATOM     35  O   UNL     1      -3.654 -10.211  10.175  0.00  0.00    -0.457 OA
BRANCH  34  36
ATOM     36  C   UNL     1      -3.413  -9.355  12.551  0.00  0.00    +0.230 C 
BRANCH  36  37
ATOM     37  O   UNL     1      -2.098  -9.693  12.996  0.00  0.00    -0.387 OA
ATOM     38  H   UNL     1      -1.749  -9.101  13.676  0.00  0.00    +0.210 HD
ENDBRANCH  36  37
ENDBRANCH  34  36
ENDBRANCH  27  31
BRANCH  30  39
ATOM     39  O   UNL     1      -4.160 -12.150   3.994  0.00  0.00    -0.493 OA
ATOM     40  C   UNL     1      -4.788 -13.345   3.525  0.00  0.00    +0.277 C 
ENDBRANCH  30  39
ENDBRANCH  23  25
ENDBRANCH  21  23
ENDBRANCH   3  21
TORSDOF 10
