REMARK  Name = ZINC02163216
REMARK  3 active torsions:
REMARK  status: ('A' for Active; 'I' for Inactive)
REMARK    1  A    between atoms: N_4  and  C_6
REMARK    2  A    between atoms: C_9  and  N_13
REMARK    3  A    between atoms: N_15  and  O_16
REMARK                            x       y       z     vdW  Elec       q    Type
REMARK                         _______ _______ _______ _____ _____    ______ ____
ROOT
ATOM      1  C   UNL     1       1.188   1.800   0.036  0.00  0.00    +0.066 A 
ATOM      2  C   UNL     1      -0.002   1.085   0.034  0.00  0.00    +0.049 A 
ATOM      3  C   UNL     1      -1.210   1.755   0.032  0.00  0.00    +0.064 A 
ATOM      4  C   UNL     1      -1.234   3.145   0.042  0.00  0.00    +0.052 A 
ATOM      5  C   UNL     1      -0.044   3.860   0.043  0.00  0.00    +0.046 A 
ATOM      6  C   UNL     1       1.165   3.189   0.040  0.00  0.00    +0.067 A 
ATOM      7 CL   UNL     1       2.653   4.083   0.041  0.00  0.00    -0.081 Cl
ATOM      8 CL   UNL     1      -2.698   0.861   0.023  0.00  0.00    -0.082 Cl
ENDROOT
BRANCH   1  12
ATOM      9  C   UNL     1       4.018  -0.288   0.565  0.00  0.00    +0.019 A 
ATOM     10  C   UNL     1       4.456   0.507  -0.512  0.00  0.00    +0.019 A 
ATOM     11  C   UNL     1       3.457   1.360  -0.818  0.00  0.00    +0.091 A 
ATOM     12  N   UNL     1       2.416   1.119   0.032  0.00  0.00    -0.322 N 
ATOM     13  C   UNL     1       2.769   0.111   0.882  0.00  0.00    +0.091 A 
ENDBRANCH   1  12
BRANCH   4  14
ATOM     14  N   UNL     1      -2.458   3.824   0.046  0.00  0.00    -0.302 N 
ATOM     15  C   UNL     1      -2.536   5.106  -0.452  0.00  0.00    +0.228 C 
ATOM     16  N   UNL     1      -1.507   5.643  -1.019  0.00  0.00    -0.080 NA
ATOM     17  H   UNL     1      -3.252   3.391   0.398  0.00  0.00    +0.153 HD
BRANCH  16  18
ATOM     18  O   UNL     1      -1.587   6.961  -1.530  0.00  0.00    -0.408 OA
ATOM     19  H   UNL     1      -0.768   7.276  -1.936  0.00  0.00    +0.328 HD
ENDBRANCH  16  18
ENDBRANCH   4  14
TORSDOF 3
