REMARK  Name = ZINC58849584
REMARK  8 active torsions:
REMARK  status: ('A' for Active; 'I' for Inactive)
REMARK    1  A    between atoms: C_1  and  O_2
REMARK    2  A    between atoms: O_2  and  C_3
REMARK    3  A    between atoms: C_6  and  N_11
REMARK    4  A    between atoms: C_8  and  O_9
REMARK    5  A    between atoms: O_9  and  C_10
REMARK    6  A    between atoms: N_11  and  S_12
REMARK    7  A    between atoms: S_12  and  C_15
REMARK    8  A    between atoms: C_28  and  C_31
REMARK                            x       y       z     vdW  Elec       q    Type
REMARK                         _______ _______ _______ _____ _____    ______ ____
ROOT
ATOM      1  C   UNL     1      -5.568  -2.347  -2.623  0.00  0.00    +0.109 A 
ATOM      2  C   UNL     1      -4.864  -1.365  -3.296  0.00  0.00    +0.030 A 
ATOM      3  C   UNL     1      -4.450  -1.588  -4.594  0.00  0.00    +0.025 A 
ATOM      4  C   UNL     1      -4.737  -2.795  -5.221  0.00  0.00    +0.031 A 
ATOM      5  C   UNL     1      -5.432  -3.785  -4.543  0.00  0.00    -0.018 A 
ATOM      6  C   UNL     1      -5.846  -3.549  -3.240  0.00  0.00    +0.034 A 
ATOM      7  C   UNL     1      -5.724  -5.107  -5.169  0.00  0.00    +0.049 C 
ATOM      8  C   UNL     1      -7.162  -5.222  -5.607  0.00  0.00    -0.023 C 
ATOM      9  C   UNL     1      -7.243  -5.909  -6.719  0.00  0.00    -0.030 C 
ATOM     10  C   UNL     1      -5.872  -6.345  -7.185  0.00  0.00    +0.033 C 
ATOM     11  C   UNL     1      -4.906  -5.409  -6.423  0.00  0.00    +0.029 C 
ATOM     12  C   UNL     1      -4.644  -4.194  -7.288  0.00  0.00    +0.105 C 
ATOM     13  N   UNL     1      -4.330  -2.997  -6.535  0.00  0.00    -0.336 N 
ATOM     14  H   UNL     1      -3.832  -2.292  -6.976  0.00  0.00    +0.147 HD
ENDROOT
BRANCH  12  15
ATOM     15  C   UNL     1      -5.856  -3.948  -8.149  0.00  0.00    -0.023 A 
ATOM     16  C   UNL     1      -6.957  -3.300  -7.621  0.00  0.00    +0.009 A 
ATOM     17  C   UNL     1      -8.071  -3.072  -8.406  0.00  0.00    +0.050 A 
ATOM     18  C   UNL     1      -8.087  -3.494  -9.726  0.00  0.00    +0.166 A 
ATOM     19  C   UNL     1      -6.978  -4.146 -10.258  0.00  0.00    +0.167 A 
ATOM     20  C   UNL     1      -5.862  -4.366  -9.466  0.00  0.00    +0.055 A 
ATOM     21  O   UNL     1      -7.238  -4.456 -11.562  0.00  0.00    -0.453 OA
ATOM     22  C   UNL     1      -8.667  -4.352 -11.704  0.00  0.00    +0.466 C 
ATOM     23  O   UNL     1      -9.042  -3.395 -10.697  0.00  0.00    -0.453 OA
ENDBRANCH  12  15
BRANCH   1  24
ATOM     24  S   UNL     1      -6.106  -2.063  -0.969  0.00  0.00    +0.072 S 
ATOM     25  O   UNL     1      -7.212  -2.928  -0.748  0.00  0.00    -0.150 OA
ATOM     26  O   UNL     1      -6.196  -0.654  -0.807  0.00  0.00    -0.150 OA
BRANCH  24  27
ATOM     27  N   UNL     1      -4.894  -2.579   0.035  0.00  0.00    -0.216 N 
ATOM     28  H   UNL     1      -5.044  -3.331   0.630  0.00  0.00    +0.174 HD
BRANCH  27  32
ATOM     29  C   UNL     1      -1.202  -0.638   0.010  0.00  0.00    +0.162 A 
ATOM     30  C   UNL     1      -2.374   0.100   0.019  0.00  0.00    +0.051 A 
ATOM     31  C   UNL     1      -3.598  -0.542   0.028  0.00  0.00    +0.028 A 
ATOM     32  C   UNL     1      -3.655  -1.930   0.027  0.00  0.00    +0.052 A 
ATOM     33  C   UNL     1      -2.482  -2.673   0.017  0.00  0.00    +0.074 A 
ATOM     34  C   UNL     1      -1.256  -2.029   0.003  0.00  0.00    +0.163 A 
BRANCH  29  36
ATOM     35  C   UNL     1      -0.017   1.425   0.010  0.00  0.00    +0.277 C 
ATOM     36  O   UNL     1       0.002  -0.004   0.002  0.00  0.00    -0.491 OA
ENDBRANCH  29  36
BRANCH  34  37
ATOM     37  O   UNL     1      -0.106  -2.754  -0.012  0.00  0.00    -0.491 OA
ATOM     38  C   UNL     1      -0.237  -4.177  -0.018  0.00  0.00    +0.277 C 
ENDBRANCH  34  37
ENDBRANCH  27  32
ENDBRANCH  24  27
ENDBRANCH   1  24
TORSDOF 6
