REMARK  Name = ZINC06171684
REMARK  7 active torsions:
REMARK  status: ('A' for Active; 'I' for Inactive)
REMARK    1  A    between atoms: C_1  and  C_2
REMARK    2  A    between atoms: C_2  and  C_3
REMARK    3  A    between atoms: C_2  and  N_4
REMARK    4  A    between atoms: N_12  and  N_13
REMARK    5  A    between atoms: C_14  and  C_16
REMARK    6  A    between atoms: C_21  and  S_22
REMARK    7  A    between atoms: S_22  and  N_25
REMARK                            x       y       z     vdW  Elec       q    Type
REMARK                         _______ _______ _______ _____ _____    ______ ____
ROOT
ATOM      1  N   UNL     1       4.555  -0.117   2.854  0.00  0.00    -0.202 N 
ATOM      2  C   UNL     1       5.735  -0.091   3.504  0.00  0.00    +0.265 C 
ATOM      3  O   UNL     1       5.867  -0.700   4.548  0.00  0.00    -0.268 OA
ATOM      4  H   UNL     1       4.449   0.369   2.021  0.00  0.00    +0.178 HD
ENDROOT
BRANCH   1  13
ATOM      5  N   UNL     1       0.711  -0.489   1.189  0.00  0.00    -0.263 N 
ATOM      6  C   UNL     1       0.144  -1.310   2.158  0.00  0.00    +0.046 A 
ATOM      7  C   UNL     1      -1.129  -1.856   2.277  0.00  0.00    +0.024 A 
ATOM      8  C   UNL     1      -1.443  -2.653   3.359  0.00  0.00    +0.002 A 
ATOM      9  C   UNL     1      -0.498  -2.919   4.337  0.00  0.00    +0.001 A 
ATOM     10  C   UNL     1       0.771  -2.386   4.235  0.00  0.00    +0.012 A 
ATOM     11  C   UNL     1       1.096  -1.582   3.149  0.00  0.00    +0.028 A 
ATOM     12  C   UNL     1       2.333  -0.871   2.747  0.00  0.00    +0.153 C 
ATOM     13  N   UNL     1       3.481  -0.846   3.380  0.00  0.00    -0.174 NA
ATOM     14  C   UNL     1       1.992  -0.203   1.475  0.00  0.00    +0.272 C 
ATOM     15  O   UNL     1       2.738   0.488   0.807  0.00  0.00    -0.268 OA
BRANCH   5  17
ATOM     16  C   UNL     1      -0.019   1.526   0.010  0.00  0.00    +0.028 C 
ATOM     17  C   UNL     1       0.002  -0.004   0.002  0.00  0.00    +0.076 C 
ATOM     18  C   UNL     1       0.718  -0.497  -1.257  0.00  0.00    +0.028 C 
ENDBRANCH   5  17
ENDBRANCH   1  13
BRANCH   2  19
ATOM     19  C   UNL     1       6.868   0.678   2.949  0.00  0.00    +0.065 A 
ATOM     20  C   UNL     1       6.718   1.383   1.753  0.00  0.00    +0.015 A 
ATOM     21  C   UNL     1       7.779   2.099   1.240  0.00  0.00    +0.001 A 
ATOM     22  C   UNL     1       8.991   2.119   1.908  0.00  0.00    +0.002 A 
ATOM     23  C   UNL     1       9.147   1.422   3.093  0.00  0.00    +0.029 A 
ATOM     24  C   UNL     1       8.091   0.707   3.621  0.00  0.00    +0.117 A 
BRANCH  24  25
ATOM     25  S   UNL     1       8.290  -0.172   5.134  0.00  0.00    +0.057 S 
ATOM     26  O   UNL     1       7.792  -1.484   4.910  0.00  0.00    -0.153 OA
ATOM     27  O   UNL     1       9.617   0.073   5.576  0.00  0.00    -0.153 OA
BRANCH  25  28
ATOM     28  N   UNL     1       7.283   0.531   6.245  0.00  0.00    -0.203 NA
ATOM     29  H   UNL     1       6.731   1.287   5.989  0.00  0.00    +0.144 HD
ATOM     30  H   UNL     1       7.245   0.188   7.151  0.00  0.00    +0.144 HD
ENDBRANCH  25  28
ENDBRANCH  24  25
ENDBRANCH   2  19
TORSDOF 5
