REMARK  Name = ZINC15936419
REMARK  12 active torsions:
REMARK  status: ('A' for Active; 'I' for Inactive)
REMARK    1  A    between atoms: C_1  and  C_2
REMARK    2  A    between atoms: C_2  and  N_3
REMARK    3  A    between atoms: C_5  and  C_12
REMARK    4  A    between atoms: C_13  and  C_14
REMARK    5  A    between atoms: C_13  and  N_25
REMARK    6  A    between atoms: N_16  and  C_17
REMARK    7  A    between atoms: C_17  and  C_18
REMARK    8  A    between atoms: C_18  and  C_19
REMARK    9  A    between atoms: C_19  and  N_20
REMARK   10  A    between atoms: C_26  and  C_28
REMARK   11  A    between atoms: C_33  and  O_34
REMARK   12  A    between atoms: O_34  and  C_35
REMARK                            x       y       z     vdW  Elec       q    Type
REMARK                         _______ _______ _______ _____ _____    ______ ____
ROOT
ATOM      1  C   UNL     1       0.377  -1.542  -4.652  0.00  0.00    +0.038 C 
ATOM      2  C   UNL     1      -0.894  -1.415  -5.111  0.00  0.00    +0.097 C 
ENDROOT
BRANCH   1   5
ATOM      3  N   UNL     1       0.396  -1.190  -1.021  0.00  0.00    -0.346 N 
ATOM      4  C   UNL     1      -0.244  -1.388  -2.203  0.00  0.00    +0.094 A 
ATOM      5  C   UNL     1       0.661  -1.367  -3.225  0.00  0.00    +0.002 A 
ATOM      6  C   UNL     1       1.981  -1.134  -2.610  0.00  0.00    +0.007 A 
ATOM      7  C   UNL     1       1.750  -1.026  -1.229  0.00  0.00    +0.050 A 
ATOM      8  C   UNL     1       2.823  -0.796  -0.374  0.00  0.00    +0.026 A 
ATOM      9  C   UNL     1       4.096  -0.673  -0.886  0.00  0.00    +0.002 A 
ATOM     10  C   UNL     1       4.322  -0.776  -2.251  0.00  0.00    +0.001 A 
ATOM     11  C   UNL     1       3.274  -1.012  -3.114  0.00  0.00    +0.010 A 
BRANCH   3  13
ATOM     12  C   UNL     1      -0.511   0.306   0.688  0.00  0.00    +0.027 C 
ATOM     13  C   UNL     1      -0.259  -1.149   0.289  0.00  0.00    +0.118 C 
ENDBRANCH   3  13
ENDBRANCH   1   5
BRANCH   2  14
ATOM     14  C   UNL     1      -1.204  -1.733  -6.506  0.00  0.00    +0.258 C 
ATOM     15  O   UNL     1      -2.343  -1.618  -6.918  0.00  0.00    -0.269 OA
ATOM     16  N   UNL     1      -0.227  -2.152  -7.335  0.00  0.00    -0.310 N 
ATOM     17  H   UNL     1       0.682  -2.244  -7.006  0.00  0.00    +0.149 HD
BRANCH  16  18
ATOM     18  C   UNL     1      -0.536  -2.471  -8.731  0.00  0.00    +0.106 C 
BRANCH  18  19
ATOM     19  C   UNL     1       0.740  -2.919  -9.446  0.00  0.00    +0.040 C 
BRANCH  19  20
ATOM     20  C   UNL     1       0.416  -3.252 -10.904  0.00  0.00    +0.124 C 
BRANCH  20  21
ATOM     21  N   UNL     1       1.638  -3.681 -11.590  0.00  0.00    -0.338 N 
ATOM     22  C   UNL     1       2.526  -2.874 -12.249  0.00  0.00    +0.104 A 
ATOM     23  C   UNL     1       3.498  -3.674 -12.727  0.00  0.00    +0.101 A 
ATOM     24  N   UNL     1       3.211  -4.935 -12.370  0.00  0.00    -0.352 N 
ATOM     25  C   UNL     1       2.101  -4.946 -11.684  0.00  0.00    +0.173 A 
ATOM     26  H   UNL     1       3.746  -5.715 -12.585  0.00  0.00    +0.166 HD
ENDBRANCH  20  21
ENDBRANCH  19  20
ENDBRANCH  18  19
ENDBRANCH  16  18
ENDBRANCH   2  14
BRANCH   2  27
ATOM     27  N   UNL     1      -1.911  -0.978  -4.250  0.00  0.00    -0.277 N 
ATOM     28  C   UNL     1      -2.980  -1.764  -4.016  0.00  0.00    +0.252 C 
ATOM     29  O   UNL     1      -3.027  -2.883  -4.490  0.00  0.00    -0.270 OA
ATOM     30  H   UNL     1      -1.844  -0.110  -3.821  0.00  0.00    +0.155 HD
BRANCH  28  31
ATOM     31  C   UNL     1      -4.094  -1.267  -3.186  0.00  0.00    +0.079 A 
ATOM     32  C   UNL     1      -4.097   0.054  -2.733  0.00  0.00    +0.017 A 
ATOM     33  C   UNL     1      -5.140   0.512  -1.958  0.00  0.00    +0.001 A 
ATOM     34  C   UNL     1      -6.187  -0.332  -1.625  0.00  0.00    +0.004 A 
ATOM     35  C   UNL     1      -6.197  -1.640  -2.066  0.00  0.00    +0.046 A 
ATOM     36  C   UNL     1      -5.157  -2.117  -2.852  0.00  0.00    +0.132 A 
BRANCH  36  37
ATOM     37  O   UNL     1      -5.168  -3.401  -3.290  0.00  0.00    -0.494 OA
ATOM     38  C   UNL     1      -6.330  -4.177  -2.996  0.00  0.00    +0.277 C 
ENDBRANCH  36  37
ENDBRANCH  28  31
ENDBRANCH   2  27
TORSDOF 10
