REMARK  Name = ZINC61710847
REMARK  6 active torsions:
REMARK  status: ('A' for Active; 'I' for Inactive)
REMARK    1  A    between atoms: C_1  and  C_2
REMARK    2  A    between atoms: C_2  and  C_4
REMARK    3  A    between atoms: C_2  and  O_20
REMARK    4  A    between atoms: C_7  and  N_13
REMARK    5  A    between atoms: C_8  and  N_10
REMARK    6  A    between atoms: C_16  and  O_19
REMARK                            x       y       z     vdW  Elec       q    Type
REMARK                         _______ _______ _______ _____ _____    ______ ____
ROOT
ATOM      1  C   UNL     1      -1.412  -0.526   0.013  0.00  0.00    -0.017 A 
ATOM      2  C   UNL     1      -2.122  -0.570   1.199  0.00  0.00    +0.008 A 
ATOM      3  C   UNL     1      -3.417  -1.047   1.212  0.00  0.00    +0.026 A 
ATOM      4  C   UNL     1      -4.008  -1.483   0.032  0.00  0.00    +0.060 A 
ATOM      5  C   UNL     1      -3.292  -1.437  -1.157  0.00  0.00    +0.147 A 
ATOM      6  C   UNL     1      -1.998  -0.953  -1.164  0.00  0.00    +0.040 A 
ENDROOT
BRANCH   4   7
ATOM      7  N   UNL     1      -5.318  -1.966   0.042  0.00  0.00    -0.326 N 
ATOM      8  C   UNL     1      -5.715  -3.369   0.258  0.00  0.00    +0.108 C 
ATOM      9  C   UNL     1      -7.168  -3.294   0.788  0.00  0.00    +0.052 C 
ATOM     10  C   UNL     1      -7.740  -2.111  -0.037  0.00  0.00    +0.133 C 
ATOM     11  C   UNL     1      -6.531  -1.159  -0.155  0.00  0.00    +0.136 C 
BRANCH  10  12
ATOM     12  O   UNL     1      -8.171  -2.554  -1.325  0.00  0.00    -0.390 OA
ATOM     13  H   UNL     1      -8.880  -3.212  -1.297  0.00  0.00    +0.210 HD
ENDBRANCH  10  12
ENDBRANCH   4   7
BRANCH   5  14
ATOM     14  N   UNL     1      -3.917  -1.900  -2.416  0.00  0.00    +0.058 N 
ATOM     15  O   UNL     1      -3.293  -1.859  -3.451  0.00  0.00    -0.126 OA
ATOM     16  O   UNL     1      -5.051  -2.319  -2.410  0.00  0.00    -0.126 OA
ENDBRANCH   5  14
BRANCH   1  18
ATOM     17  C   UNL     1      -0.019   1.526   0.010  0.00  0.00    +0.043 C 
ATOM     18  C   UNL     1       0.002  -0.004   0.002  0.00  0.00    +0.141 C 
BRANCH  18  19
ATOM     19  O   UNL     1       0.693  -0.477   1.160  0.00  0.00    -0.387 OA
ATOM     20  H   UNL     1       1.611  -0.180   1.219  0.00  0.00    +0.210 HD
ENDBRANCH  18  19
ENDBRANCH   1  18
TORSDOF 5
