REMARK  Name = ZINC34748145
REMARK  7 active torsions:
REMARK  status: ('A' for Active; 'I' for Inactive)
REMARK    1  A    between atoms: C_4  and  C_7
REMARK    2  A    between atoms: C_7  and  C_8
REMARK    3  A    between atoms: C_8  and  N_9
REMARK    4  A    between atoms: N_22  and  C_25
REMARK    5  A    between atoms: C_25  and  C_26
REMARK    6  A    between atoms: N_28  and  C_29
REMARK    7  A    between atoms: C_29  and  C_30
REMARK                            x       y       z     vdW  Elec       q    Type
REMARK                         _______ _______ _______ _____ _____    ______ ____
ROOT
ATOM      1  N   UNL     1       6.489  -1.628   0.198  0.00  0.00    -0.280 N 
ATOM      2  C   UNL     1       6.431  -2.972   0.153  0.00  0.00    +0.264 A 
ATOM      3  O   UNL     1       6.232  -3.548  -0.903  0.00  0.00    -0.267 OA
ATOM      4  C   UNL     1       6.609  -3.713   1.363  0.00  0.00    +0.076 A 
ATOM      5  C   UNL     1       6.585  -5.175   1.542  0.00  0.00    -0.023 A 
ATOM      6  C   UNL     1       6.778  -5.637   2.788  0.00  0.00    -0.004 A 
ATOM      7  S   UNL     1       7.004  -4.184   3.788  0.00  0.00    -0.073 S 
ATOM      8  C   UNL     1       6.833  -2.955   2.521  0.00  0.00    +0.117 A 
ATOM      9  N   UNL     1       6.878  -1.627   2.498  0.00  0.00    -0.208 NA
ATOM     10  C   UNL     1       6.717  -0.968   1.369  0.00  0.00    +0.202 A 
ATOM     11  N   UNL     1       6.774   0.403   1.373  0.00  0.00    -0.304 N 
ATOM     12  C   UNL     1       5.559   1.210   1.562  0.00  0.00    +0.089 C 
ATOM     13  C   UNL     1       5.826   2.241   2.664  0.00  0.00    -0.059 C 
ATOM     14  N   UNL     1       7.024   3.019   2.325  0.00  0.00    +0.387 N 
ATOM     15  C   UNL     1       8.202   2.143   2.310  0.00  0.00    -0.059 C 
ATOM     16  C   UNL     1       8.054   1.108   1.195  0.00  0.00    +0.089 C 
ATOM     17  C   UNL     1       6.728  -7.140   2.851  0.00  0.00    +0.043 C 
ATOM     18  C   UNL     1       6.044  -7.560   1.532  0.00  0.00    +0.010 C 
ATOM     19  C   UNL     1       6.386  -6.373   0.610  0.00  0.00    +0.037 C 
ATOM     20  H   UNL     1       6.905   3.437   1.415  0.00  0.00    -0.081 HD
ENDROOT
BRANCH   1  21
ATOM     21  C   UNL     1       6.310  -0.859  -1.036  0.00  0.00    +0.133 C 
BRANCH  21  22
ATOM     22  C   UNL     1       7.646  -0.762  -1.776  0.00  0.00    +0.057 C 
BRANCH  22  26
ATOM     23  C   UNL     1       7.125   1.479  -5.375  0.00  0.00    +0.000 A 
ATOM     24  C   UNL     1       7.462   2.126  -4.200  0.00  0.00    +0.000 A 
ATOM     25  C   UNL     1       7.631   1.401  -3.036  0.00  0.00    +0.004 A 
ATOM     26  C   UNL     1       7.461   0.029  -3.045  0.00  0.00    -0.046 A 
ATOM     27  C   UNL     1       7.123  -0.618  -4.219  0.00  0.00    +0.004 A 
ATOM     28  C   UNL     1       6.956   0.107  -5.384  0.00  0.00    +0.000 A 
ENDBRANCH  22  26
ENDBRANCH  21  22
ENDBRANCH   1  21
BRANCH  14  29
ATOM     29  C   UNL     1       7.217   4.078   3.325  0.00  0.00    +0.019 C 
BRANCH  29  30
ATOM     30  C   UNL     1       8.372   4.953   2.913  0.00  0.00    +0.197 C 
ATOM     31  O   UNL     1       8.976   4.718   1.888  0.00  0.00    -0.278 OA
ATOM     32  N   UNL     1       8.735   5.997   3.684  0.00  0.00    -0.313 N 
ATOM     33  H   UNL     1       8.252   6.185   4.505  0.00  0.00    +0.149 HD
BRANCH  32  34
ATOM     34  C   UNL     1       9.858   6.848   3.284  0.00  0.00    +0.139 C 
BRANCH  34  35
ATOM     35  C   UNL     1      10.056   7.934   4.310  0.00  0.00    -0.030 A 
ATOM     36  C   UNL     1       9.391   9.139   4.178  0.00  0.00    +0.005 A 
ATOM     37  C   UNL     1       9.572  10.135   5.119  0.00  0.00    +0.000 A 
ATOM     38  C   UNL     1      10.419   9.927   6.192  0.00  0.00    +0.000 A 
ATOM     39  C   UNL     1      11.084   8.722   6.324  0.00  0.00    +0.000 A 
ATOM     40  C   UNL     1      10.899   7.724   5.386  0.00  0.00    +0.005 A 
ENDBRANCH  34  35
ENDBRANCH  32  34
ENDBRANCH  29  30
ENDBRANCH  14  29
TORSDOF 7
