REMARK  Name = ZINC35642420
REMARK  10 active torsions:
REMARK  status: ('A' for Active; 'I' for Inactive)
REMARK    1  A    between atoms: C_1  and  C_2
REMARK    2  A    between atoms: C_2  and  O_3
REMARK    3  A    between atoms: O_3  and  C_4
REMARK    4  A    between atoms: C_4  and  C_6
REMARK    5  A    between atoms: C_7  and  C_22
REMARK    6  A    between atoms: N_8  and  C_21
REMARK    7  A    between atoms: C_12  and  C_14
REMARK    8  A    between atoms: C_22  and  N_23
REMARK    9  A    between atoms: C_27  and  C_30
REMARK   10  A    between atoms: C_31  and  C_33
REMARK                            x       y       z     vdW  Elec       q    Type
REMARK                         _______ _______ _______ _____ _____    ______ ____
ROOT
ATOM      1  C   UNL     1       0.012  -2.167   0.775  0.00  0.00    +0.080 C 
ATOM      2  C   UNL     1       0.369  -3.363   0.261  0.00  0.00    +0.041 C 
ATOM      3  N   UNL     1       1.354  -3.460  -0.681  0.00  0.00    -0.260 N 
ATOM      4  C   UNL     1       2.029  -2.408  -1.161  0.00  0.00    +0.307 C 
ATOM      5  O   UNL     1       2.889  -2.594  -1.999  0.00  0.00    -0.252 OA
ATOM      6  N   UNL     1       1.785  -1.150  -0.745  0.00  0.00    -0.288 N 
ATOM      7  C   UNL     1       0.736  -0.936   0.267  0.00  0.00    +0.146 C 
ATOM      8  C   UNL     1       1.690  -4.790  -1.195  0.00  0.00    +0.139 C 
ATOM      9  H   UNL     1       2.286  -0.402  -1.105  0.00  0.00    +0.151 HD
ENDROOT
BRANCH   7  10
ATOM     10  C   UNL     1      -0.292   0.001  -0.313  0.00  0.00    +0.013 A 
ATOM     11  C   UNL     1      -0.584  -0.044  -1.663  0.00  0.00    +0.008 A 
ATOM     12  C   UNL     1      -1.527   0.816  -2.196  0.00  0.00    +0.001 A 
ATOM     13  C   UNL     1      -2.178   1.721  -1.379  0.00  0.00    +0.003 A 
ATOM     14  C   UNL     1      -1.887   1.767  -0.028  0.00  0.00    +0.039 A 
ATOM     15  C   UNL     1      -0.947   0.903   0.507  0.00  0.00    +0.129 A 
ATOM     16  F   UNL     1      -0.666   0.944   1.828  0.00  0.00    -0.205 F 
ENDBRANCH   7  10
BRANCH   1  17
ATOM     17  C   UNL     1      -1.008  -2.065   1.750  0.00  0.00    +0.339 C 
ATOM     18  O   UNL     1      -0.716  -1.949   2.925  0.00  0.00    -0.245 OA
BRANCH  17  19
ATOM     19  O   UNL     1      -2.304  -2.096   1.377  0.00  0.00    -0.462 OA
BRANCH  19  21
ATOM     20  C   UNL     1      -4.682  -2.042   1.803  0.00  0.00    +0.048 C 
ATOM     21  C   UNL     1      -3.281  -1.988   2.414  0.00  0.00    +0.229 C 
ENDBRANCH  19  21
ENDBRANCH  17  19
ENDBRANCH   1  17
BRANCH   2  22
ATOM     22  C   UNL     1      -0.329  -4.612   0.734  0.00  0.00    +0.136 C 
BRANCH  22  23
ATOM     23  N   UNL     1      -1.065  -5.216  -0.384  0.00  0.00    -0.294 NA
ATOM     24  C   UNL     1      -2.159  -4.342  -0.827  0.00  0.00    +0.104 C 
ATOM     25  C   UNL     1      -2.784  -4.917  -2.103  0.00  0.00    +0.124 C 
ATOM     26  N   UNL     1      -3.169  -6.313  -1.845  0.00  0.00    -0.292 N 
ATOM     27  C   UNL     1      -2.162  -7.218  -1.270  0.00  0.00    +0.087 C 
ATOM     28  C   UNL     1      -1.561  -6.552  -0.028  0.00  0.00    +0.107 C 
ATOM     29  C   UNL     1      -2.822  -8.542  -0.880  0.00  0.00    +0.029 C 
ATOM     30  C   UNL     1      -4.411  -6.752  -2.129  0.00  0.00    +0.250 C 
ATOM     31  O   UNL     1      -4.682  -7.931  -2.007  0.00  0.00    -0.270 OA
BRANCH  30  32
ATOM     32  C   UNL     1      -5.443  -5.801  -2.588  0.00  0.00    +0.072 A 
ATOM     33  C   UNL     1      -5.094  -4.732  -3.416  0.00  0.00    +0.016 A 
ATOM     34  C   UNL     1      -6.062  -3.848  -3.841  0.00  0.00    +0.001 A 
ATOM     35  C   UNL     1      -7.380  -4.016  -3.450  0.00  0.00    +0.003 A 
ATOM     36  C   UNL     1      -7.736  -5.070  -2.630  0.00  0.00    +0.039 A 
ATOM     37  C   UNL     1      -6.776  -5.969  -2.200  0.00  0.00    +0.135 A 
ATOM     38  F   UNL     1      -7.125  -7.003  -1.404  0.00  0.00    -0.205 F 
ENDBRANCH  30  32
ENDBRANCH  22  23
ENDBRANCH   2  22
TORSDOF 7
