REMARK  Name = ZINC08779621
REMARK  8 active torsions:
REMARK  status: ('A' for Active; 'I' for Inactive)
REMARK    1  A    between atoms: C_1  and  C_2
REMARK    2  A    between atoms: C_2  and  C_3
REMARK    3  A    between atoms: C_4  and  C_9
REMARK    4  A    between atoms: N_11  and  N_12
REMARK    5  A    between atoms: C_13  and  C_14
REMARK    6  A    between atoms: C_19  and  O_20
REMARK    7  A    between atoms: O_20  and  C_21
REMARK    8  A    between atoms: C_21  and  C_22
REMARK                            x       y       z     vdW  Elec       q    Type
REMARK                         _______ _______ _______ _____ _____    ______ ____
ROOT
ATOM      1  C   UNL     1       1.078   3.535   0.011  0.00  0.00    +0.036 A 
ATOM      2  C   UNL     1       2.276   4.253   0.009  0.00  0.00    +0.013 A 
ATOM      3  C   UNL     1       2.250   5.632   0.012  0.00  0.00    +0.001 A 
ATOM      4  C   UNL     1       1.042   6.308   0.027  0.00  0.00    +0.004 A 
ATOM      5  C   UNL     1      -0.150   5.608   0.034  0.00  0.00    +0.046 A 
ATOM      6  C   UNL     1      -0.142   4.223   0.026  0.00  0.00    +0.130 A 
ENDROOT
BRANCH   1   8
ATOM      7  N   UNL     1      -0.017   1.397   0.010  0.00  0.00    -0.187 NA
ATOM      8  C   UNL     1       1.098   2.061   0.003  0.00  0.00    +0.142 C 
BRANCH   7  11
ATOM      9  C   UNL     1      -1.156  -0.694   0.009  0.00  0.00    +0.272 C 
ATOM     10  O   UNL     1      -2.219  -0.099   0.023  0.00  0.00    -0.268 OA
ATOM     11  N   UNL     1       0.002  -0.004   0.002  0.00  0.00    -0.202 N 
ATOM     12  H   UNL     1       0.849  -0.478  -0.009  0.00  0.00    +0.178 HD
BRANCH   9  14
ATOM     13  C   UNL     1      -2.192  -3.057   0.012  0.00  0.00    +0.062 A 
ATOM     14  C   UNL     1      -1.136  -2.155   0.001  0.00  0.00    +0.100 A 
ATOM     15  S   UNL     1       0.254  -3.278  -0.017  0.00  0.00    -0.048 S 
ATOM     16  C   UNL     1      -0.650  -4.760  -0.017  0.00  0.00    +0.156 A 
ATOM     17  N   UNL     1      -1.904  -4.332  -0.003  0.00  0.00    -0.229 NA
ATOM     18  N   UNL     1      -0.182  -6.057  -0.027  0.00  0.00    -0.337 N 
ATOM     19  H   UNL     1       0.773  -6.227  -0.037  0.00  0.00    +0.144 HD
ATOM     20  H   UNL     1      -0.807  -6.798  -0.025  0.00  0.00    +0.144 HD
BRANCH  13  22
ATOM     21  C   UNL     1      -4.126  -2.412  -1.399  0.00  0.00    +0.010 C 
ATOM     22  C   UNL     1      -3.621  -2.581   0.036  0.00  0.00    +0.053 C 
ENDBRANCH  13  22
ENDBRANCH   9  14
ENDBRANCH   7  11
ENDBRANCH   1   8
BRANCH   6  23
ATOM     23  O   UNL     1      -1.313   3.534   0.034  0.00  0.00    -0.487 OA
BRANCH  23  24
ATOM     24  C   UNL     1      -2.518   4.303   0.049  0.00  0.00    +0.267 C 
BRANCH  24  25
ATOM     25  C   UNL     1      -3.706   3.376   0.056  0.00  0.00    +0.028 A 
ATOM     26  C   UNL     1      -4.266   2.961  -1.140  0.00  0.00    +0.049 A 
ATOM     27  C   UNL     1      -5.353   2.105  -1.134  0.00  0.00    +0.022 A 
ATOM     28  C   UNL     1      -5.886   1.673   0.066  0.00  0.00    +0.023 A 
ATOM     29  C   UNL     1      -5.331   2.091   1.261  0.00  0.00    +0.060 A 
ATOM     30  C   UNL     1      -4.239   2.944   1.256  0.00  0.00    +0.067 A 
ATOM     31 CL   UNL     1      -3.542   3.470   2.756  0.00  0.00    -0.082 Cl
ATOM     32 CL   UNL     1      -6.001   1.548   2.767  0.00  0.00    -0.082 Cl
ATOM     33 CL   UNL     1      -3.601   3.509  -2.647  0.00  0.00    -0.083 Cl
ENDBRANCH  24  25
ENDBRANCH  23  24
ENDBRANCH   6  23
TORSDOF 7
