REMARK  Name = ZINC14021475
REMARK  12 active torsions:
REMARK  status: ('A' for Active; 'I' for Inactive)
REMARK    1  A    between atoms: C_1  and  C_2
REMARK    2  A    between atoms: C_2  and  C_3
REMARK    3  A    between atoms: C_3  and  O_4
REMARK    4  A    between atoms: O_4  and  C_5
REMARK    5  A    between atoms: C_5  and  C_7
REMARK    6  A    between atoms: C_10  and  O_13
REMARK    7  A    between atoms: O_13  and  C_14
REMARK    8  A    between atoms: C_14  and  C_15
REMARK    9  A    between atoms: N_17  and  N_18
REMARK   10  A    between atoms: C_19  and  C_21
REMARK   11  A    between atoms: C_24  and  O_28
REMARK   12  A    between atoms: O_28  and  C_29
REMARK                            x       y       z     vdW  Elec       q    Type
REMARK                         _______ _______ _______ _____ _____    ______ ____
ROOT
ATOM      1  C   UNL     1      -0.016   1.344   0.009  0.00  0.00    +0.267 C 
ATOM      2  O   UNL     1      -1.075   1.936   0.018  0.00  0.00    -0.271 OA
ATOM      3  N   UNL     1       0.002  -0.004   0.002  0.00  0.00    -0.231 N 
ATOM      4  H   UNL     1       0.849  -0.478  -0.009  0.00  0.00    +0.173 HD
ENDROOT
BRANCH   3   5
ATOM      5  N   UNL     1      -1.202  -0.721   0.010  0.00  0.00    -0.230 N 
ATOM      6  C   UNL     1      -1.183  -2.069   0.002  0.00  0.00    +0.260 C 
ATOM      7  O   UNL     1      -0.122  -2.662  -0.011  0.00  0.00    -0.269 OA
ATOM      8  H   UNL     1      -2.048  -0.247   0.020  0.00  0.00    +0.173 HD
BRANCH   6   9
ATOM      9  C   UNL     1      -2.451  -2.824   0.010  0.00  0.00    +0.039 A 
ATOM     10  C   UNL     1      -3.672  -2.144   0.031  0.00  0.00    +0.017 A 
ATOM     11  C   UNL     1      -4.853  -2.852   0.033  0.00  0.00    +0.047 A 
ATOM     12  C   UNL     1      -4.832  -4.241   0.025  0.00  0.00    +0.133 A 
ATOM     13  C   UNL     1      -3.620  -4.922   0.010  0.00  0.00    +0.056 A 
ATOM     14  C   UNL     1      -2.434  -4.221   0.003  0.00  0.00    +0.031 A 
ATOM     15  I   UNL     1      -3.597  -7.017  -0.002  0.00  0.00    -0.040 I 
BRANCH  12  16
ATOM     16  O   UNL     1      -5.999  -4.936   0.032  0.00  0.00    -0.494 OA
ATOM     17  C   UNL     1      -7.207  -4.173   0.048  0.00  0.00    +0.277 C 
ENDBRANCH  12  16
ENDBRANCH   6   9
ENDBRANCH   3   5
BRANCH   1  18
ATOM     18  C   UNL     1       1.278   2.115   0.001  0.00  0.00    +0.326 C 
BRANCH  18  19
ATOM     19  O   UNL     1       0.998   3.516   0.011  0.00  0.00    -0.483 OA
BRANCH  19  23
ATOM     20  C   UNL     1       4.237   6.075  -0.005  0.00  0.00    +0.059 A 
ATOM     21  C   UNL     1       2.938   6.589   0.009  0.00  0.00    +0.018 A 
ATOM     22  C   UNL     1       1.860   5.732   0.015  0.00  0.00    +0.046 A 
ATOM     23  C   UNL     1       2.063   4.357   0.006  0.00  0.00    +0.121 A 
ATOM     24  C   UNL     1       3.354   3.841  -0.004  0.00  0.00    +0.046 A 
ATOM     25  C   UNL     1       4.437   4.691  -0.014  0.00  0.00    +0.018 A 
BRANCH  20  26
ATOM     26  C   UNL     1       5.394   6.989  -0.012  0.00  0.00    +0.339 C 
ATOM     27  O   UNL     1       5.219   8.191  -0.005  0.00  0.00    -0.245 OA
BRANCH  26  28
ATOM     28  O   UNL     1       6.646   6.491  -0.026  0.00  0.00    -0.461 OA
BRANCH  28  29
ATOM     29  C   UNL     1       7.737   7.449  -0.032  0.00  0.00    +0.232 C 
BRANCH  29  31
ATOM     30  C   UNL     1      10.222   7.712  -0.054  0.00  0.00    +0.007 C 
ATOM     31  C   UNL     1       9.072   6.702  -0.048  0.00  0.00    +0.038 C 
ENDBRANCH  29  31
ENDBRANCH  28  29
ENDBRANCH  26  28
ENDBRANCH  20  26
ENDBRANCH  19  23
ENDBRANCH  18  19
ENDBRANCH   1  18
TORSDOF 10
