REMARK  Name = ZINC54380078
REMARK  2 active torsions:
REMARK  status: ('A' for Active; 'I' for Inactive)
REMARK    1  A    between atoms: C_1  and  C_2
REMARK    2  A    between atoms: C_13  and  C_18
REMARK                            x       y       z     vdW  Elec       q    Type
REMARK                         _______ _______ _______ _____ _____    ______ ____
ROOT
ATOM      1  C   UNL     1       0.908   1.544   0.345  0.00  0.00    +0.033 C 
ATOM      2  C   UNL     1       0.731   0.027   0.243  0.00  0.00    +0.103 C 
ATOM      3  C   UNL     1       1.580  -0.517  -0.904  0.00  0.00    -0.017 A 
ATOM      4  C   UNL     1       1.257  -0.333  -2.247  0.00  0.00    +0.013 A 
ATOM      5  C   UNL     1       2.059  -0.840  -3.211  0.00  0.00    +0.046 A 
ATOM      6  S   UNL     1       3.343  -1.624  -2.248  0.00  0.00    -0.101 S 
ATOM      7  C   UNL     1       2.715  -1.220  -0.639  0.00  0.00    -0.004 A 
ATOM      8  C   UNL     1       3.288  -1.570   0.696  0.00  0.00    +0.061 C 
ATOM      9  C   UNL     1       2.632  -0.679   1.762  0.00  0.00    +0.112 C 
ATOM     10  N   UNL     1       1.188  -0.612   1.485  0.00  0.00    -0.306 N 
ATOM     11  C   UNL     1       0.275  -1.142   2.378  0.00  0.00    +0.151 A 
ATOM     12  C   UNL     1      -0.333  -0.318   3.339  0.00  0.00    +0.141 A 
ATOM     13  N   UNL     1      -1.209  -0.838   4.193  0.00  0.00    -0.247 NA
ATOM     14  C   UNL     1      -1.503  -2.121   4.136  0.00  0.00    +0.131 A 
ATOM     15  C   UNL     1      -0.903  -2.936   3.188  0.00  0.00    +0.132 A 
ATOM     16  N   UNL     1      -0.035  -2.432   2.329  0.00  0.00    -0.237 NA
ENDROOT
BRANCH  12  17
ATOM     17  C   UNL     1       0.001   1.122   3.401  0.00  0.00    +0.116 C 
ATOM     18  N   UNL     1      -0.962   2.020   3.599  0.00  0.00    -0.385 N 
ATOM     19  N   UNL     1       1.264   1.520   3.258  0.00  0.00    -0.343 N 
ATOM     20  H   UNL     1      -1.870   1.728   3.778  0.00  0.00    +0.157 HD
ATOM     21  H   UNL     1       1.965   0.865   3.113  0.00  0.00    +0.144 HD
ATOM     22  H   UNL     1       1.482   2.464   3.298  0.00  0.00    +0.144 HD
ATOM     23  H   UNL     1      -0.756   2.968   3.564  0.00  0.00    +0.157 HD
ENDBRANCH  12  17
TORSDOF 1
