REMARK  Name = ZINC39324822
REMARK  9 active torsions:
REMARK  status: ('A' for Active; 'I' for Inactive)
REMARK    1  A    between atoms: C_1  and  C_2
REMARK    2  A    between atoms: C_4  and  C_38
REMARK    3  A    between atoms: C_5  and  S_9
REMARK    4  A    between atoms: C_6  and  C_8
REMARK    5  A    between atoms: S_9  and  N_12
REMARK    6  A    between atoms: N_12  and  C_13
REMARK    7  A    between atoms: N_12  and  C_21
REMARK    8  A    between atoms: C_13  and  C_14
REMARK    9  A    between atoms: C_21  and  C_22
REMARK                            x       y       z     vdW  Elec       q    Type
REMARK                         _______ _______ _______ _____ _____    ______ ____
ROOT
ATOM      1  N   UNL     1       0.720  -5.341  -0.848  0.00  0.00    -0.171 NA
ENDROOT
BRANCH   1   2
ATOM      2  S   UNL     1      -0.548  -4.390  -0.369  0.00  0.00    +0.062 S 
ATOM      3  O   UNL     1      -0.933  -4.846   0.921  0.00  0.00    -0.153 OA
ATOM      4  O   UNL     1      -1.455  -4.341  -1.462  0.00  0.00    -0.153 OA
BRANCH   2   9
ATOM      5  C   UNL     1       1.593   1.206   0.348  0.00  0.00    +0.044 C 
ATOM      6  C   UNL     1       1.058  -0.192   0.169  0.00  0.00    -0.050 A 
ATOM      7  C   UNL     1       1.070  -1.078   1.230  0.00  0.00    +0.008 A 
ATOM      8  C   UNL     1       0.580  -2.360   1.066  0.00  0.00    -0.024 A 
ATOM      9  C   UNL     1       0.076  -2.755  -0.159  0.00  0.00    +0.111 A 
ATOM     10  C   UNL     1       0.063  -1.869  -1.220  0.00  0.00    -0.024 A 
ATOM     11  C   UNL     1       0.550  -0.586  -1.055  0.00  0.00    +0.008 A 
ATOM     12  C   UNL     1      -0.485  -2.301  -2.556  0.00  0.00    +0.046 C 
ATOM     13  C   UNL     1       0.594  -3.326   2.223  0.00  0.00    +0.046 C 
ENDBRANCH   2   9
ENDBRANCH   1   2
BRANCH   1  14
ATOM     14  C   UNL     1       1.407  -6.192   0.127  0.00  0.00    +0.144 C 
BRANCH  14  15
ATOM     15  C   UNL     1       0.755  -7.550   0.154  0.00  0.00    -0.031 A 
ATOM     16  C   UNL     1      -0.295  -7.795   1.019  0.00  0.00    +0.008 A 
ATOM     17  C   UNL     1      -0.894  -9.040   1.045  0.00  0.00    +0.038 A 
ATOM     18  C   UNL     1      -0.441 -10.043   0.205  0.00  0.00    +0.123 A 
ATOM     19  C   UNL     1       0.611  -9.797  -0.661  0.00  0.00    +0.038 A 
ATOM     20  C   UNL     1       1.205  -8.549  -0.689  0.00  0.00    +0.008 A 
ATOM     21  F   UNL     1      -1.025 -11.261   0.230  0.00  0.00    -0.205 F 
ENDBRANCH  14  15
ENDBRANCH   1  14
BRANCH   1  22
ATOM     22  C   UNL     1       1.155  -5.331  -2.247  0.00  0.00    +0.126 C 
BRANCH  22  23
ATOM     23  C   UNL     1       2.090  -4.142  -2.482  0.00  0.00    +0.114 C 
ATOM     24  C   UNL     1       2.254  -3.969  -3.979  0.00  0.00    -0.003 C 
ATOM     25  C   UNL     1       3.517  -4.029  -4.481  0.00  0.00    -0.003 A 
ATOM     26  C   UNL     1       3.761  -3.873  -5.915  0.00  0.00    +0.059 A 
ATOM     27  C   UNL     1       5.036  -3.938  -6.386  0.00  0.00    +0.163 A 
ATOM     28  C   UNL     1       6.124  -4.150  -5.516  0.00  0.00    +0.164 A 
ATOM     29  C   UNL     1       5.945  -4.306  -4.155  0.00  0.00    +0.073 A 
ATOM     30  C   UNL     1       4.667  -4.255  -3.586  0.00  0.00    +0.044 A 
ATOM     31  N   UNL     1       4.518  -4.408  -2.268  0.00  0.00    -0.284 N 
ATOM     32  C   UNL     1       3.343  -4.369  -1.667  0.00  0.00    +0.225 C 
ATOM     33  O   UNL     1       3.269  -4.516  -0.461  0.00  0.00    -0.275 OA
ATOM     34  O   UNL     1       7.392  -4.201  -6.005  0.00  0.00    -0.485 OA
ATOM     35  C   UNL     1       7.534  -4.425  -7.411  0.00  0.00    +0.270 C 
ATOM     36  C   UNL     1       6.570  -3.486  -8.148  0.00  0.00    +0.270 C 
ATOM     37  O   UNL     1       5.237  -3.794  -7.727  0.00  0.00    -0.485 OA
ATOM     38  H   UNL     1       5.310  -4.554  -1.727  0.00  0.00    +0.155 HD
ENDBRANCH  22  23
ENDBRANCH   1  22
TORSDOF 6
