REMARK  Name = ZINC09219709
REMARK  9 active torsions:
REMARK  status: ('A' for Active; 'I' for Inactive)
REMARK    1  A    between atoms: C_1  and  C_2
REMARK    2  A    between atoms: C_2  and  C_3
REMARK    3  A    between atoms: C_3  and  C_4
REMARK    4  A    between atoms: C_4  and  N_5
REMARK    5  A    between atoms: C_9  and  S_30
REMARK    6  A    between atoms: C_13  and  C_14
REMARK    7  A    between atoms: C_14  and  N_63
REMARK    8  A    between atoms: C_18  and  C_20
REMARK    9  A    between atoms: S_30  and  N_33
REMARK                            x       y       z     vdW  Elec       q    Type
REMARK                         _______ _______ _______ _____ _____    ______ ____
ROOT
ATOM      1  N   UNL     1      -3.776   0.426   3.780  0.00  0.00    -0.329 N 
ATOM      2  C   UNL     1      -2.804   0.878   2.910  0.00  0.00    +0.069 A 
ATOM      3  C   UNL     1      -2.217   0.361   1.763  0.00  0.00    +0.030 A 
ATOM      4  C   UNL     1      -1.249   1.089   1.104  0.00  0.00    +0.030 A 
ATOM      5  C   UNL     1      -0.850   2.327   1.587  0.00  0.00    +0.107 A 
ATOM      6  C   UNL     1      -1.415   2.851   2.714  0.00  0.00    +0.058 A 
ATOM      7  C   UNL     1      -2.403   2.134   3.395  0.00  0.00    +0.091 A 
ATOM      8  N   UNL     1      -3.135   2.379   4.512  0.00  0.00    -0.234 NA
ATOM      9  C   UNL     1      -3.938   1.380   4.737  0.00  0.00    +0.094 A 
ENDROOT
BRANCH   5  10
ATOM     10  S   UNL     1       0.395   3.236   0.733  0.00  0.00    +0.056 S 
ATOM     11  O   UNL     1       0.202   4.603   1.068  0.00  0.00    -0.153 OA
ATOM     12  O   UNL     1       0.387   2.772  -0.611  0.00  0.00    -0.153 OA
BRANCH  10  13
ATOM     13  N   UNL     1       1.855   2.792   1.377  0.00  0.00    -0.204 NA
ATOM     14  H   UNL     1       2.424   3.458   1.793  0.00  0.00    +0.144 HD
ATOM     15  H   UNL     1       2.140   1.866   1.340  0.00  0.00    +0.144 HD
ENDBRANCH  10  13
ENDBRANCH   5  10
BRANCH   1  16
ATOM     16  C   UNL     1      -4.499  -0.845   3.690  0.00  0.00    +0.123 C 
BRANCH  16  17
ATOM     17  C   UNL     1      -5.705  -0.681   2.762  0.00  0.00    +0.021 C 
BRANCH  17  19
ATOM     18  C   UNL     1      -7.732  -1.807   1.834  0.00  0.00    +0.004 C 
ATOM     19  C   UNL     1      -6.527  -1.971   2.761  0.00  0.00    -0.002 C 
ENDBRANCH  17  19
ENDBRANCH  16  17
ENDBRANCH   1  16
BRANCH   9  20
ATOM     20  C   UNL     1      -4.905   1.292   5.889  0.00  0.00    -0.002 C 
BRANCH  20  25
ATOM     21  C   UNL     1      -3.293   1.354   7.700  0.00  0.00    -0.077 C 
ATOM     22  C   UNL     1      -3.708   1.391   9.186  0.00  0.00    -0.020 C 
ATOM     23  C   UNL     1      -4.596   0.127   9.332  0.00  0.00    -0.013 C 
ATOM     24  C   UNL     1      -5.311   0.087   7.959  0.00  0.00    -0.037 C 
ATOM     25  N   UNL     1      -4.280   0.521   6.995  0.00  0.00    +0.389 N 
ATOM     26  H   UNL     1      -3.811  -0.305   6.605  0.00  0.00    -0.080 HD
BRANCH  24  27
ATOM     27  C   UNL     1      -5.757  -1.317   7.641  0.00  0.00    -0.057 A 
ATOM     28  C   UNL     1      -4.831  -2.260   7.235  0.00  0.00    +0.006 A 
ATOM     29  C   UNL     1      -5.236  -3.548   6.941  0.00  0.00    +0.049 A 
ATOM     30  C   UNL     1      -6.574  -3.899   7.054  0.00  0.00    +0.162 A 
ATOM     31  C   UNL     1      -7.504  -2.952   7.464  0.00  0.00    +0.162 A 
ATOM     32  C   UNL     1      -7.090  -1.661   7.760  0.00  0.00    +0.051 A 
ATOM     33  O   UNL     1      -8.820  -3.276   7.586  0.00  0.00    -0.485 OA
ATOM     34  C   UNL     1      -9.252  -4.471   6.927  0.00  0.00    +0.270 C 
ATOM     35  C   UNL     1      -8.242  -5.583   7.239  0.00  0.00    +0.270 C 
ATOM     36  O   UNL     1      -6.958  -5.170   6.758  0.00  0.00    -0.485 OA
ENDBRANCH  24  27
ENDBRANCH  20  25
ENDBRANCH   9  20
TORSDOF 8
