REMARK  Name = ZINC13403495
REMARK  6 active torsions:
REMARK  status: ('A' for Active; 'I' for Inactive)
REMARK    1  A    between atoms: C_1  and  C_2
REMARK    2  A    between atoms: C_2  and  C_32
REMARK    3  A    between atoms: C_3  and  N_29
REMARK    4  A    between atoms: C_5  and  C_22
REMARK    5  A    between atoms: C_8  and  C_15
REMARK    6  A    between atoms: C_10  and  N_12
REMARK                            x       y       z     vdW  Elec       q    Type
REMARK                         _______ _______ _______ _____ _____    ______ ____
ROOT
ATOM      1  C   UNL     1       1.870  -4.747   2.780  0.00  0.00    +0.015 C 
ATOM      2  C   UNL     1       1.540  -4.229   1.379  0.00  0.00    +0.023 C 
ATOM      3  C   UNL     1       2.617  -4.694   0.394  0.00  0.00    +0.199 C 
ATOM      4  C   UNL     1       2.313  -4.122  -0.993  0.00  0.00    +0.115 C 
ATOM      5  N   UNL     1       2.287  -2.655  -0.924  0.00  0.00    -0.299 NA
ATOM      6  C   UNL     1       1.229  -2.185  -0.021  0.00  0.00    +0.115 C 
ATOM      7  C   UNL     1       1.500  -2.699   1.395  0.00  0.00    +0.199 C 
ATOM      8  C   UNL     1       0.177  -4.772   0.941  0.00  0.00    +0.015 C 
ATOM      9  H   UNL     1       3.255  -2.288  -0.552  0.00  0.00    +0.123 HD
ENDROOT
BRANCH   6  10
ATOM     10  C   UNL     1       1.208  -0.678  -0.013  0.00  0.00    -0.027 A 
ATOM     11  C   UNL     1       2.396   0.029  -0.021  0.00  0.00    +0.005 A 
ATOM     12  C   UNL     1       2.378   1.411  -0.013  0.00  0.00    +0.001 A 
ATOM     13  C   UNL     1       1.172   2.087   0.002  0.00  0.00    +0.015 A 
ATOM     14  C   UNL     1      -0.017   1.379   0.010  0.00  0.00    +0.018 A 
ATOM     15  C   UNL     1       0.002  -0.004   0.002  0.00  0.00    +0.020 A 
ATOM     16 BR   UNL     1      -1.667   2.303   0.022  0.00  0.00    -0.050 Br
ENDBRANCH   6  10
BRANCH   4  17
ATOM     17  C   UNL     1       3.382  -4.560  -1.961  0.00  0.00    -0.027 A 
ATOM     18  C   UNL     1       3.147  -5.620  -2.817  0.00  0.00    +0.005 A 
ATOM     19  C   UNL     1       4.127  -6.022  -3.705  0.00  0.00    +0.001 A 
ATOM     20  C   UNL     1       5.342  -5.364  -3.738  0.00  0.00    +0.015 A 
ATOM     21  C   UNL     1       5.578  -4.303  -2.882  0.00  0.00    +0.018 A 
ATOM     22  C   UNL     1       4.595  -3.898  -1.997  0.00  0.00    +0.020 A 
ATOM     23 BR   UNL     1       7.240  -3.403  -2.927  0.00  0.00    -0.050 Br
ENDBRANCH   4  17
BRANCH   7  24
ATOM     24  N   UNL     1       2.787  -2.181   1.865  0.00  0.00    +0.028 N 
ATOM     25  O   UNL     1       2.835  -1.487   2.865  0.00  0.00    -0.131 OA
ATOM     26  O   UNL     1       3.808  -2.445   1.257  0.00  0.00    -0.131 OA
ENDBRANCH   7  24
BRANCH   3  27
ATOM     27  N   UNL     1       2.623  -6.157   0.330  0.00  0.00    +0.028 N 
ATOM     28  O   UNL     1       1.623  -6.756  -0.024  0.00  0.00    -0.131 OA
ATOM     29  O   UNL     1       3.628  -6.776   0.632  0.00  0.00    -0.131 OA
ENDBRANCH   3  27
TORSDOF 4
