REMARK  Name = ZINC05883979
REMARK  10 active torsions:
REMARK  status: ('A' for Active; 'I' for Inactive)
REMARK    1  A    between atoms: C_1  and  C_2
REMARK    2  A    between atoms: C_2  and  O_3
REMARK    3  A    between atoms: O_3  and  C_4
REMARK    4  A    between atoms: C_4  and  C_6
REMARK    5  A    between atoms: N_11  and  S_12
REMARK    6  A    between atoms: S_12  and  C_15
REMARK    7  A    between atoms: C_18  and  C_21
REMARK    8  A    between atoms: C_30  and  C_32
REMARK    9  A    between atoms: C_35  and  O_38
REMARK   10  A    between atoms: O_38  and  C_39
REMARK                            x       y       z     vdW  Elec       q    Type
REMARK                         _______ _______ _______ _____ _____    ______ ____
ROOT
ATOM      1  C   UNL     1      -1.608   3.633   2.433  0.00  0.00    +0.193 C 
ATOM      2  C   UNL     1      -2.172   3.382   3.831  0.00  0.00    -0.008 C 
ATOM      3  C   UNL     1      -2.382   1.859   3.894  0.00  0.00    +0.025 C 
ATOM      4  C   UNL     1      -2.783   1.545   2.426  0.00  0.00    +0.111 C 
ATOM      5  N   UNL     1      -1.974   2.469   1.607  0.00  0.00    -0.162 NA
ATOM      6  C   UNL     1      -1.190   3.845   4.926  0.00  0.00    -0.018 C 
ATOM      7  C   UNL     1      -1.310   2.855   6.087  0.00  0.00    +0.002 C 
ATOM      8  C   UNL     1      -0.724   3.422   7.364  0.00  0.00    +0.000 C 
ATOM      9  C   UNL     1      -1.511   4.680   7.750  0.00  0.00    -0.002 C 
ATOM     10  C   UNL     1      -1.314   5.723   6.650  0.00  0.00    -0.015 C 
ATOM     11  C   UNL     1      -1.786   5.213   5.311  0.00  0.00    -0.067 C 
ATOM     12  C   UNL     1      -3.475   4.142   4.074  0.00  0.00    -0.032 C 
ATOM     13  N   UNL     1      -3.225   4.992   5.245  0.00  0.00    +0.386 N 
ATOM     14  H   UNL     1      -3.716   5.888   5.141  0.00  0.00    -0.085 HD
ATOM     15  H   UNL     1      -3.550   4.522   6.098  0.00  0.00    -0.085 HD
ENDROOT
BRANCH  12  16
ATOM     16  C   UNL     1      -4.596   3.172   4.347  0.00  0.00    -0.061 A 
ATOM     17  C   UNL     1      -4.732   2.609   5.602  0.00  0.00    +0.005 A 
ATOM     18  C   UNL     1      -5.762   1.724   5.856  0.00  0.00    +0.046 A 
ATOM     19  C   UNL     1      -6.654   1.391   4.846  0.00  0.00    +0.120 A 
ATOM     20  C   UNL     1      -6.512   1.953   3.586  0.00  0.00    +0.046 A 
ATOM     21  C   UNL     1      -5.483   2.842   3.339  0.00  0.00    +0.005 A 
BRANCH  19  22
ATOM     22  O   UNL     1      -7.664   0.517   5.092  0.00  0.00    -0.495 OA
ATOM     23  C   UNL     1      -7.749  -0.022   6.413  0.00  0.00    +0.277 C 
ENDBRANCH  19  22
ENDBRANCH  12  16
BRANCH   5  24
ATOM     24  S   UNL     1      -1.554   2.238   0.022  0.00  0.00    +0.062 S 
ATOM     25  O   UNL     1      -1.304   3.526  -0.523  0.00  0.00    -0.153 OA
ATOM     26  O   UNL     1      -2.519   1.353  -0.529  0.00  0.00    -0.153 OA
BRANCH  24  27
ATOM     27  C   UNL     1      -0.017   1.378   0.010  0.00  0.00    +0.106 A 
ATOM     28  C   UNL     1       1.171   2.086   0.002  0.00  0.00    +0.029 A 
ATOM     29  C   UNL     1       2.377   1.411  -0.014  0.00  0.00    +0.005 A 
ATOM     30  C   UNL     1       2.396   0.029  -0.021  0.00  0.00    -0.050 A 
ATOM     31  C   UNL     1       1.208  -0.679  -0.014  0.00  0.00    +0.005 A 
ATOM     32  C   UNL     1       0.002  -0.004   0.002  0.00  0.00    +0.029 A 
ATOM     33  C   UNL     1       3.711  -0.707  -0.038  0.00  0.00    +0.044 C 
ENDBRANCH  24  27
ENDBRANCH   5  24
BRANCH   1  34
ATOM     34  C   UNL     1      -2.210   4.886   1.852  0.00  0.00    +0.327 C 
ATOM     35  O   UNL     1      -3.131   4.809   1.073  0.00  0.00    -0.249 OA
BRANCH  34  36
ATOM     36  O   UNL     1      -1.724   6.088   2.199  0.00  0.00    -0.464 OA
BRANCH  36  38
ATOM     37  C   UNL     1      -1.668   8.521   2.111  0.00  0.00    +0.048 C 
ATOM     38  C   UNL     1      -2.353   7.252   1.600  0.00  0.00    +0.229 C 
ENDBRANCH  36  38
ENDBRANCH  34  36
ENDBRANCH   1  34
TORSDOF 7
