REMARK  Name = ZINC00446183
REMARK  4 active torsions:
REMARK  status: ('A' for Active; 'I' for Inactive)
REMARK    1  A    between atoms: C_1  and  C_2
REMARK    2  A    between atoms: C_3  and  C_12
REMARK    3  A    between atoms: C_6  and  O_11
REMARK    4  A    between atoms: C_12  and  C_14
REMARK                            x       y       z     vdW  Elec       q    Type
REMARK                         _______ _______ _______ _____ _____    ______ ____
ROOT
ATOM      1  C   UNL     1       6.006   0.972  -0.051  0.00  0.00    +0.087 C 
ATOM      2  C   UNL     1       4.505   0.840  -0.038  0.00  0.00    +0.114 A 
ATOM      3  C   UNL     1       3.822  -0.340  -0.039  0.00  0.00    +0.071 A 
ATOM      4  C   UNL     1       2.391   0.026  -0.024  0.00  0.00    +0.035 A 
ATOM      5  C   UNL     1       1.205  -0.700  -0.018  0.00  0.00    +0.057 A 
ATOM      6  C   UNL     1      -0.005  -0.030  -0.003  0.00  0.00    +0.118 A 
ATOM      7  C   UNL     1      -0.032   1.361   0.006  0.00  0.00    +0.049 A 
ATOM      8  C   UNL     1       1.140   2.085   0.000  0.00  0.00    +0.050 A 
ATOM      9  C   UNL     1       2.365   1.428  -0.016  0.00  0.00    +0.136 A 
ATOM     10  O   UNL     1       3.643   1.862  -0.024  0.00  0.00    -0.459 OA
ENDROOT
BRANCH   6  11
ATOM     11  O   UNL     1      -1.170  -0.732   0.004  0.00  0.00    -0.507 OA
ATOM     12  H   UNL     1      -1.515  -0.929  -0.878  0.00  0.00    +0.292 HD
ENDBRANCH   6  11
BRANCH   3  13
ATOM     13  C   UNL     1       4.391  -1.695  -0.052  0.00  0.00    +0.197 C 
ATOM     14  O   UNL     1       4.719  -2.227   0.992  0.00  0.00    -0.287 OA
BRANCH  13  15
ATOM     15  C   UNL     1       4.566  -2.412  -1.333  0.00  0.00    +0.022 A 
ATOM     16  C   UNL     1       4.290  -1.766  -2.540  0.00  0.00    +0.013 A 
ATOM     17  C   UNL     1       4.459  -2.439  -3.732  0.00  0.00    +0.016 A 
ATOM     18  C   UNL     1       4.891  -3.755  -3.733  0.00  0.00    +0.018 A 
ATOM     19  C   UNL     1       5.162  -4.401  -2.538  0.00  0.00    +0.016 A 
ATOM     20  C   UNL     1       5.001  -3.738  -1.340  0.00  0.00    +0.013 A 
ATOM     21 BR   UNL     1       5.114  -4.671  -5.372  0.00  0.00    -0.050 Br
ENDBRANCH  13  15
ENDBRANCH   3  13
TORSDOF 3
