REMARK  Name = ZINC15314333
REMARK  6 active torsions:
REMARK  status: ('A' for Active; 'I' for Inactive)
REMARK    1  A    between atoms: C_1  and  C_2
REMARK    2  A    between atoms: C_2  and  C_4
REMARK    3  A    between atoms: C_2  and  N_14
REMARK    4  A    between atoms: C_15  and  C_17
REMARK    5  A    between atoms: C_19  and  S_24
REMARK    6  A    between atoms: S_24  and  N_27
REMARK                            x       y       z     vdW  Elec       q    Type
REMARK                         _______ _______ _______ _____ _____    ______ ____
ROOT
ATOM      1  N   UNL     1      -3.751  -0.722   3.188  0.00  0.00    -0.308 N 
ATOM      2  C   UNL     1      -3.547   0.494   3.732  0.00  0.00    +0.245 C 
ATOM      3  O   UNL     1      -4.173   0.832   4.719  0.00  0.00    -0.270 OA
ATOM      4  H   UNL     1      -3.252  -0.991   2.401  0.00  0.00    +0.149 HD
ENDROOT
BRANCH   2   5
ATOM      5  C   UNL     1      -2.563   1.418   3.130  0.00  0.00    +0.052 A 
ATOM      6  C   UNL     1      -1.843   1.034   1.997  0.00  0.00    +0.042 A 
ATOM      7  C   UNL     1      -0.927   1.900   1.439  0.00  0.00    +0.106 A 
ATOM      8  C   UNL     1      -0.716   3.147   2.003  0.00  0.00    +0.029 A 
ATOM      9  C   UNL     1      -1.429   3.537   3.122  0.00  0.00    +0.018 A 
ATOM     10  C   UNL     1      -2.350   2.679   3.691  0.00  0.00    +0.030 A 
ATOM     11 BR   UNL     1      -3.320   3.211   5.224  0.00  0.00    -0.050 Br
BRANCH   7  12
ATOM     12  S   UNL     1      -0.017   1.417   0.010  0.00  0.00    +0.061 S 
ATOM     13  O   UNL     1       0.002  -0.004   0.002  0.00  0.00    -0.153 OA
ATOM     14  O   UNL     1       1.172   2.195   0.003  0.00  0.00    -0.153 OA
BRANCH  12  15
ATOM     15  N   UNL     1      -0.897   1.885  -1.312  0.00  0.00    -0.177 NA
ATOM     16  C   UNL     1      -1.909   1.071  -2.000  0.00  0.00    +0.109 C 
ATOM     17  C   UNL     1      -2.444   1.906  -3.183  0.00  0.00    +0.018 C 
ATOM     18  C   UNL     1      -1.295   2.918  -3.438  0.00  0.00    +0.018 C 
ATOM     19  C   UNL     1      -0.792   3.186  -1.998  0.00  0.00    +0.109 C 
ENDBRANCH  12  15
ENDBRANCH   7  12
ENDBRANCH   2   5
BRANCH   1  21
ATOM     20  C   UNL     1      -4.064  -2.418   4.922  0.00  0.00    +0.028 C 
ATOM     21  C   UNL     1      -4.727  -1.637   3.786  0.00  0.00    +0.076 C 
BRANCH  21  22
ATOM     22  C   UNL     1      -5.229  -2.614   2.720  0.00  0.00    -0.010 C 
ATOM     23  C   UNL     1      -4.049  -3.416   2.167  0.00  0.00    +0.012 C 
ATOM     24  C   UNL     1      -4.551  -4.392   1.102  0.00  0.00    -0.010 C 
ATOM     25  C   UNL     1      -5.569  -5.348   1.726  0.00  0.00    +0.007 C 
ATOM     26  C   UNL     1      -6.749  -4.546   2.279  0.00  0.00    -0.010 C 
ATOM     27  C   UNL     1      -6.247  -3.570   3.344  0.00  0.00    +0.012 C 
ATOM     28  C   UNL     1      -7.412  -3.765   1.143  0.00  0.00    +0.007 C 
ATOM     29  C   UNL     1      -6.393  -2.809   0.519  0.00  0.00    -0.010 C 
ATOM     30  C   UNL     1      -5.214  -3.611  -0.034  0.00  0.00    +0.007 C 
ATOM     31  C   UNL     1      -5.891  -1.833   1.584  0.00  0.00    +0.012 C 
ENDBRANCH  21  22
ENDBRANCH   1  21
TORSDOF 5
