REMARK  Name = ZINC48260491
REMARK  13 active torsions:
REMARK  status: ('A' for Active; 'I' for Inactive)
REMARK    1  A    between atoms: C_1  and  C_2
REMARK    2  A    between atoms: C_7  and  C_8
REMARK    3  A    between atoms: C_7  and  C_9
REMARK    4  A    between atoms: C_11  and  N_13
REMARK    5  A    between atoms: N_13  and  C_14
REMARK    6  A    between atoms: C_14  and  C_15
REMARK    7  A    between atoms: C_17  and  O_28
REMARK    8  A    between atoms: C_18  and  O_23
REMARK    9  A    between atoms: C_19  and  O_21
REMARK   10  A    between atoms: O_21  and  C_22
REMARK   11  A    between atoms: O_23  and  C_24
REMARK   12  A    between atoms: C_24  and  C_25
REMARK   13  A    between atoms: O_28  and  C_29
REMARK                            x       y       z     vdW  Elec       q    Type
REMARK                         _______ _______ _______ _____ _____    ______ ____
ROOT
ATOM      1  C   UNL     1      -0.233  -1.153  -4.766  0.00  0.00    -0.057 A 
ATOM      2  C   UNL     1      -0.900  -2.319  -5.093  0.00  0.00    +0.051 A 
ATOM      3  C   UNL     1      -1.723  -2.360  -6.208  0.00  0.00    +0.165 A 
ATOM      4  C   UNL     1      -1.875  -1.228  -6.999  0.00  0.00    +0.204 A 
ATOM      5  C   UNL     1      -1.202  -0.058  -6.668  0.00  0.00    +0.165 A 
ATOM      6  C   UNL     1      -0.386  -0.023  -5.547  0.00  0.00    +0.051 A 
ENDROOT
BRANCH   5   7
ATOM      7  O   UNL     1      -1.348   1.053  -7.438  0.00  0.00    -0.491 OA
ATOM      8  C   UNL     1      -0.627   2.220  -7.038  0.00  0.00    +0.277 C 
ENDBRANCH   5   7
BRANCH   3   9
ATOM      9  O   UNL     1      -2.378  -3.508  -6.529  0.00  0.00    -0.491 OA
ATOM     10  C   UNL     1      -2.174  -4.633  -5.672  0.00  0.00    +0.277 C 
ENDBRANCH   3   9
BRANCH   1  11
ATOM     11  C   UNL     1       0.660  -1.113  -3.553  0.00  0.00    -0.046 C 
BRANCH  11  12
ATOM     12  N   UNL     1      -0.126  -0.708  -2.380  0.00  0.00    +0.384 N 
ATOM     13  H   UNL     1      -0.870  -1.373  -2.228  0.00  0.00    -0.085 HD
ATOM     14  H   UNL     1      -0.519   0.207  -2.538  0.00  0.00    -0.085 HD
BRANCH  12  24
ATOM     15  C   UNL     1      -0.127   1.436   0.093  0.00  0.00    +0.010 C 
ATOM     16  C   UNL     1      -0.028  -0.089   0.027  0.00  0.00    -0.039 C 
ATOM     17  C   UNL     1      -1.381  -0.862   0.061  0.00  0.00    +0.006 C 
ATOM     18  C   UNL     1      -1.001  -2.296   0.497  0.00  0.00    +0.004 C 
ATOM     19  C   UNL     1       0.546  -2.254   0.684  0.00  0.00    -0.006 C 
ATOM     20  C   UNL     1       0.735  -0.786   1.208  0.00  0.00    -0.028 C 
ATOM     21  C   UNL     1       2.209  -0.380   1.258  0.00  0.00    +0.011 C 
ATOM     22  C   UNL     1       0.039  -0.563   2.552  0.00  0.00    +0.011 C 
ATOM     23  C   UNL     1       1.112  -2.140  -0.764  0.00  0.00    -0.011 C 
ATOM     24  C   UNL     1       0.744  -0.669  -1.197  0.00  0.00    -0.065 C 
ENDBRANCH  12  24
ENDBRANCH  11  12
ENDBRANCH   1  11
BRANCH   4  25
ATOM     25  O   UNL     1      -2.681  -1.264  -8.095  0.00  0.00    -0.476 OA
BRANCH  25  26
ATOM     26  C   UNL     1      -4.053  -0.916  -7.904  0.00  0.00    +0.324 C 
BRANCH  26  27
ATOM     27  C   UNL     1      -4.784  -1.013  -9.218  0.00  0.00    +0.248 C 
ATOM     28  O   UNL     1      -4.189  -1.347 -10.220  0.00  0.00    -0.272 OA
ATOM     29  N   UNL     1      -6.100  -0.728  -9.280  0.00  0.00    -0.327 N 
ATOM     30  H   UNL     1      -6.577  -0.461  -8.478  0.00  0.00    +0.145 HD
ATOM     31  H   UNL     1      -6.571  -0.791 -10.126  0.00  0.00    +0.145 HD
ENDBRANCH  26  27
ENDBRANCH  25  26
ENDBRANCH   4  25
TORSDOF 8
