REMARK  Name = ZINC39578224
REMARK  3 active torsions:
REMARK  status: ('A' for Active; 'I' for Inactive)
REMARK    1  A    between atoms: C_1  and  C_2
REMARK    2  A    between atoms: N_11  and  C_15
REMARK    3  A    between atoms: C_15  and  C_16
REMARK                            x       y       z     vdW  Elec       q    Type
REMARK                         _______ _______ _______ _____ _____    ______ ____
ROOT
ATOM      1  C   UNL     1      -0.019   1.526   0.010  0.00  0.00    +0.010 C 
ATOM      2  C   UNL     1       0.002  -0.004   0.002  0.00  0.00    +0.018 C 
ATOM      3  C   UNL     1      -1.434  -0.533   0.012  0.00  0.00    +0.006 C 
ATOM      4  C   UNL     1      -1.413  -2.063   0.024  0.00  0.00    +0.000 C 
ATOM      5  C   UNL     1      -0.690  -2.554   1.280  0.00  0.00    +0.003 C 
ATOM      6  C   UNL     1       0.749  -2.033   1.276  0.00  0.00    +0.035 C 
ATOM      7  C   UNL     1       0.741  -0.509   1.237  0.00  0.00    +0.115 C 
ATOM      8  C   UNL     1       0.111   0.049   2.493  0.00  0.00    +0.247 C 
ATOM      9  O   UNL     1      -1.023  -0.123   2.884  0.00  0.00    -0.273 OA
ATOM     10  N   UNL     1       1.078   0.778   3.087  0.00  0.00    -0.219 N 
ATOM     11  C   UNL     1       2.217   0.755   2.383  0.00  0.00    +0.310 C 
ATOM     12  O   UNL     1       3.230   1.337   2.717  0.00  0.00    -0.252 OA
ATOM     13  N   UNL     1       2.113   0.013   1.264  0.00  0.00    -0.285 N 
ATOM     14  H   UNL     1       2.808  -0.145   0.606  0.00  0.00    +0.151 HD
ENDROOT
BRANCH  10  15
ATOM     15  C   UNL     1       0.904   1.505   4.347  0.00  0.00    +0.160 C 
BRANCH  15  16
ATOM     16  C   UNL     1       1.267   0.606   5.501  0.00  0.00    +0.009 A 
ATOM     17  C   UNL     1       2.468   0.434   6.103  0.00  0.00    +0.014 A 
ATOM     18  C   UNL     1       2.569  -0.455   7.157  0.00  0.00    +0.028 A 
ATOM     19  C   UNL     1       1.461  -1.129   7.556  0.00  0.00    +0.078 A 
ATOM     20  S   UNL     1       0.223  -0.502   6.433  0.00  0.00    -0.080 S 
ATOM     21 CL   UNL     1       1.290  -2.293   8.833  0.00  0.00    -0.076 Cl
ENDBRANCH  15  16
ENDBRANCH  10  15
TORSDOF 2
