REMARK  Name = ZINC39675410
REMARK  14 active torsions:
REMARK  status: ('A' for Active; 'I' for Inactive)
REMARK    1  A    between atoms: C_1  and  C_2
REMARK    2  A    between atoms: C_4  and  C_11
REMARK    3  A    between atoms: N_5  and  C_7
REMARK    4  A    between atoms: C_7  and  C_8
REMARK    5  A    between atoms: C_7  and  C_9
REMARK    6  A    between atoms: C_7  and  C_10
REMARK    7  A    between atoms: C_15  and  C_24
REMARK    8  A    between atoms: N_26  and  C_27
REMARK    9  A    between atoms: C_27  and  C_29
REMARK   10  A    between atoms: C_27  and  C_30
REMARK   11  A    between atoms: C_30  and  C_31
REMARK   12  A    between atoms: C_31  and  C_32
REMARK   13  A    between atoms: C_35  and  O_38
REMARK   14  A    between atoms: O_38  and  C_39
REMARK                            x       y       z     vdW  Elec       q    Type
REMARK                         _______ _______ _______ _____ _____    ______ ____
ROOT
ATOM      1  C   UNL     1      -0.642  -4.155  -1.182  0.00  0.00    +0.265 C 
ATOM      2  O   UNL     1      -0.913  -4.022  -2.361  0.00  0.00    -0.268 OA
ATOM      3  N   UNL     1      -0.789  -5.356  -0.588  0.00  0.00    -0.295 N 
ATOM      4  C   UNL     1      -0.640  -5.682   0.850  0.00  0.00    +0.121 C 
ATOM      5  C   UNL     1      -1.771  -6.694   1.139  0.00  0.00    +0.100 C 
ATOM      6  C   UNL     1      -2.091  -7.326  -0.226  0.00  0.00    -0.004 C 
ATOM      7  C   UNL     1      -1.143  -6.647  -1.225  0.00  0.00    +0.115 C 
ATOM      8  C   UNL     1      -1.831  -8.829  -0.186  0.00  0.00    -0.010 C 
ATOM      9  C   UNL     1      -2.212  -9.444  -1.536  0.00  0.00    -0.082 C 
ATOM     10  N   UNL     1      -3.628  -9.180  -1.814  0.00  0.00    +0.379 N 
ATOM     11  C   UNL     1      -3.852  -7.735  -1.943  0.00  0.00    -0.082 C 
ATOM     12  C   UNL     1      -3.541  -7.048  -0.610  0.00  0.00    -0.010 C 
ATOM     13  H   UNL     1      -3.892  -9.637  -2.674  0.00  0.00    -0.086 HD
ATOM     14  H   UNL     1      -4.191  -9.540  -1.058  0.00  0.00    -0.086 HD
ENDROOT
BRANCH   1  18
ATOM     15  C   UNL     1       1.254  -1.194   2.472  0.00  0.00    +0.067 C 
ATOM     16  C   UNL     1       0.673  -1.700   1.177  0.00  0.00    +0.061 A 
ATOM     17  C   UNL     1       0.341  -3.025   0.887  0.00  0.00    +0.057 A 
ATOM     18  C   UNL     1      -0.152  -3.005  -0.406  0.00  0.00    +0.124 A 
ATOM     19  N   UNL     1      -0.093  -1.704  -0.817  0.00  0.00    -0.254 N 
ATOM     20  N   UNL     1       0.385  -0.975   0.127  0.00  0.00    -0.175 NA
BRANCH  19  21
ATOM     21  C   UNL     1      -0.516  -1.213  -2.131  0.00  0.00    +0.056 C 
ATOM     22  C   UNL     1      -1.967  -1.627  -2.387  0.00  0.00    +0.036 C 
ATOM     23  C   UNL     1      -0.407   0.312  -2.165  0.00  0.00    +0.036 C 
ATOM     24  C   UNL     1       0.384  -1.813  -3.213  0.00  0.00    +0.036 C 
ENDBRANCH  19  21
ENDBRANCH   1  18
BRANCH   5  25
ATOM     25  C   UNL     1      -1.298  -7.746   2.110  0.00  0.00    +0.218 C 
ATOM     26  O   UNL     1      -0.119  -8.024   2.176  0.00  0.00    -0.275 OA
ATOM     27  N   UNL     1      -2.185  -8.378   2.903  0.00  0.00    -0.312 N 
ATOM     28  H   UNL     1      -3.135  -8.212   2.798  0.00  0.00    +0.149 HD
BRANCH  27  29
ATOM     29  C   UNL     1      -1.715  -9.317   3.925  0.00  0.00    +0.070 C 
ATOM     30  C   UNL     1      -1.349  -8.547   5.195  0.00  0.00    +0.028 C 
BRANCH  29  31
ATOM     31  C   UNL     1      -2.822 -10.325   4.240  0.00  0.00    +0.026 C 
BRANCH  31  32
ATOM     32  C   UNL     1      -3.101 -11.180   3.003  0.00  0.00    +0.037 C 
BRANCH  32  33
ATOM     33  C   UNL     1      -4.192 -12.172   3.313  0.00  0.00    -0.047 A 
ATOM     34  C   UNL     1      -3.868 -13.416   3.823  0.00  0.00    +0.007 A 
ATOM     35  C   UNL     1      -4.866 -14.328   4.108  0.00  0.00    +0.046 A 
ATOM     36  C   UNL     1      -6.194 -13.995   3.883  0.00  0.00    +0.120 A 
ATOM     37  C   UNL     1      -6.516 -12.745   3.373  0.00  0.00    +0.046 A 
ATOM     38  C   UNL     1      -5.514 -11.835   3.094  0.00  0.00    +0.007 A 
BRANCH  36  39
ATOM     39  O   UNL     1      -7.177 -14.890   4.163  0.00  0.00    -0.495 OA
ATOM     40  C   UNL     1      -8.521 -14.478   3.906  0.00  0.00    +0.277 C 
ENDBRANCH  36  39
ENDBRANCH  32  33
ENDBRANCH  31  32
ENDBRANCH  29  31
ENDBRANCH  27  29
ENDBRANCH   5  25
TORSDOF 8
