REMARK  Name = ZINC13064581
REMARK  17 active torsions:
REMARK  status: ('A' for Active; 'I' for Inactive)
REMARK    1  A    between atoms: C_1  and  C_2
REMARK    2  A    between atoms: C_2  and  C_3
REMARK    3  A    between atoms: C_3  and  C_5
REMARK    4  A    between atoms: C_3  and  N_75
REMARK    5  A    between atoms: N_9  and  C_10
REMARK    6  A    between atoms: C_10  and  C_11
REMARK    7  A    between atoms: C_10  and  C_12
REMARK    8  A    between atoms: C_10  and  C_13
REMARK    9  A    between atoms: C_13  and  C_14
REMARK   10  A    between atoms: C_15  and  C_16
REMARK   11  A    between atoms: C_15  and  N_75
REMARK   12  A    between atoms: C_21  and  O_22
REMARK   13  A    between atoms: O_22  and  C_23
REMARK   14  A    between atoms: C_24  and  C_25
REMARK   15  A    between atoms: C_24  and  N_75
REMARK   16  A    between atoms: C_29  and  C_38
REMARK   17  A    between atoms: C_30  and  C_37
REMARK                            x       y       z     vdW  Elec       q    Type
REMARK                         _______ _______ _______ _____ _____    ______ ____
ROOT
ATOM      1  N   UNL     1       3.848   1.420  -2.579  0.00  0.00    +0.392 N 
ATOM      2  H   UNL     1       4.336   0.863  -3.289  0.00  0.00    -0.080 HD
ENDROOT
BRANCH   1   3
ATOM      3  C   UNL     1       3.129   0.508  -1.664  0.00  0.00    +0.003 C 
BRANCH   3   4
ATOM      4  C   UNL     1       3.916  -0.772  -1.545  0.00  0.00    +0.139 A 
ATOM      5  N   UNL     1       5.218  -0.900  -1.630  0.00  0.00    -0.115 NA
ATOM      6  N   UNL     1       5.505  -2.147  -1.481  0.00  0.00    -0.023 NA
ATOM      7  N   UNL     1       4.421  -2.817  -1.298  0.00  0.00    -0.043 NA
ATOM      8  N   UNL     1       3.420  -2.004  -1.327  0.00  0.00    -0.225 N 
BRANCH   8   9
ATOM      9  C   UNL     1       2.007  -2.356  -1.161  0.00  0.00    +0.061 C 
ATOM     10  C   UNL     1       1.271  -2.152  -2.487  0.00  0.00    +0.036 C 
ATOM     11  C   UNL     1       1.382  -1.462  -0.088  0.00  0.00    +0.036 C 
BRANCH   9  12
ATOM     12  C   UNL     1       1.894  -3.821  -0.735  0.00  0.00    +0.026 C 
ATOM     13  C   UNL     1       0.419  -4.188  -0.561  0.00  0.00    +0.006 C 
ENDBRANCH   9  12
ENDBRANCH   8   9
ENDBRANCH   3   4
BRANCH   3  15
ATOM     14  C   UNL     1       2.161   2.433  -0.399  0.00  0.00    +0.002 C 
ATOM     15  C   UNL     1       2.981   1.146  -0.282  0.00  0.00    -0.011 C 
ENDBRANCH   3  15
ENDBRANCH   1   3
BRANCH   1  16
ATOM     16  C   UNL     1       2.888   2.320  -3.251  0.00  0.00    -0.038 C 
BRANCH  16  17
ATOM     17  C   UNL     1       3.574   2.966  -4.428  0.00  0.00    -0.022 A 
ATOM     18  C   UNL     1       3.913   4.305  -4.381  0.00  0.00    +0.005 A 
ATOM     19  C   UNL     1       4.546   4.897  -5.458  0.00  0.00    +0.000 A 
ATOM     20  C   UNL     1       4.832   4.154  -6.588  0.00  0.00    +0.004 A 
ATOM     21  C   UNL     1       4.490   2.817  -6.643  0.00  0.00    +0.046 A 
ATOM     22  C   UNL     1       3.859   2.219  -5.561  0.00  0.00    +0.121 A 
BRANCH  22  23
ATOM     23  O   UNL     1       3.521   0.904  -5.612  0.00  0.00    -0.495 OA
ATOM     24  C   UNL     1       3.846   0.196  -6.810  0.00  0.00    +0.277 C 
ENDBRANCH  22  23
ENDBRANCH  16  17
ENDBRANCH   1  16
BRANCH   1  25
ATOM     25  C   UNL     1       4.840   2.213  -1.823  0.00  0.00    -0.036 C 
BRANCH  25  26
ATOM     26  C   UNL     1       6.112   1.411  -1.712  0.00  0.00    +0.001 A 
ATOM     27  C   UNL     1       6.974   1.364  -2.758  0.00  0.00    +0.017 A 
ATOM     28  C   UNL     1       8.202   0.580  -2.616  0.00  0.00    -0.001 A 
ATOM     29  C   UNL     1       9.132   0.498  -3.658  0.00  0.00    +0.013 A 
ATOM     30  C   UNL     1      10.266  -0.247  -3.496  0.00  0.00    -0.047 A 
ATOM     31  C   UNL     1      10.504  -0.922  -2.307  0.00  0.00    -0.046 A 
ATOM     32  C   UNL     1       9.602  -0.855  -1.267  0.00  0.00    +0.030 A 
ATOM     33  C   UNL     1       8.440  -0.104  -1.409  0.00  0.00    +0.049 A 
ATOM     34  N   UNL     1       7.521  -0.019  -0.385  0.00  0.00    -0.322 N 
ATOM     35  H   UNL     1       7.686  -0.490   0.446  0.00  0.00    +0.169 HD
ATOM     36  C   UNL     1       6.398   0.708  -0.523  0.00  0.00    +0.251 A 
ATOM     37  O   UNL     1       5.607   0.760   0.403  0.00  0.00    -0.268 OA
ATOM     38  C   UNL     1      11.762  -1.737  -2.151  0.00  0.00    +0.044 C 
ATOM     39  C   UNL     1      11.268  -0.335  -4.619  0.00  0.00    +0.044 C 
ENDBRANCH  25  26
ENDBRANCH   1  25
TORSDOF 10
