REMARK  Name = ZINC39449059
REMARK  6 active torsions:
REMARK  status: ('A' for Active; 'I' for Inactive)
REMARK    1  A    between atoms: C_1  and  S_2
REMARK    2  A    between atoms: S_2  and  N_3
REMARK    3  A    between atoms: C_11  and  C_14
REMARK    4  A    between atoms: C_19  and  O_20
REMARK    5  A    between atoms: C_22  and  C_27
REMARK    6  A    between atoms: C_27  and  C_28
REMARK                            x       y       z     vdW  Elec       q    Type
REMARK                         _______ _______ _______ _____ _____    ______ ____
ROOT
ATOM      1  N   UNL     1       0.797  -0.386  -1.399  0.00  0.00    -0.245 N 
ATOM      2  C   UNL     1       0.062  -0.547  -2.567  0.00  0.00    +0.122 A 
ATOM      3  C   UNL     1       0.684  -0.860  -3.761  0.00  0.00    +0.082 A 
ATOM      4  C   UNL     1       2.142  -1.036  -3.801  0.00  0.00    +0.099 A 
ATOM      5  C   UNL     1       2.866  -0.869  -2.599  0.00  0.00    +0.068 A 
ATOM      6  C   UNL     1       2.135  -0.526  -1.371  0.00  0.00    +0.271 A 
ATOM      7  O   UNL     1       2.741  -0.371  -0.326  0.00  0.00    -0.266 OA
ATOM      8  C   UNL     1       4.250  -1.030  -2.608  0.00  0.00    +0.025 A 
ATOM      9  C   UNL     1       4.862  -1.352  -3.820  0.00  0.00    +0.004 A 
ATOM     10  C   UNL     1       4.076  -1.501  -4.968  0.00  0.00    +0.120 A 
ATOM     11  N   UNL     1       2.772  -1.343  -4.929  0.00  0.00    -0.252 NA
ATOM     12  N   UNL     1      -0.067  -1.000  -4.913  0.00  0.00    -0.337 N 
ATOM     13  C   UNL     1      -1.343  -0.275  -5.006  0.00  0.00    +0.082 C 
ATOM     14  C   UNL     1      -2.175  -0.608  -3.762  0.00  0.00    +0.103 C 
ATOM     15  C   UNL     1      -1.341  -0.383  -2.528  0.00  0.00    +0.184 C 
ATOM     16  O   UNL     1      -1.881  -0.057  -1.490  0.00  0.00    -0.290 OA
ATOM     17  H   UNL     1       0.240  -1.561  -5.642  0.00  0.00    +0.146 HD
ENDROOT
BRANCH   9  18
ATOM     18  C   UNL     1       6.331  -1.535  -3.891  0.00  0.00    +0.025 A 
ATOM     19  C   UNL     1       7.183  -0.574  -3.349  0.00  0.00    +0.012 A 
ATOM     20  C   UNL     1       8.550  -0.749  -3.417  0.00  0.00    +0.001 A 
ATOM     21  C   UNL     1       9.079  -1.876  -4.022  0.00  0.00    +0.004 A 
ATOM     22  C   UNL     1       8.244  -2.835  -4.563  0.00  0.00    +0.046 A 
ATOM     23  C   UNL     1       6.869  -2.675  -4.497  0.00  0.00    +0.125 A 
BRANCH  23  24
ATOM     24  O   UNL     1       6.047  -3.619  -5.024  0.00  0.00    -0.506 OA
ATOM     25  H   UNL     1       5.824  -3.472  -5.954  0.00  0.00    +0.292 HD
ENDBRANCH  23  24
ENDBRANCH   9  18
BRANCH   1  27
ATOM     26  C   UNL     1      -0.022   1.810   0.012  0.00  0.00    +0.110 C 
ATOM     27  S   UNL     1       0.002  -0.004   0.002  0.00  0.00    -0.044 S 
ENDBRANCH   1  27
BRANCH  13  28
ATOM     28  C   UNL     1      -1.078   1.231  -5.062  0.00  0.00    +0.057 C 
BRANCH  28  29
ATOM     29  C   UNL     1      -0.341   1.565  -6.333  0.00  0.00    -0.046 A 
ATOM     30  C   UNL     1       1.041   1.550  -6.354  0.00  0.00    +0.004 A 
ATOM     31  C   UNL     1       1.718   1.856  -7.520  0.00  0.00    +0.000 A 
ATOM     32  C   UNL     1       1.012   2.176  -8.665  0.00  0.00    +0.000 A 
ATOM     33  C   UNL     1      -0.370   2.191  -8.644  0.00  0.00    +0.000 A 
ATOM     34  C   UNL     1      -1.046   1.881  -7.479  0.00  0.00    +0.004 A 
ENDBRANCH  28  29
ENDBRANCH  13  28
TORSDOF 5
