REMARK  Name = ZINC24136882
REMARK  4 active torsions:
REMARK  status: ('A' for Active; 'I' for Inactive)
REMARK    1  A    between atoms: N_9  and  C_28
REMARK    2  A    between atoms: C_10  and  S_12
REMARK    3  A    between atoms: S_12  and  C_13
REMARK    4  A    between atoms: C_13  and  C_14
REMARK                            x       y       z     vdW  Elec       q    Type
REMARK                         _______ _______ _______ _____ _____    ______ ____
ROOT
ATOM      1  C   UNL     1      -2.761  11.973   0.096  0.00  0.00    +0.001 A 
ATOM      2  C   UNL     1      -3.169  11.009  -0.817  0.00  0.00    +0.002 A 
ATOM      3  C   UNL     1      -3.074   9.678  -0.523  0.00  0.00    +0.028 A 
ATOM      4  C   UNL     1      -2.560   9.277   0.714  0.00  0.00    +0.079 A 
ATOM      5  C   UNL     1      -2.146  10.261   1.640  0.00  0.00    +0.065 A 
ATOM      6  C   UNL     1      -2.253  11.612   1.314  0.00  0.00    +0.015 A 
ATOM      7  C   UNL     1      -1.609   9.815   2.933  0.00  0.00    +0.267 A 
ATOM      8  O   UNL     1      -1.237  10.615   3.771  0.00  0.00    -0.267 OA
ATOM      9  N   UNL     1      -1.551   8.482   3.159  0.00  0.00    -0.253 N 
ATOM     10  C   UNL     1      -1.970   7.598   2.203  0.00  0.00    +0.177 A 
ATOM     11  N   UNL     1      -2.451   7.974   1.044  0.00  0.00    -0.223 NA
ENDROOT
BRANCH   9  12
ATOM     12  C   UNL     1      -1.052   8.004   4.379  0.00  0.00    +0.087 A 
ATOM     13  C   UNL     1       0.302   7.737   4.520  0.00  0.00    +0.029 A 
ATOM     14  C   UNL     1       0.791   7.270   5.725  0.00  0.00    +0.002 A 
ATOM     15  C   UNL     1      -0.068   7.059   6.787  0.00  0.00    +0.003 A 
ATOM     16  C   UNL     1      -1.419   7.320   6.651  0.00  0.00    +0.040 A 
ATOM     17  C   UNL     1      -1.915   7.792   5.449  0.00  0.00    +0.147 A 
ATOM     18  F   UNL     1      -3.235   8.046   5.315  0.00  0.00    -0.203 F 
ENDBRANCH   9  12
BRANCH  10  19
ATOM     19  S   UNL     1      -1.864   5.874   2.550  0.00  0.00    -0.078 S 
BRANCH  19  20
ATOM     20  C   UNL     1      -2.532   5.202   1.007  0.00  0.00    +0.173 C 
BRANCH  20  21
ATOM     21  C   UNL     1      -2.538   3.697   1.076  0.00  0.00    +0.226 C 
ATOM     22  O   UNL     1      -2.131   3.133   2.070  0.00  0.00    -0.275 OA
ATOM     23  N   UNL     1      -2.996   2.976   0.034  0.00  0.00    -0.297 N 
ATOM     24  C   UNL     1      -3.649   3.635  -1.107  0.00  0.00    +0.108 C 
ATOM     25  C   UNL     1      -2.955   3.194  -2.399  0.00  0.00    +0.019 C 
ATOM     26  C   UNL     1      -2.940   1.665  -2.474  0.00  0.00    +0.007 C 
ATOM     27  C   UNL     1      -2.148   1.107  -1.285  0.00  0.00    +0.010 C 
ATOM     28  C   UNL     1      -2.854   1.516   0.010  0.00  0.00    +0.079 C 
ATOM     29  C   UNL     1      -2.046   1.059   1.221  0.00  0.00    +0.023 C 
ATOM     30  C   UNL     1      -0.647   1.649   1.182  0.00  0.00    +0.002 C 
ATOM     31  C   UNL     1       0.055   1.203  -0.103  0.00  0.00    +0.000 C 
ATOM     32  C   UNL     1      -0.738   1.701  -1.311  0.00  0.00    +0.005 C 
ENDBRANCH  20  21
ENDBRANCH  19  20
ENDBRANCH  10  19
TORSDOF 4
