REMARK  Name = ZINC27753935
REMARK  7 active torsions:
REMARK  status: ('A' for Active; 'I' for Inactive)
REMARK    1  A    between atoms: C_1  and  C_2
REMARK    2  A    between atoms: C_5  and  C_8
REMARK    3  A    between atoms: C_8  and  O_30
REMARK    4  A    between atoms: C_9  and  C_24
REMARK    5  A    between atoms: C_11  and  C_17
REMARK    6  A    between atoms: C_20  and  O_23
REMARK    7  A    between atoms: C_24  and  C_26
REMARK                            x       y       z     vdW  Elec       q    Type
REMARK                         _______ _______ _______ _____ _____    ______ ____
ROOT
ATOM      1  C   UNL     1       0.002  -0.004   0.002  0.00  0.00    +0.172 C 
ATOM      2  C   UNL     1      -0.103  -0.526   1.439  0.00  0.00    +0.144 C 
ATOM      3  C   UNL     1       0.036  -2.051   1.416  0.00  0.00    +0.120 C 
ATOM      4  N   UNL     1       1.289  -2.409   0.749  0.00  0.00    -0.292 N 
ATOM      5  C   UNL     1       1.822  -1.626  -0.201  0.00  0.00    +0.302 C 
ATOM      6  O   UNL     1       2.860  -1.975  -0.731  0.00  0.00    -0.253 OA
ATOM      7  N   UNL     1       1.257  -0.473  -0.589  0.00  0.00    -0.267 N 
ATOM      8  H   UNL     1       1.813  -3.337   1.023  0.00  0.00    +0.151 HD
ATOM      9  H   UNL     1       1.755   0.123  -1.367  0.00  0.00    +0.153 HD
ENDROOT
BRANCH   1  14
ATOM     10  C   UNL     1      -0.076   5.774   0.035  0.00  0.00    +0.044 C 
ATOM     11  C   UNL     1      -0.056   4.267   0.025  0.00  0.00    -0.050 A 
ATOM     12  C   UNL     1       1.151   3.592   0.010  0.00  0.00    +0.004 A 
ATOM     13  C   UNL     1       1.169   2.210   0.003  0.00  0.00    +0.008 A 
ATOM     14  C   UNL     1      -0.018   1.503   0.010  0.00  0.00    +0.003 A 
ATOM     15  C   UNL     1      -1.225   2.178   0.020  0.00  0.00    +0.008 A 
ATOM     16  C   UNL     1      -1.244   3.560   0.032  0.00  0.00    +0.004 A 
ENDBRANCH   1  14
BRANCH   3  17
ATOM     17  C   UNL     1       0.048  -2.578   2.828  0.00  0.00    -0.026 A 
ATOM     18  C   UNL     1       1.210  -2.523   3.575  0.00  0.00    +0.009 A 
ATOM     19  C   UNL     1       1.222  -3.000   4.872  0.00  0.00    +0.046 A 
ATOM     20  C   UNL     1       0.069  -3.545   5.420  0.00  0.00    +0.117 A 
ATOM     21  C   UNL     1      -1.094  -3.603   4.666  0.00  0.00    +0.046 A 
ATOM     22  C   UNL     1      -1.102  -3.120   3.372  0.00  0.00    +0.009 A 
BRANCH  20  23
ATOM     23  O   UNL     1       0.080  -4.020   6.693  0.00  0.00    -0.507 OA
ATOM     24  H   UNL     1      -0.834  -4.452   7.127  0.00  0.00    +0.292 HD
ENDBRANCH  20  23
ENDBRANCH   3  17
BRANCH   2  25
ATOM     25  C   UNL     1      -1.443  -0.148   2.018  0.00  0.00    +0.245 C 
ATOM     26  O   UNL     1      -2.403  -0.037   1.294  0.00  0.00    -0.287 OA
BRANCH  25  27
ATOM     27  C   UNL     1      -1.583   0.090   3.499  0.00  0.00    +0.451 C 
ATOM     28  F   UNL     1      -2.513  -0.811   4.030  0.00  0.00    -0.163 F 
ATOM     29  F   UNL     1      -0.344  -0.097   4.121  0.00  0.00    -0.163 F 
ATOM     30  F   UNL     1      -2.024   1.399   3.721  0.00  0.00    -0.163 F 
ENDBRANCH  25  27
ENDBRANCH   2  25
BRANCH   1  31
ATOM     31  O   UNL     1      -1.100  -0.492  -0.765  0.00  0.00    -0.367 OA
ATOM     32  H   UNL     1      -1.250  -1.576  -0.885  0.00  0.00    +0.212 HD
ENDBRANCH   1  31
TORSDOF 6
