REMARK  Name = ZINC09250873
REMARK  4 active torsions:
REMARK  status: ('A' for Active; 'I' for Inactive)
REMARK    1  A    between atoms: C_1  and  C_2
REMARK    2  A    between atoms: C_3  and  C_7
REMARK    3  A    between atoms: N_9  and  C_10
REMARK    4  A    between atoms: C_11  and  C_19
REMARK                            x       y       z     vdW  Elec       q    Type
REMARK                         _______ _______ _______ _____ _____    ______ ____
ROOT
ATOM      1  C   UNL     1       3.125   1.896   4.359  0.00  0.00    +0.085 A 
ATOM      2  C   UNL     1       3.747   2.168   5.570  0.00  0.00    +0.068 A 
ATOM      3  C   UNL     1       5.182   1.958   5.650  0.00  0.00    -0.023 A 
ATOM      4  C   UNL     1       5.764   1.523   4.512  0.00  0.00    -0.004 A 
ATOM      5  S   UNL     1       4.437   1.384   3.349  0.00  0.00    -0.077 S 
ATOM      6  C   UNL     1       7.217   1.228   4.296  0.00  0.00    +0.043 C 
ATOM      7  C   UNL     1       8.014   1.849   5.452  0.00  0.00    +0.005 C 
ATOM      8  C   UNL     1       7.341   1.470   6.774  0.00  0.00    +0.005 C 
ATOM      9  C   UNL     1       6.006   2.205   6.908  0.00  0.00    +0.037 C 
ENDROOT
BRANCH   2  10
ATOM     10  C   UNL     1       2.982   2.644   6.727  0.00  0.00    +0.244 C 
ATOM     11  O   UNL     1       2.506   1.846   7.512  0.00  0.00    -0.270 OA
ATOM     12  N   UNL     1       2.807   3.967   6.920  0.00  0.00    -0.325 N 
ATOM     13  H   UNL     1       3.187   4.603   6.294  0.00  0.00    +0.145 HD
ATOM     14  H   UNL     1       2.301   4.282   7.686  0.00  0.00    +0.145 HD
ENDBRANCH   2  10
BRANCH   1  17
ATOM     15  C   UNL     1       1.362   1.705   2.792  0.00  0.00    +0.259 C 
ATOM     16  O   UNL     1       2.159   1.327   1.955  0.00  0.00    -0.269 OA
ATOM     17  N   UNL     1       1.784   2.012   4.035  0.00  0.00    -0.275 N 
ATOM     18  H   UNL     1       1.148   2.314   4.702  0.00  0.00    +0.156 HD
BRANCH  15  21
ATOM     19  C   UNL     1      -0.013   1.086   0.008  0.00  0.00    +0.069 C 
ATOM     20  C   UNL     1      -0.718   1.572   1.248  0.00  0.00    +0.081 A 
ATOM     21  C   UNL     1      -0.063   1.829   2.448  0.00  0.00    +0.117 A 
ATOM     22  S   UNL     1      -1.444   2.351   3.450  0.00  0.00    +0.041 S 
ATOM     23  N   UNL     1      -2.588   2.208   2.369  0.00  0.00    -0.110 NA
ATOM     24  N   UNL     1      -2.009   1.799   1.300  0.00  0.00    -0.146 NA
ENDBRANCH  15  21
ENDBRANCH   1  17
TORSDOF 3
