REMARK  Name = ZINC51145480
REMARK  6 active torsions:
REMARK  status: ('A' for Active; 'I' for Inactive)
REMARK    1  A    between atoms: C_1  and  C_2
REMARK    2  A    between atoms: N_5  and  C_11
REMARK    3  A    between atoms: C_7  and  C_9
REMARK    4  A    between atoms: C_7  and  C_10
REMARK    5  A    between atoms: C_11  and  C_12
REMARK    6  A    between atoms: N_21  and  N_22
REMARK                            x       y       z     vdW  Elec       q    Type
REMARK                         _______ _______ _______ _____ _____    ______ ____
ROOT
ATOM      1  C   UNL     1      -3.384  -2.273  -1.303  0.00  0.00    +0.146 A 
ATOM      2  N   UNL     1      -4.061  -1.153  -1.480  0.00  0.00    -0.214 NA
ATOM      3  C   UNL     1      -4.625  -0.846  -2.637  0.00  0.00    +0.144 A 
ATOM      4  C   UNL     1      -4.502  -1.747  -3.730  0.00  0.00    +0.049 A 
ATOM      5  C   UNL     1      -5.020  -1.644  -5.083  0.00  0.00    +0.021 A 
ATOM      6  C   UNL     1      -4.774  -2.632  -5.956  0.00  0.00    +0.048 A 
ATOM      7  S   UNL     1      -3.810  -3.795  -5.008  0.00  0.00    -0.077 S 
ATOM      8  C   UNL     1      -3.764  -2.922  -3.465  0.00  0.00    +0.114 A 
ATOM      9  N   UNL     1      -3.230  -3.145  -2.280  0.00  0.00    -0.223 NA
ATOM     10  N   UNL     1      -5.327   0.338  -2.781  0.00  0.00    -0.267 N 
ATOM     11  H   UNL     1      -5.738   0.557  -3.632  0.00  0.00    +0.167 HD
ENDROOT
BRANCH  10  12
ATOM     12  N   UNL     1      -5.441   1.198  -1.726  0.00  0.00    -0.255 NA
ATOM     13  H   UNL     1      -4.533   1.458  -1.373  0.00  0.00    +0.140 HD
ATOM     14  H   UNL     1      -5.978   2.013  -1.981  0.00  0.00    +0.140 HD
ENDBRANCH  10  12
BRANCH   1  15
ATOM     15  C   UNL     1      -2.768  -2.557   0.042  0.00  0.00    +0.160 C 
BRANCH  15  19
ATOM     16  C   UNL     1      -0.019   1.526   0.010  0.00  0.00    +0.039 C 
ATOM     17  C   UNL     1       0.002  -0.004   0.002  0.00  0.00    +0.130 C 
ATOM     18  C   UNL     1      -1.434  -0.535   0.015  0.00  0.00    +0.116 C 
ATOM     19  N   UNL     1      -1.407  -2.003   0.085  0.00  0.00    -0.290 NA
ATOM     20  C   UNL     1      -0.692  -2.455   1.287  0.00  0.00    +0.119 C 
ATOM     21  C   UNL     1       0.736  -1.905   1.261  0.00  0.00    +0.077 C 
ATOM     22  O   UNL     1       0.692  -0.479   1.161  0.00  0.00    -0.368 OA
ATOM     23  C   UNL     1       1.483  -2.478   0.055  0.00  0.00    +0.042 C 
ATOM     24  C   UNL     1       1.461  -2.304   2.548  0.00  0.00    +0.042 C 
ENDBRANCH  15  19
ENDBRANCH   1  15
TORSDOF 3
