REMARK  Name = ZINC39681095
REMARK  7 active torsions:
REMARK  status: ('A' for Active; 'I' for Inactive)
REMARK    1  A    between atoms: C_1  and  C_2
REMARK    2  A    between atoms: C_2  and  C_4
REMARK    3  A    between atoms: C_2  and  N_10
REMARK    4  A    between atoms: C_11  and  C_13
REMARK    5  A    between atoms: C_24  and  C_26
REMARK    6  A    between atoms: C_29  and  O_32
REMARK    7  A    between atoms: O_32  and  C_33
REMARK                            x       y       z     vdW  Elec       q    Type
REMARK                         _______ _______ _______ _____ _____    ______ ____
ROOT
ATOM      1  C   UNL     1      -2.744  -1.967  -1.181  0.00  0.00    +0.100 C 
ATOM      2  C   UNL     1      -3.106  -3.375  -0.659  0.00  0.00    +0.121 C 
ATOM      3  N   UNL     1      -4.234  -3.813  -1.515  0.00  0.00    -0.296 N 
ATOM      4  C   UNL     1      -3.877  -3.329  -2.871  0.00  0.00    +0.115 C 
ATOM      5  C   UNL     1      -3.251  -1.941  -2.633  0.00  0.00    -0.004 C 
ATOM      6  C   UNL     1      -2.089  -1.715  -3.595  0.00  0.00    -0.010 C 
ATOM      7  C   UNL     1      -2.625  -1.635  -5.027  0.00  0.00    -0.082 C 
ATOM      8  N   UNL     1      -3.591  -0.534  -5.128  0.00  0.00    +0.379 N 
ATOM      9  C   UNL     1      -4.750  -0.805  -4.269  0.00  0.00    -0.082 C 
ATOM     10  C   UNL     1      -4.304  -0.850  -2.805  0.00  0.00    -0.010 C 
ATOM     11  C   UNL     1      -5.335  -4.497  -1.145  0.00  0.00    +0.248 C 
ATOM     12  O   UNL     1      -5.549  -4.712   0.032  0.00  0.00    -0.270 OA
ATOM     13  H   UNL     1      -3.152   0.326  -4.837  0.00  0.00    -0.086 HD
ATOM     14  H   UNL     1      -3.897  -0.445  -6.086  0.00  0.00    -0.086 HD
ENDROOT
BRANCH  11  15
ATOM     15  C   UNL     1      -6.279  -4.984  -2.169  0.00  0.00    +0.055 A 
ATOM     16  C   UNL     1      -5.874  -5.119  -3.505  0.00  0.00    +0.020 A 
ATOM     17  C   UNL     1      -6.794  -5.578  -4.426  0.00  0.00    +0.068 A 
ATOM     18  C   UNL     1      -8.082  -5.891  -4.002  0.00  0.00    +0.220 A 
ATOM     19  N   UNL     1      -8.434  -5.753  -2.733  0.00  0.00    -0.220 NA
ATOM     20  C   UNL     1      -7.587  -5.324  -1.821  0.00  0.00    +0.127 A 
BRANCH  18  21
ATOM     21  O   UNL     1      -8.989  -6.343  -4.902  0.00  0.00    -0.438 OA
BRANCH  21  22
ATOM     22  C   UNL     1     -10.207  -6.730  -4.440  0.00  0.00    +0.130 A 
ATOM     23  C   UNL     1     -11.170  -5.779  -4.136  0.00  0.00    +0.046 A 
ATOM     24  C   UNL     1     -12.407  -6.175  -3.667  0.00  0.00    +0.004 A 
ATOM     25  C   UNL     1     -12.687  -7.518  -3.499  0.00  0.00    +0.000 A 
ATOM     26  C   UNL     1     -11.729  -8.469  -3.801  0.00  0.00    +0.004 A 
ATOM     27  C   UNL     1     -10.492  -8.078  -4.276  0.00  0.00    +0.046 A 
ENDBRANCH  21  22
ENDBRANCH  18  21
ENDBRANCH  11  15
BRANCH   1  29
ATOM     28  N   UNL     1      -0.747  -0.522  -0.977  0.00  0.00    -0.308 N 
ATOM     29  C   UNL     1      -1.252  -1.760  -1.143  0.00  0.00    +0.219 C 
ATOM     30  O   UNL     1      -0.505  -2.709  -1.262  0.00  0.00    -0.275 OA
ATOM     31  H   UNL     1      -1.344   0.237  -0.882  0.00  0.00    +0.149 HD
BRANCH  28  33
ATOM     32  C   UNL     1       1.237  -0.188  -2.368  0.00  0.00    +0.033 C 
ATOM     33  C   UNL     1       0.704  -0.321  -0.940  0.00  0.00    +0.100 C 
BRANCH  33  34
ATOM     34  C   UNL     1       1.018   0.934  -0.167  0.00  0.00    -0.025 A 
ATOM     35  C   UNL     1       0.231   2.068  -0.305  0.00  0.00    +0.025 A 
ATOM     36  C   UNL     1       0.550   3.201   0.419  0.00  0.00    +0.111 A 
ATOM     37  N   UNL     1       1.587   3.211   1.233  0.00  0.00    -0.263 NA
ATOM     38  C   UNL     1       2.357   2.152   1.389  0.00  0.00    +0.111 A 
ATOM     39  C   UNL     1       2.096   0.982   0.702  0.00  0.00    +0.025 A 
ENDBRANCH  33  34
ENDBRANCH  28  33
ENDBRANCH   1  29
TORSDOF 6
