REMARK  Name = ZINC36006966
REMARK  4 active torsions:
REMARK  status: ('A' for Active; 'I' for Inactive)
REMARK    1  A    between atoms: C_16  and  C_18
REMARK    2  A    between atoms: C_18  and  C_20
REMARK    3  A    between atoms: C_24  and  N_26
REMARK    4  A    between atoms: N_31  and  C_34
REMARK                            x       y       z     vdW  Elec       q    Type
REMARK                         _______ _______ _______ _____ _____    ______ ____
ROOT
ATOM      1  C   UNL     1      -0.017   1.377   0.010  0.00  0.00    +0.001 A 
ATOM      2  C   UNL     1       1.174   2.083   0.002  0.00  0.00    +0.000 A 
ATOM      3  C   UNL     1       2.386   1.418  -0.010  0.00  0.00    +0.006 A 
ATOM      4  C   UNL     1       2.420   0.034  -0.017  0.00  0.00    -0.021 A 
ATOM      5  C   UNL     1       1.224  -0.670  -0.016  0.00  0.00    -0.019 A 
ATOM      6  C   UNL     1       0.002  -0.004   0.002  0.00  0.00    +0.008 A 
ATOM      7  C   UNL     1       1.288  -2.147  -0.045  0.00  0.00    +0.022 C 
ATOM      8  C   UNL     1       2.458  -2.704  -0.249  0.00  0.00    +0.054 C 
ATOM      9  N   UNL     1       3.669  -2.083  -0.451  0.00  0.00    -0.384 NA
ATOM     10  C   UNL     1       3.767  -0.659  -0.022  0.00  0.00    +0.100 C 
ATOM     11  C   UNL     1       4.571   0.047  -1.119  0.00  0.00    +0.113 C 
ATOM     12  C   UNL     1       5.129  -1.176  -1.930  0.00  0.00    +0.116 C 
ATOM     13  C   UNL     1       3.991  -2.105  -1.932  0.00  0.00    +0.141 C 
ATOM     14  C   UNL     1       6.127  -0.547  -2.751  0.00  0.00    +0.232 C 
ATOM     15  O   UNL     1       6.449  -0.846  -3.881  0.00  0.00    -0.274 OA
ATOM     16  N   UNL     1       6.636   0.469  -1.975  0.00  0.00    -0.210 N 
ATOM     17  C   UNL     1       5.884   0.703  -0.837  0.00  0.00    +0.232 C 
ATOM     18  O   UNL     1       6.212   1.297   0.167  0.00  0.00    -0.274 OA
ATOM     19  H   UNL     1       4.383  -2.604   0.037  0.00  0.00    +0.127 HD
ENDROOT
BRANCH  16  20
ATOM     20  C   UNL     1       7.786   1.200  -2.306  0.00  0.00    +0.045 A 
ATOM     21  C   UNL     1       8.236   2.207  -1.462  0.00  0.00    +0.024 A 
ATOM     22  C   UNL     1       9.369   2.926  -1.789  0.00  0.00    +0.003 A 
ATOM     23  C   UNL     1      10.055   2.645  -2.956  0.00  0.00    +0.020 A 
ATOM     24  C   UNL     1       9.609   1.642  -3.799  0.00  0.00    +0.043 A 
ATOM     25  C   UNL     1       8.479   0.916  -3.474  0.00  0.00    +0.044 A 
ATOM     26 CL   UNL     1      10.473   1.293  -5.264  0.00  0.00    -0.083 Cl
ENDBRANCH  16  20
BRANCH  13  27
ATOM     27  C   UNL     1       2.845  -1.573  -2.754  0.00  0.00    +0.183 C 
ATOM     28  O   UNL     1       1.985  -0.897  -2.230  0.00  0.00    -0.290 OA
BRANCH  27  29
ATOM     29  C   UNL     1       2.769  -1.874  -4.193  0.00  0.00    +0.021 A 
ATOM     30  C   UNL     1       3.756  -2.658  -4.800  0.00  0.00    +0.011 A 
ATOM     31  C   UNL     1       3.678  -2.935  -6.148  0.00  0.00    +0.003 A 
ATOM     32  C   UNL     1       2.627  -2.440  -6.901  0.00  0.00    +0.033 A 
ATOM     33  C   UNL     1       1.647  -1.664  -6.307  0.00  0.00    +0.127 A 
ATOM     34  C   UNL     1       1.708  -1.382  -4.959  0.00  0.00    +0.044 A 
BRANCH  33  35
ATOM     35  N   UNL     1       0.528  -1.139  -7.121  0.00  0.00    +0.056 N 
ATOM     36  O   UNL     1       0.471  -1.389  -8.303  0.00  0.00    -0.126 OA
ATOM     37  O   UNL     1      -0.329  -0.461  -6.605  0.00  0.00    -0.126 OA
ENDBRANCH  33  35
ENDBRANCH  27  29
ENDBRANCH  13  27
TORSDOF 4
