REMARK  Name = ZINC19898628
REMARK  14 active torsions:
REMARK  status: ('A' for Active; 'I' for Inactive)
REMARK    1  A    between atoms: C_1  and  C_2
REMARK    2  A    between atoms: C_2  and  C_3
REMARK    3  A    between atoms: C_3  and  C_4
REMARK    4  A    between atoms: C_4  and  O_5
REMARK    5  A    between atoms: O_5  and  C_6
REMARK    6  A    between atoms: C_6  and  C_8
REMARK    7  A    between atoms: C_9  and  C_38
REMARK    8  A    between atoms: C_13  and  C_15
REMARK    9  A    between atoms: C_19  and  O_21
REMARK   10  A    between atoms: C_25  and  C_28
REMARK   11  A    between atoms: C_31  and  O_36
REMARK   12  A    between atoms: C_32  and  O_34
REMARK   13  A    between atoms: O_34  and  C_35
REMARK   14  A    between atoms: O_36  and  C_37
REMARK                            x       y       z     vdW  Elec       q    Type
REMARK                         _______ _______ _______ _____ _____    ______ ____
ROOT
ATOM      1  C   UNL     1       2.359  -4.405   3.586  0.00  0.00    +0.065 C 
ATOM      2  C   UNL     1       2.251  -5.721   3.841  0.00  0.00    +0.016 C 
ATOM      3  N   UNL     1       2.760  -6.247   4.995  0.00  0.00    -0.321 N 
ATOM      4  C   UNL     1       3.023  -5.444   6.072  0.00  0.00    +0.016 C 
ATOM      5  C   UNL     1       3.161  -4.110   5.914  0.00  0.00    +0.024 C 
ATOM      6  C   UNL     1       3.048  -3.481   4.546  0.00  0.00    +0.092 C 
ATOM      7  C   UNL     1       3.416  -3.272   7.014  0.00  0.00    +0.162 C 
ATOM      8  O   UNL     1       3.542  -2.077   6.836  0.00  0.00    -0.292 OA
ATOM      9  C   UNL     1       3.535  -3.828   8.406  0.00  0.00    +0.088 C 
ATOM     10  C   UNL     1       2.691  -5.103   8.509  0.00  0.00    +0.032 C 
ATOM     11  C   UNL     1       3.159  -6.083   7.431  0.00  0.00    +0.059 C 
ATOM     12  C   UNL     1       1.564  -6.621   2.847  0.00  0.00    +0.061 C 
ATOM     13  H   UNL     1       2.936  -7.199   5.052  0.00  0.00    +0.152 HD
ENDROOT
BRANCH   6  14
ATOM     14  C   UNL     1       4.427  -3.164   4.026  0.00  0.00    -0.032 A 
ATOM     15  C   UNL     1       5.337  -4.184   3.818  0.00  0.00    +0.005 A 
ATOM     16  C   UNL     1       6.603  -3.897   3.341  0.00  0.00    +0.004 A 
ATOM     17  C   UNL     1       6.961  -2.590   3.071  0.00  0.00    +0.045 A 
ATOM     18  C   UNL     1       6.049  -1.566   3.279  0.00  0.00    +0.117 A 
ATOM     19  C   UNL     1       4.778  -1.857   3.752  0.00  0.00    +0.050 A 
BRANCH  18  20
ATOM     20  O   UNL     1       6.399  -0.280   3.014  0.00  0.00    -0.507 OA
ATOM     21  H   UNL     1       6.208   0.002   2.109  0.00  0.00    +0.292 HD
ENDBRANCH  18  20
ENDBRANCH   6  14
BRANCH  10  22
ATOM     22  C   UNL     1       2.869  -5.720   9.872  0.00  0.00    -0.040 A 
ATOM     23  C   UNL     1       4.126  -6.113  10.293  0.00  0.00    +0.008 A 
ATOM     24  C   UNL     1       4.295  -6.679  11.543  0.00  0.00    +0.049 A 
ATOM     25  C   UNL     1       3.202  -6.853  12.377  0.00  0.00    +0.161 A 
ATOM     26  C   UNL     1       1.937  -6.457  11.954  0.00  0.00    +0.162 A 
ATOM     27  C   UNL     1       1.776  -5.886  10.702  0.00  0.00    +0.053 A 
BRANCH  26  28
ATOM     28  O   UNL     1       0.862  -6.626  12.770  0.00  0.00    -0.491 OA
ATOM     29  C   UNL     1      -0.406  -6.197  12.270  0.00  0.00    +0.277 C 
ENDBRANCH  26  28
BRANCH  25  30
ATOM     30  O   UNL     1       3.366  -7.411  13.607  0.00  0.00    -0.491 OA
ATOM     31  C   UNL     1       4.693  -7.794  13.974  0.00  0.00    +0.277 C 
ENDBRANCH  25  30
ENDBRANCH  10  22
BRANCH   1  32
ATOM     32  C   UNL     1       1.819  -3.884   2.388  0.00  0.00    +0.338 C 
ATOM     33  O   UNL     1       0.790  -3.235   2.417  0.00  0.00    -0.245 OA
BRANCH  32  34
ATOM     34  O   UNL     1       2.444  -4.106   1.213  0.00  0.00    -0.461 OA
BRANCH  34  35
ATOM     35  C   UNL     1       1.841  -3.550   0.042  0.00  0.00    +0.232 C 
BRANCH  35  36
ATOM     36  C   UNL     1       2.686  -3.904  -1.183  0.00  0.00    +0.041 C 
BRANCH  36  38
ATOM     37  C   UNL     1       2.886  -3.662  -3.662  0.00  0.00    +0.004 C 
ATOM     38  C   UNL     1       2.041  -3.308  -2.437  0.00  0.00    -0.000 C 
ENDBRANCH  36  38
ENDBRANCH  35  36
ENDBRANCH  34  35
ENDBRANCH  32  34
ENDBRANCH   1  32
TORSDOF 10
