REMARK  Name = ZINC00234130
REMARK  6 active torsions:
REMARK  status: ('A' for Active; 'I' for Inactive)
REMARK    1  A    between atoms: C_1  and  C_2
REMARK    2  A    between atoms: C_2  and  C_4
REMARK    3  A    between atoms: C_2  and  N_15
REMARK    4  A    between atoms: N_6  and  N_7
REMARK    5  A    between atoms: C_8  and  C_9
REMARK    6  A    between atoms: N_15  and  C_16
REMARK                            x       y       z     vdW  Elec       q    Type
REMARK                         _______ _______ _______ _____ _____    ______ ____
ROOT
ATOM      1  C   UNL     1      -0.019   1.526   0.010  0.00  0.00    +0.038 C 
ATOM      2  C   UNL     1       0.002  -0.004   0.002  0.00  0.00    +0.155 C 
ENDROOT
BRANCH   2   3
ATOM      3  C   UNL     1      -1.412  -0.526   0.013  0.00  0.00    +0.252 C 
ATOM      4  O   UNL     1      -1.808  -1.224  -0.897  0.00  0.00    -0.272 OA
ATOM      5  N   UNL     1      -2.236  -0.217   1.033  0.00  0.00    -0.205 N 
ATOM      6  H   UNL     1      -1.920   0.341   1.761  0.00  0.00    +0.177 HD
BRANCH   5   7
ATOM      7  N   UNL     1      -3.551  -0.702   1.043  0.00  0.00    -0.186 NA
ATOM      8  C   UNL     1      -4.345  -0.404   2.026  0.00  0.00    +0.158 C 
BRANCH   8   9
ATOM      9  C   UNL     1      -5.728  -0.915   2.036  0.00  0.00    +0.083 A 
ATOM     10  C   UNL     1      -6.580  -0.587   3.093  0.00  0.00    +0.029 A 
ATOM     11  C   UNL     1      -7.875  -1.073   3.088  0.00  0.00    +0.004 A 
ATOM     12  C   UNL     1      -8.278  -1.872   2.027  0.00  0.00    +0.020 A 
ATOM     13  C   UNL     1      -7.383  -2.158   1.012  0.00  0.00    +0.111 A 
ATOM     14  N   UNL     1      -6.157  -1.679   1.037  0.00  0.00    -0.254 NA
ENDBRANCH   8   9
ENDBRANCH   5   7
ENDBRANCH   2   3
BRANCH   2  15
ATOM     15  N   UNL     1       0.688  -0.476  -1.203  0.00  0.00    -0.333 N 
ATOM     16  H   UNL     1       0.175  -0.710  -1.993  0.00  0.00    +0.147 HD
BRANCH  15  17
ATOM     17  C   UNL     1       2.076  -0.591  -1.215  0.00  0.00    +0.035 A 
ATOM     18  C   UNL     1       2.811  -0.266  -0.094  0.00  0.00    +0.023 A 
ATOM     19  C   UNL     1       4.198  -0.377  -0.096  0.00  0.00    +0.002 A 
ATOM     20  C   UNL     1       4.867  -0.808  -1.201  0.00  0.00    +0.008 A 
ATOM     21  C   UNL     1       4.156  -1.148  -2.364  0.00  0.00    -0.016 A 
ATOM     22  C   UNL     1       2.743  -1.045  -2.373  0.00  0.00    +0.003 A 
ATOM     23  C   UNL     1       2.034  -1.391  -3.534  0.00  0.00    +0.010 A 
ATOM     24  C   UNL     1       2.711  -1.825  -4.633  0.00  0.00    +0.001 A 
ATOM     25  C   UNL     1       4.100  -1.933  -4.623  0.00  0.00    +0.001 A 
ATOM     26  C   UNL     1       4.821  -1.595  -3.519  0.00  0.00    +0.008 A 
ENDBRANCH  15  17
ENDBRANCH   2  15
TORSDOF 5
