REMARK  Name = ZINC01261190
REMARK  6 active torsions:
REMARK  status: ('A' for Active; 'I' for Inactive)
REMARK    1  A    between atoms: C_1  and  C_2
REMARK    2  A    between atoms: C_5  and  N_8
REMARK    3  A    between atoms: C_17  and  S_18
REMARK    4  A    between atoms: S_18  and  C_19
REMARK    5  A    between atoms: C_19  and  C_20
REMARK    6  A    between atoms: N_22  and  C_23
REMARK                            x       y       z     vdW  Elec       q    Type
REMARK                         _______ _______ _______ _____ _____    ______ ____
ROOT
ATOM      1  N   UNL     1       0.820  -5.029  -0.092  0.00  0.00    -0.255 N 
ATOM      2  C   UNL     1       1.248  -3.748  -0.182  0.00  0.00    +0.268 A 
ATOM      3  O   UNL     1       2.398  -3.469  -0.474  0.00  0.00    -0.267 OA
ATOM      4  C   UNL     1       0.266  -2.740   0.088  0.00  0.00    +0.076 A 
ATOM      5  C   UNL     1       0.467  -1.301   0.059  0.00  0.00    -0.023 A 
ATOM      6  C   UNL     1      -0.606  -0.531   0.349  0.00  0.00    -0.004 A 
ATOM      7  S   UNL     1      -1.925  -1.675   0.671  0.00  0.00    -0.073 S 
ATOM      8  C   UNL     1      -1.038  -3.179   0.417  0.00  0.00    +0.117 A 
ATOM      9  N   UNL     1      -1.394  -4.455   0.489  0.00  0.00    -0.215 NA
ATOM     10  C   UNL     1      -0.462  -5.363   0.233  0.00  0.00    +0.178 A 
ATOM     11  C   UNL     1      -0.666   0.965   0.389  0.00  0.00    +0.043 C 
ATOM     12  C   UNL     1       0.769   1.509   0.411  0.00  0.00    +0.005 C 
ATOM     13  C   UNL     1       1.580   0.797  -0.677  0.00  0.00    +0.005 C 
ATOM     14  C   UNL     1       1.811  -0.661  -0.280  0.00  0.00    +0.037 C 
ENDROOT
BRANCH   1  19
ATOM     15  C   UNL     1       4.530  -9.200  -1.118  0.00  0.00    +0.044 C 
ATOM     16  C   UNL     1       3.545  -8.092  -0.846  0.00  0.00    -0.050 A 
ATOM     17  C   UNL     1       3.172  -7.234  -1.864  0.00  0.00    +0.005 A 
ATOM     18  C   UNL     1       2.269  -6.218  -1.618  0.00  0.00    +0.026 A 
ATOM     19  C   UNL     1       1.736  -6.059  -0.346  0.00  0.00    +0.052 A 
ATOM     20  C   UNL     1       2.115  -6.919   0.676  0.00  0.00    +0.026 A 
ATOM     21  C   UNL     1       3.015  -7.936   0.422  0.00  0.00    +0.005 A 
ENDBRANCH   1  19
BRANCH  10  22
ATOM     22  S   UNL     1      -0.896  -7.068   0.318  0.00  0.00    -0.078 S 
BRANCH  22  23
ATOM     23  C   UNL     1      -2.642  -6.926   0.772  0.00  0.00    +0.173 C 
BRANCH  23  24
ATOM     24  C   UNL     1      -3.241  -8.303   0.904  0.00  0.00    +0.227 C 
ATOM     25  O   UNL     1      -2.554  -9.284   0.711  0.00  0.00    -0.275 OA
ATOM     26  N   UNL     1      -4.539  -8.444   1.237  0.00  0.00    -0.285 N 
ATOM     27  H   UNL     1      -5.108  -7.662   1.313  0.00  0.00    +0.155 HD
BRANCH  26  28
ATOM     28  C   UNL     1      -5.066  -9.720   1.475  0.00  0.00    +0.037 A 
ATOM     29  C   UNL     1      -6.379 -10.005   1.122  0.00  0.00    +0.027 A 
ATOM     30  C   UNL     1      -6.899 -11.264   1.351  0.00  0.00    +0.051 A 
ATOM     31  C   UNL     1      -6.116 -12.243   1.942  0.00  0.00    +0.166 A 
ATOM     32  C   UNL     1      -4.801 -11.958   2.302  0.00  0.00    +0.168 A 
ATOM     33  C   UNL     1      -4.279 -10.697   2.067  0.00  0.00    +0.072 A 
ATOM     34  O   UNL     1      -4.249 -13.076   2.859  0.00  0.00    -0.453 OA
ATOM     35  C   UNL     1      -5.361 -13.920   3.209  0.00  0.00    +0.466 C 
ATOM     36  O   UNL     1      -6.388 -13.540   2.274  0.00  0.00    -0.453 OA
ENDBRANCH  26  28
ENDBRANCH  23  24
ENDBRANCH  22  23
ENDBRANCH  10  22
TORSDOF 5
