REMARK  Name = ZINC02659426
REMARK  4 active torsions:
REMARK  status: ('A' for Active; 'I' for Inactive)
REMARK    1  A    between atoms: C_3  and  S_24
REMARK    2  A    between atoms: C_6  and  C_7
REMARK    3  A    between atoms: C_10  and  C_12
REMARK    4  A    between atoms: S_24  and  N_27
REMARK                            x       y       z     vdW  Elec       q    Type
REMARK                         _______ _______ _______ _____ _____    ______ ____
ROOT
ATOM      1  C   UNL     1       1.410   5.262  -0.181  0.00  0.00    +0.136 A 
ATOM      2  C   UNL     1       2.401   6.217  -0.249  0.00  0.00    +0.050 A 
ATOM      3  C   UNL     1       3.622   5.542  -0.198  0.00  0.00    +0.050 A 
ATOM      4  C   UNL     1       3.329   4.191  -0.099  0.00  0.00    +0.129 A 
ATOM      5  O   UNL     1       1.986   4.050  -0.096  0.00  0.00    -0.455 OA
ENDROOT
BRANCH   4   6
ATOM      6  C   UNL     1       4.268   3.147  -0.020  0.00  0.00    +0.060 C 
ATOM      7  C   UNL     1       4.002   2.034   0.758  0.00  0.00    +0.049 C 
ATOM      8  C   UNL     1       2.893   1.853   1.720  0.00  0.00    +0.009 A 
ATOM      9  C   UNL     1       1.841   2.668   2.127  0.00  0.00    +0.012 A 
ATOM     10  C   UNL     1       0.943   2.207   3.068  0.00  0.00    +0.021 A 
ATOM     11  C   UNL     1       1.089   0.937   3.604  0.00  0.00    +0.043 A 
ATOM     12  C   UNL     1       2.129   0.121   3.206  0.00  0.00    +0.044 A 
ATOM     13  C   UNL     1       3.044   0.568   2.259  0.00  0.00    +0.043 A 
ATOM     14  N   UNL     1       4.160  -0.036   1.693  0.00  0.00    -0.281 N 
ATOM     15  C   UNL     1       4.760   0.777   0.807  0.00  0.00    +0.249 C 
ATOM     16  O   UNL     1       5.757   0.516   0.158  0.00  0.00    -0.270 OA
ATOM     17 CL   UNL     1      -0.047   0.368   4.787  0.00  0.00    -0.083 Cl
ATOM     18  H   UNL     1       4.467  -0.930   1.911  0.00  0.00    +0.155 HD
ENDBRANCH   4   6
BRANCH   1  24
ATOM     19  C   UNL     1      -0.516   6.837  -0.294  0.00  0.00    +0.013 A 
ATOM     20  C   UNL     1      -1.874   7.075  -0.318  0.00  0.00    +0.029 A 
ATOM     21  C   UNL     1      -2.767   6.021  -0.243  0.00  0.00    +0.105 A 
ATOM     22  C   UNL     1      -2.304   4.720  -0.146  0.00  0.00    +0.029 A 
ATOM     23  C   UNL     1      -0.949   4.466  -0.126  0.00  0.00    +0.013 A 
ATOM     24  C   UNL     1      -0.042   5.526  -0.202  0.00  0.00    +0.017 A 
BRANCH  21  25
ATOM     25  S   UNL     1      -4.500   6.335  -0.269  0.00  0.00    +0.056 S 
ATOM     26  O   UNL     1      -4.676   7.589  -0.913  0.00  0.00    -0.153 OA
ATOM     27  O   UNL     1      -5.122   5.146  -0.734  0.00  0.00    -0.153 OA
BRANCH  25  28
ATOM     28  N   UNL     1      -4.984   6.539   1.302  0.00  0.00    -0.204 NA
ATOM     29  H   UNL     1      -5.734   7.119   1.507  0.00  0.00    +0.144 HD
ATOM     30  H   UNL     1      -4.518   6.078   2.017  0.00  0.00    +0.144 HD
ENDBRANCH  25  28
ENDBRANCH  21  25
ENDBRANCH   1  24
TORSDOF 4
