REMARK  Name = ZINC20734454
REMARK  9 active torsions:
REMARK  status: ('A' for Active; 'I' for Inactive)
REMARK    1  A    between atoms: C_1  and  C_2
REMARK    2  A    between atoms: C_2  and  C_3
REMARK    3  A    between atoms: C_2  and  C_4
REMARK    4  A    between atoms: C_4  and  C_5
REMARK    5  A    between atoms: C_5  and  C_7
REMARK    6  A    between atoms: C_5  and  N_11
REMARK    7  A    between atoms: C_7  and  O_9
REMARK    8  A    between atoms: O_9  and  C_10
REMARK    9  A    between atoms: C_23  and  C_25
REMARK                            x       y       z     vdW  Elec       q    Type
REMARK                         _______ _______ _______ _____ _____    ______ ____
ROOT
ATOM      1  N   UNL     1       4.265   1.084  -0.311  0.00  0.00    -0.286 N 
ATOM      2  C   UNL     1       3.204   1.656  -0.914  0.00  0.00    +0.304 C 
ATOM      3  O   UNL     1       2.351   0.961  -1.431  0.00  0.00    -0.253 OA
ATOM      4  N   UNL     1       3.089   2.999  -0.945  0.00  0.00    -0.273 N 
ATOM      5  C   UNL     1       1.886   3.641  -1.495  0.00  0.00    +0.116 C 
ATOM      6  C   UNL     1       2.271   4.447  -2.742  0.00  0.00    +0.076 C 
ATOM      7  C   UNL     1       3.518   5.240  -2.443  0.00  0.00    +0.066 A 
ATOM      8  C   UNL     1       4.361   4.979  -1.421  0.00  0.00    +0.064 A 
ATOM      9  N   UNL     1       5.363   5.898  -1.480  0.00  0.00    -0.346 N 
ATOM     10  H   UNL     1       6.120   5.965  -0.877  0.00  0.00    +0.167 HD
ATOM     11  C   UNL     1       5.101   6.699  -2.538  0.00  0.00    +0.197 A 
ATOM     12  N   UNL     1       3.995   6.297  -3.108  0.00  0.00    -0.240 NA
ATOM     13  C   UNL     1       4.164   3.862  -0.421  0.00  0.00    +0.159 C 
ATOM     14  H   UNL     1       4.981   1.638   0.039  0.00  0.00    +0.151 HD
ENDROOT
BRANCH  13  15
ATOM     15  C   UNL     1       3.762   4.429   0.916  0.00  0.00    +0.017 A 
ATOM     16  C   UNL     1       3.319   5.736   1.007  0.00  0.00    +0.011 A 
ATOM     17  C   UNL     1       2.949   6.258   2.232  0.00  0.00    +0.042 A 
ATOM     18  C   UNL     1       3.022   5.473   3.370  0.00  0.00    +0.161 A 
ATOM     19  C   UNL     1       3.465   4.163   3.281  0.00  0.00    +0.194 A 
ATOM     20  C   UNL     1       3.830   3.640   2.051  0.00  0.00    +0.167 A 
ATOM     21  F   UNL     1       4.257   2.361   1.960  0.00  0.00    -0.202 F 
ATOM     22  F   UNL     1       3.537   3.397   4.391  0.00  0.00    -0.199 F 
ATOM     23  F   UNL     1       2.660   5.985   4.568  0.00  0.00    -0.202 F 
ENDBRANCH  13  15
BRANCH   1  24
ATOM     24  C   UNL     1       4.337  -0.373  -0.183  0.00  0.00    +0.183 C 
BRANCH  24  25
ATOM     25  C   UNL     1       3.585  -0.807   1.049  0.00  0.00    +0.327 C 
ATOM     26  O   UNL     1       3.044   0.016   1.748  0.00  0.00    -0.249 OA
BRANCH  25  27
ATOM     27  O   UNL     1       3.515  -2.109   1.369  0.00  0.00    -0.467 OA
ATOM     28  C   UNL     1       2.786  -2.449   2.550  0.00  0.00    +0.280 C 
ENDBRANCH  25  27
ENDBRANCH  24  25
BRANCH  24  29
ATOM     29  C   UNL     1       5.800  -0.803  -0.065  0.00  0.00    +0.036 C 
BRANCH  29  31
ATOM     30  C   UNL     1       8.039  -0.721  -1.171  0.00  0.00    +0.007 C 
ATOM     31  C   UNL     1       6.548  -0.427  -1.345  0.00  0.00    -0.015 C 
ATOM     32  C   UNL     1       6.000  -1.246  -2.515  0.00  0.00    +0.007 C 
ENDBRANCH  29  31
ENDBRANCH  24  29
ENDBRANCH   1  24
TORSDOF 6
