REMARK  Name = ZINC64704309
REMARK  11 active torsions:
REMARK  status: ('A' for Active; 'I' for Inactive)
REMARK    1  A    between atoms: C_1  and  C_2
REMARK    2  A    between atoms: N_8  and  C_9
REMARK    3  A    between atoms: C_9  and  C_10
REMARK    4  A    between atoms: C_10  and  C_11
REMARK    5  A    between atoms: C_11  and  N_12
REMARK    6  A    between atoms: C_13  and  C_15
REMARK    7  A    between atoms: C_15  and  N_16
REMARK    8  A    between atoms: N_16  and  C_17
REMARK    9  A    between atoms: C_21  and  N_32
REMARK   10  A    between atoms: C_22  and  C_26
REMARK   11  A    between atoms: N_32  and  C_33
REMARK                            x       y       z     vdW  Elec       q    Type
REMARK                         _______ _______ _______ _____ _____    ______ ____
ROOT
ATOM      1  N   UNL     1       0.735   0.351   9.713  0.00  0.00    -0.302 N 
ATOM      2  C   UNL     1      -0.275  -0.440  10.420  0.00  0.00    +0.132 C 
ATOM      3  C   UNL     1       1.083   1.608  10.181  0.00  0.00    +0.184 A 
ATOM      4  N   UNL     1       0.632   2.248  11.224  0.00  0.00    -0.140 NA
ATOM      5  N   UNL     1       1.098   3.517  11.552  0.00  0.00    -0.190 N 
ATOM      6  C   UNL     1       0.884   4.480  12.527  0.00  0.00    +0.150 A 
ATOM      7  C   UNL     1       1.701   5.535  12.250  0.00  0.00    +0.114 A 
ATOM      8  N   UNL     1       2.405   5.232  11.127  0.00  0.00    -0.218 NA
ATOM      9  C   UNL     1       2.051   4.051  10.720  0.00  0.00    +0.199 A 
ATOM     10  S   UNL     1       2.270   2.763   9.514  0.00  0.00    -0.013 S 
ENDROOT
BRANCH   7  11
ATOM     11  C   UNL     1       1.803   6.789  13.032  0.00  0.00    +0.004 A 
ATOM     12  C   UNL     1       0.671   7.324  13.647  0.00  0.00    +0.010 A 
ATOM     13  C   UNL     1       0.773   8.492  14.375  0.00  0.00    +0.001 A 
ATOM     14  C   UNL     1       1.994   9.132  14.495  0.00  0.00    +0.000 A 
ATOM     15  C   UNL     1       3.119   8.606  13.886  0.00  0.00    +0.001 A 
ATOM     16  C   UNL     1       3.032   7.436  13.161  0.00  0.00    +0.010 A 
ENDBRANCH   7  11
BRANCH   6  17
ATOM     17  N   UNL     1      -0.007   4.385  13.599  0.00  0.00    -0.324 N 
ATOM     18  H   UNL     1      -0.085   5.116  14.231  0.00  0.00    +0.148 HD
BRANCH  17  19
ATOM     19  C   UNL     1      -0.823   3.180  13.769  0.00  0.00    +0.072 C 
ATOM     20  C   UNL     1      -2.137   3.316  12.972  0.00  0.00    +0.022 C 
ATOM     21  C   UNL     1      -3.198   2.635  13.871  0.00  0.00    +0.002 C 
ATOM     22  C   UNL     1      -2.761   3.058  15.296  0.00  0.00    +0.002 C 
ATOM     23  C   UNL     1      -1.220   3.016  15.246  0.00  0.00    +0.022 C 
ENDBRANCH  17  19
ENDBRANCH   6  17
BRANCH   1  24
ATOM     24  C   UNL     1       1.377  -0.187   8.511  0.00  0.00    +0.202 C 
BRANCH  24  26
ATOM     25  N   UNL     1       0.983  -0.177   6.069  0.00  0.00    -0.314 N 
ATOM     26  C   UNL     1       0.579   0.209   7.295  0.00  0.00    +0.230 C 
ATOM     27  O   UNL     1      -0.427   0.876   7.421  0.00  0.00    -0.274 OA
ATOM     28  H   UNL     1       1.787  -0.710   5.968  0.00  0.00    +0.149 HD
BRANCH  25  29
ATOM     29  C   UNL     1       0.207   0.209   4.887  0.00  0.00    +0.102 C 
BRANCH  29  30
ATOM     30  C   UNL     1       0.877  -0.353   3.631  0.00  0.00    +0.000 C 
BRANCH  30  31
ATOM     31  C   UNL     1       0.067   0.050   2.397  0.00  0.00    -0.077 C 
BRANCH  31  38
ATOM     32  C   UNL     1      -0.019   1.526   0.010  0.00  0.00    -0.013 C 
ATOM     33  C   UNL     1       0.002  -0.004   0.002  0.00  0.00    -0.072 C 
ATOM     34  C   UNL     1       0.717  -0.497  -1.258  0.00  0.00    -0.016 C 
ATOM     35  C   UNL     1       0.735  -2.028  -1.262  0.00  0.00    -0.003 C 
ATOM     36  C   UNL     1       1.410  -2.524   0.020  0.00  0.00    -0.019 C 
ATOM     37  C   UNL     1       0.669  -1.956   1.232  0.00  0.00    -0.078 C 
ATOM     38  N   UNL     1       0.711  -0.490   1.192  0.00  0.00    +0.381 N 
ATOM     39  H   UNL     1       1.671  -0.182   1.159  0.00  0.00    -0.081 HD
ENDBRANCH  31  38
ENDBRANCH  30  31
ENDBRANCH  29  30
ENDBRANCH  25  29
ENDBRANCH  24  26
ENDBRANCH   1  24
TORSDOF 9
