REMARK  Name = ZINC10035117
REMARK  6 active torsions:
REMARK  status: ('A' for Active; 'I' for Inactive)
REMARK    1  A    between atoms: C_1  and  C_2
REMARK    2  A    between atoms: C_6  and  N_8
REMARK    3  A    between atoms: C_9  and  C_11
REMARK    4  A    between atoms: C_12  and  C_13
REMARK    5  A    between atoms: C_16  and  C_18
REMARK    6  A    between atoms: C_23  and  N_24
REMARK                            x       y       z     vdW  Elec       q    Type
REMARK                         _______ _______ _______ _____ _____    ______ ____
ROOT
ATOM      1  C   UNL     1       3.171  -5.123  -2.296  0.00  0.00    +0.071 C 
ATOM      2  C   UNL     1       2.321  -5.328  -1.256  0.00  0.00    +0.051 C 
ENDROOT
BRANCH   2   3
ATOM      3  C   UNL     1       1.751  -4.224  -0.581  0.00  0.00    +0.129 A 
ATOM      4  C   UNL     1       0.876  -4.289   0.487  0.00  0.00    +0.050 A 
ATOM      5  C   UNL     1       0.570  -2.972   0.838  0.00  0.00    +0.050 A 
ATOM      6  C   UNL     1       1.260  -2.158  -0.016  0.00  0.00    +0.138 A 
ATOM      7  O   UNL     1       1.963  -2.923  -0.869  0.00  0.00    -0.455 OA
BRANCH   6   8
ATOM      8  C   UNL     1       1.232  -0.682  -0.007  0.00  0.00    +0.047 A 
ATOM      9  C   UNL     1       0.011  -0.003   0.011  0.00  0.00    +0.014 A 
ATOM     10  C   UNL     1      -0.006   1.376   0.019  0.00  0.00    +0.001 A 
ATOM     11  C   UNL     1       1.181   2.087   0.009  0.00  0.00    +0.002 A 
ATOM     12  C   UNL     1       2.394   1.421  -0.008  0.00  0.00    +0.033 A 
ATOM     13  C   UNL     1       2.427   0.042  -0.016  0.00  0.00    +0.137 A 
BRANCH  13  14
ATOM     14  N   UNL     1       3.725  -0.669  -0.034  0.00  0.00    +0.057 N 
ATOM     15  O   UNL     1       4.766  -0.036  -0.042  0.00  0.00    -0.126 OA
ATOM     16  O   UNL     1       3.753  -1.886  -0.041  0.00  0.00    -0.126 OA
ENDBRANCH  13  14
ENDBRANCH   6   8
ENDBRANCH   2   3
BRANCH   1  18
ATOM     17  N   UNL     1       4.584  -6.024  -4.003  0.00  0.00    -0.267 N 
ATOM     18  C   UNL     1       3.740  -6.227  -2.971  0.00  0.00    +0.242 C 
ATOM     19  O   UNL     1       3.469  -7.361  -2.621  0.00  0.00    -0.270 OA
ATOM     20  H   UNL     1       4.743  -5.124  -4.329  0.00  0.00    +0.157 HD
BRANCH  17  26
ATOM     21  C   UNL     1       5.133 -10.772  -4.296  0.00  0.00    +0.067 C 
ATOM     22  C   UNL     1       5.511  -9.389  -4.761  0.00  0.00    +0.053 A 
ATOM     23  C   UNL     1       6.466  -9.240  -5.748  0.00  0.00    +0.034 A 
ATOM     24  C   UNL     1       6.811  -7.963  -6.173  0.00  0.00    +0.019 A 
ATOM     25  C   UNL     1       6.176  -6.880  -5.591  0.00  0.00    +0.045 A 
ATOM     26  C   UNL     1       5.227  -7.105  -4.600  0.00  0.00    +0.125 A 
ATOM     27  N   UNL     1       4.926  -8.338  -4.222  0.00  0.00    -0.236 NA
ATOM     28  I   UNL     1       7.385 -10.921  -6.595  0.00  0.00    -0.042 I 
ENDBRANCH  17  26
ENDBRANCH   1  18
TORSDOF 5
