REMARK  Name = ZINC67481884
REMARK  7 active torsions:
REMARK  status: ('A' for Active; 'I' for Inactive)
REMARK    1  A    between atoms: C_1  and  C_2
REMARK    2  A    between atoms: C_2  and  N_3
REMARK    3  A    between atoms: C_4  and  C_6
REMARK    4  A    between atoms: N_15  and  C_16
REMARK    5  A    between atoms: C_16  and  C_17
REMARK    6  A    between atoms: N_22  and  C_23
REMARK    7  A    between atoms: C_23  and  C_24
REMARK                            x       y       z     vdW  Elec       q    Type
REMARK                         _______ _______ _______ _____ _____    ______ ____
ROOT
ATOM      1  C   UNL     1       1.537  -1.578  -2.948  0.00  0.00    +0.092 C 
ATOM      2  C   UNL     1       1.453  -3.101  -2.830  0.00  0.00    +0.016 C 
ATOM      3  C   UNL     1       2.193  -3.747  -4.004  0.00  0.00    +0.020 C 
ATOM      4  C   UNL     1       1.525  -3.326  -5.317  0.00  0.00    +0.109 C 
ATOM      5  N   UNL     1       1.472  -1.859  -5.371  0.00  0.00    -0.285 N 
ATOM      6  C   UNL     1       0.863  -1.132  -4.249  0.00  0.00    +0.122 C 
ATOM      7  C   UNL     1       1.973  -1.192  -6.430  0.00  0.00    +0.302 C 
ATOM      8  O   UNL     1       1.843   0.014  -6.505  0.00  0.00    -0.253 OA
ATOM      9  N   UNL     1       2.618  -1.863  -7.405  0.00  0.00    -0.301 N 
ATOM     10  H   UNL     1       2.657  -2.832  -7.383  0.00  0.00    +0.150 HD
ENDROOT
BRANCH   1  12
ATOM     11  N   UNL     1       0.782   0.399  -1.668  0.00  0.00    -0.315 N 
ATOM     12  C   UNL     1       0.836  -0.943  -1.775  0.00  0.00    +0.218 C 
ATOM     13  O   UNL     1       0.321  -1.640  -0.927  0.00  0.00    -0.275 OA
ATOM     14  H   UNL     1       1.194   0.957  -2.346  0.00  0.00    +0.149 HD
BRANCH  11  16
ATOM     15  C   UNL     1       0.184   2.539  -0.646  0.00  0.00    +0.024 C 
ATOM     16  C   UNL     1       0.101   1.016  -0.527  0.00  0.00    +0.101 C 
ENDBRANCH  11  16
ENDBRANCH   1  12
BRANCH   9  17
ATOM     17  C   UNL     1       3.258  -1.129  -8.499  0.00  0.00    +0.090 C 
BRANCH  17  18
ATOM     18  C   UNL     1       3.914  -2.119  -9.463  0.00  0.00    -0.051 C 
ATOM     19  C   UNL     1       4.733  -1.355 -10.524  0.00  0.00    -0.016 C 
ATOM     20  C   UNL     1       6.176  -1.409  -9.957  0.00  0.00    -0.020 C 
ATOM     21  C   UNL     1       6.203  -2.813  -9.303  0.00  0.00    -0.078 C 
ATOM     22  N   UNL     1       4.849  -2.991  -8.728  0.00  0.00    +0.383 N 
ATOM     23  H   UNL     1       4.857  -2.734  -7.753  0.00  0.00    -0.081 HD
BRANCH  22  24
ATOM     24  C   UNL     1       4.430  -4.392  -8.865  0.00  0.00    -0.075 C 
BRANCH  24  25
ATOM     25  C   UNL     1       5.331  -5.280  -8.004  0.00  0.00    -0.028 C 
ATOM     26  C   UNL     1       4.991  -6.750  -8.258  0.00  0.00    +0.002 C 
ATOM     27  C   UNL     1       5.892  -7.638  -7.397  0.00  0.00    +0.000 C 
ATOM     28  C   UNL     1       5.668  -7.311  -5.920  0.00  0.00    +0.000 C 
ATOM     29  C   UNL     1       6.008  -5.840  -5.666  0.00  0.00    +0.000 C 
ATOM     30  C   UNL     1       5.107  -4.953  -6.527  0.00  0.00    +0.002 C 
ENDBRANCH  24  25
ENDBRANCH  22  24
ENDBRANCH  17  18
ENDBRANCH   9  17
TORSDOF 6
