REMARK  Name = ZINC38570861
REMARK  9 active torsions:
REMARK  status: ('A' for Active; 'I' for Inactive)
REMARK    1  A    between atoms: C_7  and  C_10
REMARK    2  A    between atoms: C_10  and  C_11
REMARK    3  A    between atoms: C_11  and  C_13
REMARK    4  A    between atoms: C_11  and  N_26
REMARK    5  A    between atoms: N_15  and  CA_16
REMARK    6  A    between atoms: CA_16  and  CB_18
REMARK    7  A    between atoms: CA_16  and  C_23
REMARK    8  A    between atoms: CB_18  and  CG_19
REMARK    9  A    between atoms: CG_19  and  CD_20
REMARK                            x       y       z     vdW  Elec       q    Type
REMARK                         _______ _______ _______ _____ _____    ______ ____
ROOT
ATOM      1  C   UNK A   0      -4.437   3.680  -1.374  0.00  0.00    +0.176 C 
ENDROOT
BRANCH   1   2
ATOM      2  N   UNK A   0      -5.416   2.895  -2.131  0.00  0.00    -0.211 N 
ATOM      3  C   UNK A   0      -5.020   2.215  -3.225  0.00  0.00    +0.236 C 
ATOM      4  O   UNK A   0      -3.850   2.204  -3.543  0.00  0.00    -0.274 OA
ATOM      5  C   UNK A   0      -6.025   1.474  -4.047  0.00  0.00    +0.144 C 
ATOM      6  C   UNK A   0      -5.508   0.186  -4.598  0.00  0.00    -0.008 C 
ATOM      7  C   UNK A   0      -6.306  -0.874  -4.739  0.00  0.00    -0.003 C 
ATOM      8  C   UNK A   0      -7.669  -0.826  -4.367  0.00  0.00    +0.001 C 
ATOM      9  C   UNK A   0      -8.161   0.218  -3.650  0.00  0.00    +0.022 C 
ATOM     10  C   UNK A   0      -7.299   1.260  -3.286  0.00  0.00    +0.051 C 
ATOM     11  N   UNK A   0      -7.582   2.002  -2.237  0.00  0.00    -0.166 NA
ATOM     12  C   UNK A   0      -6.695   2.859  -1.722  0.00  0.00    +0.333 C 
ATOM     13  O   UNK A   0      -7.060   3.634  -0.858  0.00  0.00    -0.250 OA
ENDBRANCH   1   2
BRANCH   1  14
ATOM     14  C   UNK A   0      -4.860   5.126  -1.353  0.00  0.00    +0.235 C 
ATOM     15  O   UNK A   0      -6.014   5.423  -1.579  0.00  0.00    -0.274 OA
ATOM     16  N   GLU A   1      -3.957   6.089  -1.083  0.00  0.00    -0.301 N 
ATOM     17  H   GLU A   1      -3.034   5.851  -0.902  0.00  0.00    +0.150 HD
BRANCH  16  18
ATOM     18  CA  GLU A   1      -4.368   7.495  -1.063  0.00  0.00    +0.187 C 
BRANCH  18  19
ATOM     19  C   GLU A   1      -4.327   8.050  -2.464  0.00  0.00    +0.376 C 
ATOM     20  O   GLU A   1      -5.094   8.941  -2.789  0.00  0.00    -0.244 OA
ATOM     21  OXT GLU A   1      -3.527   7.609  -3.271  0.00  0.00    -0.244 OA
ENDBRANCH  18  19
BRANCH  18  22
ATOM     22  CB  GLU A   1      -3.416   8.292  -0.170  0.00  0.00    +0.045 C 
BRANCH  22  23
ATOM     23  CG  GLU A   1      -3.549   7.811   1.276  0.00  0.00    +0.127 C 
BRANCH  23  24
ATOM     24  CD  GLU A   1      -2.611   8.597   2.155  0.00  0.00    +0.356 C 
ATOM     25  OE1 GLU A   1      -1.901   9.461   1.671  0.00  0.00    -0.246 OA
ATOM     26  OE2 GLU A   1      -2.562   8.367   3.352  0.00  0.00    -0.246 OA
ENDBRANCH  23  24
ENDBRANCH  22  23
ENDBRANCH  18  22
ENDBRANCH  16  18
ENDBRANCH   1  14
BRANCH   1  27
ATOM     27  C   UNK A   0      -4.358   3.151   0.060  0.00  0.00    +0.069 C 
BRANCH  27  34
ATOM     28  C   UNK A   0      -0.017   1.384   0.010  0.00  0.00    +0.001 A 
ATOM     29  C   UNK A   0       0.002  -0.004   0.002  0.00  0.00    +0.002 A 
ATOM     30  C   UNK A   0      -1.173  -0.723   0.009  0.00  0.00    +0.026 A 
ATOM     31  C   UNK A   0      -2.392  -0.053   0.024  0.00  0.00    +0.047 A 
ATOM     32  N   UNK A   0      -3.704  -0.472   0.034  0.00  0.00    -0.360 N 
ATOM     33  C   UNK A   0      -4.539   0.612   0.047  0.00  0.00    +0.087 A 
ATOM     34  C   UNK A   0      -3.818   1.744   0.047  0.00  0.00    -0.020 A 
ATOM     35  C   UNK A   0      -2.406   1.353   0.032  0.00  0.00    +0.003 A 
ATOM     36  C   UNK A   0      -1.203   2.062   0.030  0.00  0.00    +0.010 A 
ATOM     37  H   UNK A   0      -3.993  -1.398   0.030  0.00  0.00    +0.165 HD
ENDBRANCH  27  34
ENDBRANCH   1  27
TORSDOF 9
