REMARK  Name = ZINC11905382
REMARK  8 active torsions:
REMARK  status: ('A' for Active; 'I' for Inactive)
REMARK    1  A    between atoms: C_1  and  O_2
REMARK    2  A    between atoms: O_2  and  C_3
REMARK    3  A    between atoms: C_8  and  C_9
REMARK    4  A    between atoms: C_9  and  C_11
REMARK    5  A    between atoms: C_9  and  N_57
REMARK    6  A    between atoms: C_11  and  N_12
REMARK    7  A    between atoms: C_13  and  C_15
REMARK    8  A    between atoms: C_17  and  C_20
REMARK                            x       y       z     vdW  Elec       q    Type
REMARK                         _______ _______ _______ _____ _____    ______ ____
ROOT
ATOM      1  C   UNL     1       0.862  -2.726  -1.433  0.00  0.00    +0.094 C 
ENDROOT
BRANCH   1   2
ATOM      2  N   UNL     1       0.750  -4.186  -1.399  0.00  0.00    -0.311 N 
ATOM      3  C   UNL     1       0.343  -4.857  -2.495  0.00  0.00    +0.266 C 
ATOM      4  O   UNL     1       0.069  -4.250  -3.512  0.00  0.00    -0.268 OA
ATOM      5  H   UNL     1       0.969  -4.671  -0.588  0.00  0.00    +0.149 HD
BRANCH   3   6
ATOM      6  C   UNL     1       0.230  -6.336  -2.461  0.00  0.00    +0.168 A 
ATOM      7  C   UNL     1      -0.187  -7.182  -3.521  0.00  0.00    +0.086 A 
ATOM      8  C   UNL     1      -0.115  -8.437  -2.984  0.00  0.00    +0.168 A 
ATOM      9  O   UNL     1       0.304  -8.283  -1.716  0.00  0.00    -0.354 OA
ATOM     10  N   UNL     1       0.489  -7.120  -1.444  0.00  0.00    -0.073 NA
BRANCH   8  11
ATOM     11  C   UNL     1      -0.440  -9.711  -3.662  0.00  0.00    +0.020 A 
ATOM     12  C   UNL     1      -0.871  -9.708  -4.989  0.00  0.00    +0.013 A 
ATOM     13  C   UNL     1      -1.167 -10.899  -5.618  0.00  0.00    +0.016 A 
ATOM     14  C   UNL     1      -1.048 -12.096  -4.931  0.00  0.00    +0.018 A 
ATOM     15  C   UNL     1      -0.626 -12.104  -3.612  0.00  0.00    +0.016 A 
ATOM     16  C   UNL     1      -0.322 -10.920  -2.975  0.00  0.00    +0.013 A 
ATOM     17 BR   UNL     1      -1.463 -13.724  -5.798  0.00  0.00    -0.050 Br
ENDBRANCH   8  11
ENDBRANCH   3   6
ENDBRANCH   1   2
BRANCH   1  18
ATOM     18  C   UNL     1       1.513  -2.234  -0.139  0.00  0.00    -0.017 C 
BRANCH  18  24
ATOM     19  C   UNL     1       3.545  -2.551  -1.416  0.00  0.00    -0.078 C 
ATOM     20  C   UNL     1       5.035  -2.881  -1.303  0.00  0.00    -0.019 C 
ATOM     21  C   UNL     1       5.199  -4.307  -0.771  0.00  0.00    -0.004 C 
ATOM     22  C   UNL     1       4.490  -4.424   0.581  0.00  0.00    -0.019 C 
ATOM     23  C   UNL     1       3.016  -4.050   0.413  0.00  0.00    -0.078 C 
ATOM     24  N   UNL     1       2.927  -2.658  -0.077  0.00  0.00    +0.385 N 
ATOM     25  H   UNL     1       3.431  -2.043   0.573  0.00  0.00    -0.081 HD
ENDBRANCH  18  24
BRANCH  18  31
ATOM     26  C   UNL     1       0.269  -0.086   0.214  0.00  0.00    +0.122 A 
ATOM     27  C   UNL     1       0.224   1.300   0.258  0.00  0.00    +0.046 A 
ATOM     28  C   UNL     1       1.363   2.036  -0.001  0.00  0.00    +0.004 A 
ATOM     29  C   UNL     1       2.549   1.393  -0.303  0.00  0.00    +0.000 A 
ATOM     30  C   UNL     1       2.597   0.012  -0.349  0.00  0.00    +0.005 A 
ATOM     31  C   UNL     1       1.460  -0.729  -0.090  0.00  0.00    -0.018 A 
BRANCH  26  33
ATOM     32  C   UNL     1      -2.041  -0.083   0.776  0.00  0.00    +0.277 C 
ATOM     33  O   UNL     1      -0.851  -0.812   0.469  0.00  0.00    -0.495 OA
ENDBRANCH  26  33
ENDBRANCH  18  31
ENDBRANCH   1  18
TORSDOF 7
