REMARK  Name = ZINC25142198
REMARK  6 active torsions:
REMARK  status: ('A' for Active; 'I' for Inactive)
REMARK    1  A    between atoms: C_1  and  N_2
REMARK    2  A    between atoms: N_2  and  C_3
REMARK    3  A    between atoms: N_2  and  C_4
REMARK    4  A    between atoms: C_7  and  C_10
REMARK    5  A    between atoms: C_10  and  C_11
REMARK    6  A    between atoms: N_23  and  C_28
REMARK                            x       y       z     vdW  Elec       q    Type
REMARK                         _______ _______ _______ _____ _____    ______ ____
ROOT
ATOM      1  C   UNL     1      -1.372   4.889   1.082  0.00  0.00    +0.220 C 
ATOM      2  O   UNL     1      -0.950   6.014   1.249  0.00  0.00    -0.275 OA
ATOM      3  N   UNL     1      -0.735   4.048   0.243  0.00  0.00    -0.296 N 
ATOM      4  C   UNL     1       0.473   4.465  -0.484  0.00  0.00    +0.113 C 
ATOM      5  C   UNL     1       1.665   3.625  -0.021  0.00  0.00    +0.056 C 
ATOM      6  C   UNL     1       1.272   2.152  -0.023  0.00  0.00    -0.020 A 
ATOM      7  C   UNL     1      -0.026   1.774   0.001  0.00  0.00    +0.013 A 
ATOM      8  S   UNL     1       0.009   0.002  -0.001  0.00  0.00    -0.073 S 
ATOM      9  C   UNL     1       1.705  -0.233  -0.036  0.00  0.00    +0.094 A 
ATOM     10  C   UNL     1       2.238   1.066  -0.045  0.00  0.00    +0.074 A 
ATOM     11  C   UNL     1       3.714   1.190  -0.076  0.00  0.00    +0.270 A 
ATOM     12  O   UNL     1       4.270   2.273  -0.086  0.00  0.00    -0.266 OA
ATOM     13  N   UNL     1       4.407   0.028  -0.092  0.00  0.00    -0.226 N 
ATOM     14  C   UNL     1       3.828  -1.180  -0.081  0.00  0.00    +0.335 A 
ATOM     15  O   UNL     1       4.542  -2.165  -0.097  0.00  0.00    -0.246 OA
ATOM     16  N   UNL     1       2.484  -1.358  -0.054  0.00  0.00    -0.301 N 
ATOM     17  H   UNL     1       2.014  -2.352  -0.046  0.00  0.00    +0.171 HD
ATOM     18  C   UNL     1      -1.224   2.673   0.019  0.00  0.00    +0.150 C 
ENDROOT
BRANCH  13  19
ATOM     19  C   UNL     1       5.809   0.092  -0.120  0.00  0.00    +0.090 A 
ATOM     20  C   UNL     1       6.527   0.122   1.066  0.00  0.00    +0.032 A 
ATOM     21  C   UNL     1       7.907   0.185   1.036  0.00  0.00    +0.040 A 
ATOM     22  C   UNL     1       8.574   0.218  -0.177  0.00  0.00    +0.126 A 
ATOM     23  C   UNL     1       7.861   0.189  -1.363  0.00  0.00    +0.078 A 
ATOM     24  C   UNL     1       6.479   0.120  -1.338  0.00  0.00    +0.150 A 
ATOM     25  F   UNL     1       5.783   0.085  -2.495  0.00  0.00    -0.203 F 
ATOM     26  F   UNL     1       9.924   0.280  -0.203  0.00  0.00    -0.205 F 
ENDBRANCH  13  19
BRANCH   1  27
ATOM     27  C   UNL     1      -2.608   4.432   1.813  0.00  0.00    +0.131 C 
BRANCH  27  31
ATOM     28  C   UNL     1      -4.066   7.610   4.272  0.00  0.00    +0.029 A 
ATOM     29  C   UNL     1      -4.511   7.483   2.962  0.00  0.00    +0.023 A 
ATOM     30  C   UNL     1      -4.037   6.455   2.170  0.00  0.00    +0.006 A 
ATOM     31  C   UNL     1      -3.122   5.553   2.680  0.00  0.00    -0.039 A 
ATOM     32  C   UNL     1      -2.682   5.673   3.986  0.00  0.00    +0.006 A 
ATOM     33  C   UNL     1      -3.146   6.702   4.781  0.00  0.00    +0.023 A 
BRANCH  28  35
ATOM     34  C   UNL     1      -5.413   9.678   4.502  0.00  0.00    +0.129 C 
ATOM     35  N   UNL     1      -4.542   8.649   5.075  0.00  0.00    -0.336 N 
ATOM     36  C   UNL     1      -4.170   8.709   6.491  0.00  0.00    +0.129 C 
ENDBRANCH  28  35
ENDBRANCH  27  31
ENDBRANCH   1  27
TORSDOF 4
