REMARK  Name = ZINC08451179
REMARK  11 active torsions:
REMARK  status: ('A' for Active; 'I' for Inactive)
REMARK    1  A    between atoms: C_1  and  C_2
REMARK    2  A    between atoms: C_2  and  O_3
REMARK    3  A    between atoms: O_3  and  C_4
REMARK    4  A    between atoms: C_4  and  C_6
REMARK    5  A    between atoms: C_7  and  C_23
REMARK    6  A    between atoms: C_9  and  N_22
REMARK    7  A    between atoms: C_10  and  C_20
REMARK    8  A    between atoms: C_11  and  C_13
REMARK    9  A    between atoms: C_23  and  S_24
REMARK   10  A    between atoms: S_24  and  C_25
REMARK   11  A    between atoms: C_26  and  C_37
REMARK                            x       y       z     vdW  Elec       q    Type
REMARK                         _______ _______ _______ _____ _____    ______ ____
ROOT
ATOM      1  C   UNL     1      -1.290   5.001   7.736  0.00  0.00    +0.088 C 
ATOM      2  C   UNL     1      -1.794   5.380   6.555  0.00  0.00    +0.128 C 
ATOM      3  O   UNL     1      -2.742   6.322   6.449  0.00  0.00    -0.444 OA
ATOM      4  C   UNL     1      -3.485   6.632   7.529  0.00  0.00    +0.198 C 
ATOM      5  C   UNL     1      -3.079   6.327   8.785  0.00  0.00    +0.098 C 
ATOM      6  C   UNL     1      -1.773   5.617   9.021  0.00  0.00    +0.105 C 
ENDROOT
BRANCH   6   7
ATOM      7  C   UNL     1      -0.750   6.605   9.519  0.00  0.00    -0.032 A 
ATOM      8  C   UNL     1      -0.161   6.425  10.757  0.00  0.00    +0.005 A 
ATOM      9  C   UNL     1       0.777   7.330  11.215  0.00  0.00    +0.003 A 
ATOM     10  C   UNL     1       1.129   8.416  10.436  0.00  0.00    +0.038 A 
ATOM     11  C   UNL     1       0.540   8.597   9.196  0.00  0.00    +0.124 A 
ATOM     12  C   UNL     1      -0.396   7.687   8.736  0.00  0.00    +0.043 A 
ATOM     13  F   UNL     1       0.883   9.658   8.433  0.00  0.00    -0.205 F 
ENDBRANCH   6   7
BRANCH   4  14
ATOM     14  N   UNL     1      -4.683   7.278   7.352  0.00  0.00    -0.328 N 
ATOM     15  H   UNL     1      -5.226   7.510   8.121  0.00  0.00    +0.145 HD
ATOM     16  H   UNL     1      -4.986   7.502   6.458  0.00  0.00    +0.145 HD
ENDBRANCH   4  14
BRANCH   1  17
ATOM     17  C   UNL     1      -0.285   4.004   7.777  0.00  0.00    +0.339 C 
ATOM     18  O   UNL     1      -0.577   2.856   8.057  0.00  0.00    -0.245 OA
BRANCH  17  19
ATOM     19  O   UNL     1       0.997   4.326   7.505  0.00  0.00    -0.462 OA
BRANCH  19  21
ATOM     20  C   UNL     1       3.345   3.824   7.229  0.00  0.00    +0.048 C 
ATOM     21  C   UNL     1       1.958   3.271   7.565  0.00  0.00    +0.229 C 
ENDBRANCH  19  21
ENDBRANCH  17  19
ENDBRANCH   1  17
BRANCH   5  22
ATOM     22  C   UNL     1      -3.902   6.685   9.901  0.00  0.00    +0.101 C 
ATOM     23  N   UNL     1      -4.554   6.970  10.786  0.00  0.00    -0.191 NA
ENDBRANCH   5  22
BRANCH   2  24
ATOM     24  C   UNL     1      -1.273   4.729   5.299  0.00  0.00    +0.150 C 
BRANCH  24  25
ATOM     25  S   UNL     1      -2.494   3.543   4.684  0.00  0.00    -0.097 S 
BRANCH  25  26
ATOM     26  C   UNL     1      -1.651   2.949   3.255  0.00  0.00    +0.115 A 
ATOM     27  C   UNL     1      -2.256   1.974   2.442  0.00  0.00    +0.084 A 
ATOM     28  C   UNL     1      -1.571   1.519   1.308  0.00  0.00    +0.027 A 
ATOM     29  C   UNL     1      -0.327   2.053   1.044  0.00  0.00    -0.025 A 
ATOM     30  C   UNL     1       0.205   3.008   1.896  0.00  0.00    +0.046 A 
ATOM     31  N   UNL     1      -0.456   3.426   2.953  0.00  0.00    -0.244 NA
ATOM     32  C   UNL     1       1.574   3.538   1.557  0.00  0.00    +0.056 C 
ATOM     33  C   UNL     1       1.527   4.631   0.538  0.00  0.00    +0.006 C 
ATOM     34  C   UNL     1       1.368   4.247  -0.918  0.00  0.00    +0.000 C 
ATOM     35  C   UNL     1      -0.086   3.829  -1.208  0.00  0.00    +0.000 C 
ATOM     36  C   UNL     1      -0.105   2.288  -1.404  0.00  0.00    +0.005 C 
ATOM     37  C   UNL     1       0.476   1.626  -0.155  0.00  0.00    +0.037 C 
BRANCH  27  38
ATOM     38  C   UNL     1      -3.551   1.456   2.768  0.00  0.00    +0.102 C 
ATOM     39  N   UNL     1      -4.578   1.044   3.026  0.00  0.00    -0.191 NA
ENDBRANCH  27  38
ENDBRANCH  25  26
ENDBRANCH  24  25
ENDBRANCH   2  24
TORSDOF 10
