REMARK  Name = ZINC01130222
REMARK  10 active torsions:
REMARK  status: ('A' for Active; 'I' for Inactive)
REMARK    1  A    between atoms: C_1  and  C_2
REMARK    2  A    between atoms: C_2  and  O_3
REMARK    3  A    between atoms: O_3  and  C_4
REMARK    4  A    between atoms: C_4  and  C_6
REMARK    5  A    between atoms: C_7  and  C_34
REMARK    6  A    between atoms: C_11  and  C_13
REMARK    7  A    between atoms: C_15  and  O_21
REMARK    8  A    between atoms: C_16  and  O_20
REMARK    9  A    between atoms: O_21  and  C_22
REMARK   10  A    between atoms: C_26  and  C_29
REMARK                            x       y       z     vdW  Elec       q    Type
REMARK                         _______ _______ _______ _____ _____    ______ ____
ROOT
ATOM      1  C   UNL     1       0.124  -0.677   1.159  0.00  0.00    +0.065 C 
ATOM      2  C   UNL     1      -0.234  -0.027   0.038  0.00  0.00    +0.016 C 
ATOM      3  N   UNL     1      -0.350  -0.701  -1.145  0.00  0.00    -0.321 N 
ATOM      4  C   UNL     1       0.267  -1.912  -1.320  0.00  0.00    +0.016 C 
ATOM      5  C   UNL     1       0.646  -2.647  -0.253  0.00  0.00    +0.024 C 
ATOM      6  C   UNL     1       0.402  -2.151   1.150  0.00  0.00    +0.092 C 
ATOM      7  C   UNL     1       1.275  -3.894  -0.417  0.00  0.00    +0.162 C 
ATOM      8  O   UNL     1       1.618  -4.523   0.564  0.00  0.00    -0.292 OA
ATOM      9  C   UNL     1       1.531  -4.462  -1.786  0.00  0.00    +0.091 C 
ATOM     10  C   UNL     1       0.468  -3.930  -2.753  0.00  0.00    +0.068 C 
ATOM     11  C   UNL     1       0.509  -2.401  -2.726  0.00  0.00    +0.062 C 
ATOM     12  C   UNL     1      -0.515   1.453   0.088  0.00  0.00    +0.061 C 
ATOM     13  H   UNL     1      -0.943  -0.272  -1.966  0.00  0.00    +0.152 HD
ENDROOT
BRANCH   6  14
ATOM     14  C   UNL     1      -0.780  -2.881   1.734  0.00  0.00    -0.030 A 
ATOM     15  C   UNL     1      -0.618  -3.664   2.862  0.00  0.00    +0.054 A 
ATOM     16  C   UNL     1      -1.704  -4.337   3.400  0.00  0.00    +0.163 A 
ATOM     17  C   UNL     1      -2.955  -4.222   2.804  0.00  0.00    +0.177 A 
ATOM     18  C   UNL     1      -3.111  -3.435   1.673  0.00  0.00    +0.086 A 
ATOM     19  C   UNL     1      -2.024  -2.762   1.144  0.00  0.00    +0.028 A 
ATOM     20 CL   UNL     1      -4.671  -3.289   0.925  0.00  0.00    -0.080 Cl
BRANCH  17  21
ATOM     21  O   UNL     1      -4.024  -4.879   3.329  0.00  0.00    -0.502 OA
ATOM     22  H   UNL     1      -5.013  -4.788   2.856  0.00  0.00    +0.292 HD
ENDBRANCH  17  21
BRANCH  16  23
ATOM     23  O   UNL     1      -1.546  -5.108   4.509  0.00  0.00    -0.491 OA
ATOM     24  C   UNL     1      -0.232  -5.180   5.068  0.00  0.00    +0.277 C 
ENDBRANCH  16  23
ENDBRANCH   6  14
BRANCH  10  25
ATOM     25  C   UNL     1       0.761  -4.420  -4.148  0.00  0.00    +0.109 A 
ATOM     26  C   UNL     1      -0.061  -5.163  -4.910  0.00  0.00    +0.045 A 
ATOM     27  C   UNL     1       0.610  -5.393  -6.133  0.00  0.00    +0.041 A 
ATOM     28  C   UNL     1       1.802  -4.777  -6.045  0.00  0.00    +0.195 A 
ATOM     29  O   UNL     1       1.886  -4.184  -4.843  0.00  0.00    -0.468 OA
ENDBRANCH  10  25
BRANCH   1  30
ATOM     30  C   UNL     1       0.241   0.044   2.371  0.00  0.00    +0.338 C 
ATOM     31  O   UNL     1       0.139   1.256   2.370  0.00  0.00    -0.245 OA
BRANCH  30  32
ATOM     32  O   UNL     1       0.465  -0.614   3.528  0.00  0.00    -0.462 OA
BRANCH  32  34
ATOM     33  C   UNL     1       0.824  -0.736   5.915  0.00  0.00    +0.048 C 
ATOM     34  C   UNL     1       0.572   0.177   4.714  0.00  0.00    +0.229 C 
ENDBRANCH  32  34
ENDBRANCH  30  32
ENDBRANCH   1  30
TORSDOF 7
