REMARK  Name = ZINC40399664
REMARK  9 active torsions:
REMARK  status: ('A' for Active; 'I' for Inactive)
REMARK    1  A    between atoms: C_1  and  C_2
REMARK    2  A    between atoms: C_2  and  C_3
REMARK    3  A    between atoms: C_3  and  C_5
REMARK    4  A    between atoms: C_3  and  N_6
REMARK    5  A    between atoms: C_9  and  C_27
REMARK    6  A    between atoms: N_15  and  S_18
REMARK    7  A    between atoms: S_18  and  C_21
REMARK    8  A    between atoms: C_27  and  C_28
REMARK    9  A    between atoms: C_27  and  C_29
REMARK                            x       y       z     vdW  Elec       q    Type
REMARK                         _______ _______ _______ _____ _____    ______ ____
ROOT
ATOM      1  N   UNL     1      -0.030  -0.122  -2.459  0.00  0.00    -0.311 N 
ATOM      2  C   UNL     1      -1.323  -0.424  -2.698  0.00  0.00    +0.201 C 
ATOM      3  O   UNL     1      -2.052  -1.051  -1.959  0.00  0.00    -0.277 OA
ATOM      4  C   UNL     1      -1.710   0.152  -4.043  0.00  0.00    +0.022 C 
ATOM      5  N   UNL     1      -0.651   1.144  -4.348  0.00  0.00    +0.401 N 
ATOM      6  C   UNL     1       0.510   0.643  -3.586  0.00  0.00    +0.006 C 
ATOM      7  C   UNL     1       1.341   1.820  -3.077  0.00  0.00    +0.023 C 
ATOM      8  C   UNL     1       2.523   1.290  -2.259  0.00  0.00    +0.109 C 
ATOM      9  N   UNL     1       3.268   0.322  -3.076  0.00  0.00    -0.177 NA
ATOM     10  C   UNL     1       2.541  -0.806  -3.674  0.00  0.00    +0.109 C 
ATOM     11  C   UNL     1       1.359  -0.259  -4.480  0.00  0.00    +0.023 C 
ATOM     12  H   UNL     1      -0.452   1.160  -5.337  0.00  0.00    -0.082 HD
ATOM     13  H   UNL     1      -0.918   2.061  -4.023  0.00  0.00    -0.082 HD
ENDROOT
BRANCH   9  14
ATOM     14  S   UNL     1       4.896   0.500  -3.319  0.00  0.00    +0.061 S 
ATOM     15  O   UNL     1       5.204  -0.186  -4.525  0.00  0.00    -0.153 OA
ATOM     16  O   UNL     1       5.187   1.878  -3.131  0.00  0.00    -0.153 OA
BRANCH  14  17
ATOM     17  C   UNL     1       5.714  -0.369  -2.022  0.00  0.00    +0.105 A 
ATOM     18  C   UNL     1       6.021   0.281  -0.842  0.00  0.00    +0.028 A 
ATOM     19  C   UNL     1       6.663  -0.401   0.175  0.00  0.00    +0.002 A 
ATOM     20  C   UNL     1       6.997  -1.732   0.012  0.00  0.00    +0.000 A 
ATOM     21  C   UNL     1       6.689  -2.382  -1.169  0.00  0.00    +0.002 A 
ATOM     22  C   UNL     1       6.043  -1.702  -2.184  0.00  0.00    +0.028 A 
ENDBRANCH  14  17
ENDBRANCH   9  14
BRANCH   4  23
ATOM     23  C   UNL     1      -3.076   0.835  -3.957  0.00  0.00    -0.023 C 
ATOM     24  C   UNL     1      -4.138  -0.194  -3.565  0.00  0.00    +0.006 C 
ATOM     25  C   UNL     1      -3.026   1.943  -2.903  0.00  0.00    +0.006 C 
ENDBRANCH   4  23
BRANCH   1  26
ATOM     26  C   UNL     1       0.718  -0.497  -1.257  0.00  0.00    +0.071 C 
ATOM     27  C   UNL     1       0.460  -1.970  -0.934  0.00  0.00    +0.028 C 
BRANCH  26  29
ATOM     28  C   UNL     1       0.634   1.829  -0.351  0.00  0.00    +0.005 C 
ATOM     29  C   UNL     1       0.262   0.370  -0.082  0.00  0.00    +0.019 C 
ENDBRANCH  26  29
ENDBRANCH   1  26
TORSDOF 5
