REMARK  Name = ZINC04848437
REMARK  6 active torsions:
REMARK  status: ('A' for Active; 'I' for Inactive)
REMARK    1  A    between atoms: C_1  and  C_2
REMARK    2  A    between atoms: C_9  and  C_22
REMARK    3  A    between atoms: C_10  and  N_11
REMARK    4  A    between atoms: N_11  and  C_12
REMARK    5  A    between atoms: C_12  and  C_13
REMARK    6  A    between atoms: C_25  and  O_28
REMARK                            x       y       z     vdW  Elec       q    Type
REMARK                         _______ _______ _______ _____ _____    ______ ____
ROOT
ATOM      1  C   UNL     1      -0.018   1.503   0.010  0.00  0.00    +0.047 C 
ATOM      2  C   UNL     1       0.002  -0.004   0.002  0.00  0.00    -0.009 A 
ATOM      3  C   UNL     1       0.006  -0.684  -1.175  0.00  0.00    +0.008 A 
ATOM      4  C   UNL     1       0.025  -2.090  -1.171  0.00  0.00    +0.018 A 
ATOM      5  C   UNL     1       0.039  -2.767  -0.005  0.00  0.00    +0.094 A 
ATOM      6  N   UNL     1       0.035  -2.099   1.189  0.00  0.00    -0.289 N 
ATOM      7  C   UNL     1       0.023  -0.723   1.216  0.00  0.00    +0.120 A 
ATOM      8  N   UNL     1       0.030  -0.326   2.478  0.00  0.00    -0.338 N 
ATOM      9  C   UNL     1       0.052  -1.405   3.282  0.00  0.00    +0.087 A 
ATOM     10  C   UNL     1       0.047  -2.531   2.486  0.00  0.00    +0.129 A 
ATOM     11  H   UNL     1       0.021   0.597   2.777  0.00  0.00    +0.167 HD
ENDROOT
BRANCH   9  12
ATOM     12  C   UNL     1       0.067  -1.386   4.764  0.00  0.00    +0.002 A 
ATOM     13  C   UNL     1       0.943  -2.215   5.465  0.00  0.00    +0.013 A 
ATOM     14  C   UNL     1       0.954  -2.194   6.844  0.00  0.00    +0.046 A 
ATOM     15  C   UNL     1       0.095  -1.351   7.534  0.00  0.00    +0.117 A 
ATOM     16  C   UNL     1      -0.779  -0.525   6.840  0.00  0.00    +0.046 A 
ATOM     17  C   UNL     1      -0.791  -0.536   5.461  0.00  0.00    +0.013 A 
BRANCH  15  18
ATOM     18  O   UNL     1       0.108  -1.334   8.893  0.00  0.00    -0.507 OA
ATOM     19  H   UNL     1       0.725  -0.693   9.273  0.00  0.00    +0.292 HD
ENDBRANCH  15  18
ENDBRANCH   9  12
BRANCH  10  20
ATOM     20  N   UNL     1       0.066  -3.857   2.921  0.00  0.00    -0.324 N 
ATOM     21  H   UNL     1       0.073  -4.056   3.871  0.00  0.00    +0.148 HD
BRANCH  20  22
ATOM     22  C   UNL     1       0.076  -4.948   1.944  0.00  0.00    +0.138 C 
BRANCH  22  23
ATOM     23  C   UNL     1       0.097  -6.270   2.667  0.00  0.00    -0.027 A 
ATOM     24  C   UNL     1       1.304  -6.857   2.998  0.00  0.00    +0.009 A 
ATOM     25  C   UNL     1       1.327  -8.069   3.662  0.00  0.00    +0.050 A 
ATOM     26  C   UNL     1       0.140  -8.700   3.997  0.00  0.00    +0.166 A 
ATOM     27  C   UNL     1      -1.076  -8.109   3.663  0.00  0.00    +0.167 A 
ATOM     28  C   UNL     1      -1.092  -6.891   3.003  0.00  0.00    +0.054 A 
ATOM     29  O   UNL     1      -2.087  -8.917   4.097  0.00  0.00    -0.453 OA
ATOM     30  C   UNL     1      -1.479 -10.200   4.334  0.00  0.00    +0.466 C 
ATOM     31  O   UNL     1      -0.109  -9.878   4.639  0.00  0.00    -0.453 OA
ENDBRANCH  22  23
ENDBRANCH  20  22
ENDBRANCH  10  20
TORSDOF 5
