REMARK  Name = ZINC62812119
REMARK  6 active torsions:
REMARK  status: ('A' for Active; 'I' for Inactive)
REMARK    1  A    between atoms: C_1  and  C_2
REMARK    2  A    between atoms: C_2  and  C_3
REMARK    3  A    between atoms: C_6  and  N_9
REMARK    4  A    between atoms: N_9  and  C_10
REMARK    5  A    between atoms: C_11  and  C_13
REMARK    6  A    between atoms: C_14  and  N_19
REMARK                            x       y       z     vdW  Elec       q    Type
REMARK                         _______ _______ _______ _____ _____    ______ ____
ROOT
ATOM      1  N   UNL     1       2.744  -1.895   4.611  0.00  0.00    -0.269 N 
ATOM      2  C   UNL     1       4.163  -2.259   4.596  0.00  0.00    +0.138 C 
ATOM      3  C   UNL     1       2.033  -2.004   5.751  0.00  0.00    +0.273 C 
ATOM      4  O   UNL     1       0.834  -1.801   5.741  0.00  0.00    -0.268 OA
ENDROOT
BRANCH   1   8
ATOM      5  C   UNL     1       0.908  -0.522   1.134  0.00  0.00    -0.048 A 
ATOM      6  C   UNL     1       2.276  -0.722   1.159  0.00  0.00    +0.005 A 
ATOM      7  C   UNL     1       2.888  -1.177   2.310  0.00  0.00    +0.024 A 
ATOM      8  C   UNL     1       2.127  -1.433   3.444  0.00  0.00    +0.036 A 
ATOM      9  C   UNL     1       0.754  -1.231   3.416  0.00  0.00    +0.024 A 
ATOM     10  C   UNL     1       0.149  -0.771   2.262  0.00  0.00    +0.005 A 
BRANCH   5  12
ATOM     11  C   UNL     1       0.216   1.504  -0.117  0.00  0.00    +0.009 C 
ATOM     12  C   UNL     1       0.243  -0.026  -0.125  0.00  0.00    +0.032 C 
ENDBRANCH   5  12
ENDBRANCH   1   8
BRANCH   3  13
ATOM     13  C   UNL     1       2.708  -2.370   7.009  0.00  0.00    +0.168 A 
ATOM     14  C   UNL     1       2.114  -2.439   8.296  0.00  0.00    +0.075 A 
ATOM     15  C   UNL     1       3.115  -2.814   9.136  0.00  0.00    +0.128 A 
ATOM     16  N   UNL     1       4.236  -2.956   8.383  0.00  0.00    -0.282 N 
ATOM     17  H   UNL     1       5.106  -3.218   8.725  0.00  0.00    +0.188 HD
ATOM     18  N   UNL     1       3.978  -2.700   7.151  0.00  0.00    -0.167 NA
BRANCH  14  19
ATOM     19  N   UNL     1       0.778  -2.177   8.630  0.00  0.00    -0.355 N 
ATOM     20  H   UNL     1       0.148  -1.915   7.941  0.00  0.00    +0.142 HD
ATOM     21  H   UNL     1       0.483  -2.258   9.551  0.00  0.00    +0.142 HD
ENDBRANCH  14  19
ENDBRANCH   3  13
TORSDOF 4
