REMARK  Name = ZINC63230087
REMARK  6 active torsions:
REMARK  status: ('A' for Active; 'I' for Inactive)
REMARK    1  A    between atoms: C_4  and  N_7
REMARK    2  A    between atoms: C_8  and  C_24
REMARK    3  A    between atoms: C_11  and  S_12
REMARK    4  A    between atoms: S_12  and  C_13
REMARK    5  A    between atoms: C_13  and  C_14
REMARK    6  A    between atoms: C_14  and  N_16
REMARK                            x       y       z     vdW  Elec       q    Type
REMARK                         _______ _______ _______ _____ _____    ______ ____
ROOT
ATOM      1  N   UNL     1       3.660  -0.600  -0.070  0.00  0.00    -0.270 N 
ATOM      2  C   UNL     1       4.156  -1.407  -1.081  0.00  0.00    +0.168 A 
ATOM      3  N   UNL     1       5.332  -1.860  -0.671  0.00  0.00    -0.128 NA
ATOM      4  N   UNL     1       5.592  -1.398   0.500  0.00  0.00    -0.122 NA
ATOM      5  C   UNL     1       4.605  -0.617   0.913  0.00  0.00    +0.197 A 
ENDROOT
BRANCH   2   6
ATOM      6  C   UNL     1       3.532  -1.691  -2.306  0.00  0.00    +0.025 C 
ATOM      7  C   UNL     1       4.016  -2.505  -3.330  0.00  0.00    +0.006 A 
ATOM      8  C   UNL     1       5.202  -3.257  -3.470  0.00  0.00    +0.010 A 
ATOM      9  C   UNL     1       5.416  -3.973  -4.604  0.00  0.00    +0.001 A 
ATOM     10  C   UNL     1       4.486  -3.987  -5.646  0.00  0.00    +0.002 A 
ATOM     11  C   UNL     1       3.326  -3.288  -5.579  0.00  0.00    +0.026 A 
ATOM     12  C   UNL     1       3.033  -2.516  -4.425  0.00  0.00    +0.043 A 
ATOM     13  N   UNL     1       1.995  -1.762  -4.121  0.00  0.00    -0.380 N 
ATOM     14  C   UNL     1       2.191  -1.184  -2.788  0.00  0.00    +0.152 C 
ATOM     15  H   UNL     1       1.221  -1.617  -4.688  0.00  0.00    +0.160 HD
ENDBRANCH   2   6
BRANCH   1  19
ATOM     16  C   UNL     1       0.039   1.465  -0.047  0.00  0.00    +0.000 A 
ATOM     17  C   UNL     1       1.232   2.164  -0.042  0.00  0.00    +0.002 A 
ATOM     18  C   UNL     1       2.434   1.483  -0.050  0.00  0.00    +0.026 A 
ATOM     19  C   UNL     1       2.443   0.094  -0.062  0.00  0.00    +0.050 A 
ATOM     20  C   UNL     1       1.243  -0.605  -0.066  0.00  0.00    +0.026 A 
ATOM     21  C   UNL     1       0.045   0.082  -0.059  0.00  0.00    +0.002 A 
ENDBRANCH   1  19
BRANCH   5  22
ATOM     22  S   UNL     1       4.525   0.238   2.451  0.00  0.00    -0.076 S 
BRANCH  22  23
ATOM     23  C   UNL     1       6.077  -0.204   3.280  0.00  0.00    +0.175 C 
BRANCH  23  24
ATOM     24  C   UNL     1       6.138   0.471   4.626  0.00  0.00    +0.248 C 
ATOM     25  O   UNL     1       5.222   1.182   4.991  0.00  0.00    -0.273 OA
BRANCH  24  26
ATOM     26  N   UNL     1       7.194   0.289   5.415  0.00  0.00    -0.159 NA
ATOM     27  C   UNL     1       7.297   0.965   6.553  0.00  0.00    +0.148 C 
ATOM     28  N   UNL     1       6.358   1.781   7.084  0.00  0.00    -0.324 N 
ATOM     29  C   UNL     1       6.611   2.456   8.340  0.00  0.00    +0.129 C 
ATOM     30  C   UNL     1       8.007   2.101   8.892  0.00  0.00    +0.138 C 
ATOM     31  S   UNL     1       8.611   0.955   7.593  0.00  0.00    -0.077 S 
ATOM     32 BR   UNL     1       9.145   3.699   9.023  0.00  0.00    -0.074 Br
ATOM     33  H   UNL     1       5.514   1.914   6.623  0.00  0.00    +0.148 HD
ENDBRANCH  24  26
ENDBRANCH  23  24
ENDBRANCH  22  23
ENDBRANCH   5  22
TORSDOF 6
