REMARK  Name = ZINC13500514
REMARK  15 active torsions:
REMARK  status: ('A' for Active; 'I' for Inactive)
REMARK    1  A    between atoms: C_1  and  C_2
REMARK    2  A    between atoms: C_2  and  C_3
REMARK    3  A    between atoms: C_3  and  C_4
REMARK    4  A    between atoms: C_3  and  C_5
REMARK    5  A    between atoms: C_3  and  N_6
REMARK    6  A    between atoms: C_7  and  C_11
REMARK    7  A    between atoms: C_11  and  C_13
REMARK    8  A    between atoms: C_11  and  N_74
REMARK    9  A    between atoms: C_13  and  C_14
REMARK   10  A    between atoms: C_13  and  C_15
REMARK   11  A    between atoms: C_16  and  C_17
REMARK   12  A    between atoms: C_16  and  N_74
REMARK   13  A    between atoms: C_17  and  C_18
REMARK   14  A    between atoms: C_24  and  C_25
REMARK   15  A    between atoms: C_24  and  N_74
REMARK                            x       y       z     vdW  Elec       q    Type
REMARK                         _______ _______ _______ _____ _____    ______ ____
ROOT
ATOM      1  N   UNL     1      -5.697   0.954   1.317  0.00  0.00    +0.390 N 
ATOM      2  H   UNL     1      -4.955   0.689   1.976  0.00  0.00    -0.080 HD
ENDROOT
BRANCH   1   3
ATOM      3  C   UNL     1      -6.721  -0.112   1.293  0.00  0.00    +0.006 C 
BRANCH   3   5
ATOM      4  N   UNL     1      -8.700  -0.065  -0.315  0.00  0.00    -0.225 N 
ATOM      5  C   UNL     1      -7.383  -0.174  -0.059  0.00  0.00    +0.139 A 
ATOM      6  N   UNL     1      -6.789  -0.350  -1.214  0.00  0.00    -0.115 NA
ATOM      7  N   UNL     1      -7.693  -0.345  -2.132  0.00  0.00    -0.023 NA
ATOM      8  N   UNL     1      -8.849  -0.170  -1.592  0.00  0.00    -0.043 NA
BRANCH   4   9
ATOM      9  C   UNL     1      -9.764   0.137   0.672  0.00  0.00    +0.061 C 
ATOM     10  C   UNL     1      -9.726  -0.993   1.702  0.00  0.00    +0.036 C 
ATOM     11  C   UNL     1      -9.556   1.478   1.379  0.00  0.00    +0.036 C 
BRANCH   9  13
ATOM     12  C   UNL     1     -12.232   0.350   0.995  0.00  0.00    +0.006 C 
ATOM     13  C   UNL     1     -11.121   0.138  -0.035  0.00  0.00    +0.026 C 
ENDBRANCH   9  13
ENDBRANCH   4   9
ENDBRANCH   3   5
BRANCH   3  14
ATOM     14  C   UNL     1      -6.039  -1.449   1.589  0.00  0.00    -0.024 C 
ATOM     15  C   UNL     1      -7.071  -2.576   1.514  0.00  0.00    +0.006 C 
ATOM     16  C   UNL     1      -4.936  -1.698   0.559  0.00  0.00    +0.006 C 
ENDBRANCH   3  14
ENDBRANCH   1   3
BRANCH   1  17
ATOM     17  C   UNL     1      -6.302   2.227   1.761  0.00  0.00    -0.073 C 
BRANCH  17  18
ATOM     18  C   UNL     1      -6.656   2.112   3.245  0.00  0.00    +0.016 C 
BRANCH  18  19
ATOM     19  C   UNL     1      -7.113   3.454   3.758  0.00  0.00    -0.049 A 
ATOM     20  C   UNL     1      -6.195   4.340   4.288  0.00  0.00    +0.003 A 
ATOM     21  C   UNL     1      -6.614   5.573   4.753  0.00  0.00    +0.000 A 
ATOM     22  C   UNL     1      -7.952   5.914   4.698  0.00  0.00    +0.000 A 
ATOM     23  C   UNL     1      -8.871   5.025   4.173  0.00  0.00    +0.000 A 
ATOM     24  C   UNL     1      -8.452   3.795   3.702  0.00  0.00    +0.003 A 
ENDBRANCH  18  19
ENDBRANCH  17  18
ENDBRANCH   1  17
BRANCH   1  25
ATOM     25  C   UNL     1      -5.107   1.118  -0.029  0.00  0.00    -0.037 C 
BRANCH  25  26
ATOM     26  C   UNL     1      -3.880   1.985   0.081  0.00  0.00    +0.001 A 
ATOM     27  C   UNL     1      -2.657   1.412   0.220  0.00  0.00    +0.017 A 
ATOM     28  C   UNL     1      -1.485   2.280   0.320  0.00  0.00    +0.002 A 
ATOM     29  C   UNL     1      -0.200   1.745   0.471  0.00  0.00    +0.059 A 
ATOM     30  C   UNL     1       0.884   2.588   0.570  0.00  0.00    +0.167 A 
ATOM     31  C   UNL     1       0.705   3.977   0.523  0.00  0.00    +0.168 A 
ATOM     32  C   UNL     1      -0.561   4.514   0.379  0.00  0.00    +0.075 A 
ATOM     33  C   UNL     1      -1.665   3.677   0.280  0.00  0.00    +0.053 A 
ATOM     34  N   UNL     1      -2.936   4.196   0.137  0.00  0.00    -0.322 N 
ATOM     35  H   UNL     1      -3.058   5.158   0.105  0.00  0.00    +0.169 HD
ATOM     36  C   UNL     1      -4.006   3.388   0.041  0.00  0.00    +0.251 A 
ATOM     37  O   UNL     1      -5.114   3.882  -0.084  0.00  0.00    -0.268 OA
ATOM     38  O   UNL     1       1.926   4.574   0.641  0.00  0.00    -0.453 OA
ATOM     39  C   UNL     1       2.802   3.562   1.171  0.00  0.00    +0.466 C 
ATOM     40  O   UNL     1       2.217   2.328   0.717  0.00  0.00    -0.453 OA
ENDBRANCH  25  26
ENDBRANCH   1  25
TORSDOF 10
