REMARK  Name = ZINC08740258
REMARK  9 active torsions:
REMARK  status: ('A' for Active; 'I' for Inactive)
REMARK    1  A    between atoms: C_6  and  C_7
REMARK    2  A    between atoms: C_12  and  O_19
REMARK    3  A    between atoms: C_14  and  O_18
REMARK    4  A    between atoms: O_19  and  C_20
REMARK    5  A    between atoms: C_20  and  C_21
REMARK    6  A    between atoms: N_23  and  CA_24
REMARK    7  A    between atoms: CA_24  and  CB_26
REMARK    8  A    between atoms: CA_24  and  C_33
REMARK    9  A    between atoms: CB_26  and  CG_27
REMARK                            x       y       z     vdW  Elec       q    Type
REMARK                         _______ _______ _______ _____ _____    ______ ____
ROOT
ATOM      1  C   UNK A   0      -3.680  -0.785   0.017  0.00  0.00    +0.065 A 
ATOM      2  C   UNK A   0      -3.898  -1.776  -0.883  0.00  0.00    +0.208 A 
ATOM      3  O   UNK A   0      -5.033  -2.481  -0.916  0.00  0.00    -0.462 OA
ATOM      4  C   UNK A   0      -6.057  -2.273  -0.065  0.00  0.00    +0.145 A 
ATOM      5  C   UNK A   0      -7.210  -3.040  -0.150  0.00  0.00    +0.092 A 
ATOM      6  C   UNK A   0      -8.258  -2.821   0.729  0.00  0.00    +0.128 A 
ATOM      7  C   UNK A   0      -8.170  -1.835   1.706  0.00  0.00    +0.092 A 
ATOM      8  C   UNK A   0      -7.030  -1.059   1.809  0.00  0.00    +0.135 A 
ATOM      9  C   UNK A   0      -5.967  -1.276   0.922  0.00  0.00    +0.106 A 
ATOM     10  C   UNK A   0      -4.734  -0.477   1.000  0.00  0.00    +0.204 A 
ATOM     11  O   UNK A   0      -4.592   0.399   1.836  0.00  0.00    -0.286 OA
ENDROOT
BRANCH   1  17
ATOM     12  C   UNK A   0      -2.416   1.364   0.026  0.00  0.00    +0.012 A 
ATOM     13  C   UNK A   0      -1.228   2.065   0.019  0.00  0.00    +0.050 A 
ATOM     14  C   UNK A   0      -0.017   1.387   0.010  0.00  0.00    +0.162 A 
ATOM     15  C   UNK A   0       0.002  -0.004   0.002  0.00  0.00    +0.163 A 
ATOM     16  C   UNK A   0      -1.188  -0.711   0.004  0.00  0.00    +0.058 A 
ATOM     17  C   UNK A   0      -2.403  -0.029   0.016  0.00  0.00    -0.008 A 
ATOM     18  O   UNK A   0       1.181  -0.685  -0.006  0.00  0.00    -0.485 OA
ATOM     19  C   UNK A   0       2.347   0.054  -0.387  0.00  0.00    +0.270 C 
ATOM     20  C   UNK A   0       2.335   1.391   0.365  0.00  0.00    +0.270 C 
ATOM     21  O   UNK A   0       1.144   2.099   0.002  0.00  0.00    -0.485 OA
ENDBRANCH   1  17
BRANCH   8  22
ATOM     22  O   UNK A   0      -6.942  -0.096   2.760  0.00  0.00    -0.506 OA
ATOM     23  H   UNK A   0      -7.265   0.770   2.475  0.00  0.00    +0.292 HD
ENDBRANCH   8  22
BRANCH   6  24
ATOM     24  O   UNK A   0      -9.382  -3.576   0.637  0.00  0.00    -0.483 OA
BRANCH  24  25
ATOM     25  C   UNK A   0     -10.427  -3.301   1.572  0.00  0.00    +0.324 C 
BRANCH  25  26
ATOM     26  C   UNK A   0     -11.585  -4.231   1.318  0.00  0.00    +0.251 C 
ATOM     27  O   UNK A   0     -11.522  -5.049   0.424  0.00  0.00    -0.272 OA
ATOM     28  N   HIS A   1     -12.691  -4.155   2.084  0.00  0.00    -0.299 N 
ATOM     29  H   HIS A   1     -12.742  -3.501   2.799  0.00  0.00    +0.150 HD
BRANCH  28  30
ATOM     30  CA  HIS A   1     -13.818  -5.059   1.837  0.00  0.00    +0.192 C 
BRANCH  30  31
ATOM     31  C   HIS A   1     -13.584  -6.361   2.558  0.00  0.00    +0.376 C 
ATOM     32  O   HIS A   1     -12.579  -6.518   3.212  0.00  0.00    -0.244 OA
ATOM     33  OXT HIS A   1     -14.491  -7.347   2.475  0.00  0.00    -0.244 OA
ENDBRANCH  30  31
BRANCH  30  34
ATOM     34  CB  HIS A   1     -15.109  -4.417   2.350  0.00  0.00    +0.088 C 
BRANCH  34  35
ATOM     35  CG  HIS A   1     -15.408  -3.178   1.545  0.00  0.00    +0.038 A 
ATOM     36  CD2 HIS A   1     -14.923  -1.941   1.765  0.00  0.00    +0.133 A 
ATOM     37  NE2 HIS A   1     -15.428  -1.125   0.828  0.00  0.00    -0.244 NA
ATOM     38  CE1 HIS A   1     -16.213  -1.808   0.040  0.00  0.00    +0.196 A 
ATOM     39  ND1 HIS A   1     -16.228  -3.093   0.453  0.00  0.00    -0.348 N 
ATOM     40  HD1 HIS A   1     -16.743  -3.843   0.037  0.00  0.00    +0.166 HD
ENDBRANCH  34  35
ENDBRANCH  30  34
ENDBRANCH  28  30
ENDBRANCH  25  26
ENDBRANCH  24  25
ENDBRANCH   6  24
TORSDOF 9
