REMARK  Name = ZINC63704263
REMARK  12 active torsions:
REMARK  status: ('A' for Active; 'I' for Inactive)
REMARK    1  A    between atoms: C_1  and  C_2
REMARK    2  A    between atoms: C_2  and  O_3
REMARK    3  A    between atoms: O_3  and  C_4
REMARK    4  A    between atoms: C_9  and  O_10
REMARK    5  A    between atoms: O_10  and  C_11
REMARK    6  A    between atoms: C_11  and  C_12
REMARK    7  A    between atoms: N_17  and  C_20
REMARK    8  A    between atoms: C_20  and  C_21
REMARK    9  A    between atoms: C_24  and  C_27
REMARK   10  A    between atoms: N_29  and  C_30
REMARK   11  A    between atoms: C_30  and  C_31
REMARK   12  A    between atoms: C_31  and  C_32
REMARK                            x       y       z     vdW  Elec       q    Type
REMARK                         _______ _______ _______ _____ _____    ______ ____
ROOT
ATOM      1  C   UNL     1      -2.018  -7.617  -0.835  0.00  0.00    +0.009 C 
ATOM      2  C   UNL     1      -2.014  -8.357   0.505  0.00  0.00    +0.006 C 
ATOM      3  C   UNL     1      -3.451  -8.710   0.895  0.00  0.00    +0.013 C 
ATOM      4  C   UNL     1      -4.066  -9.607  -0.181  0.00  0.00    +0.075 C 
ATOM      5  C   UNL     1      -4.069  -8.868  -1.520  0.00  0.00    +0.013 C 
ATOM      6  C   UNL     1      -2.633  -8.514  -1.911  0.00  0.00    +0.006 C 
ENDROOT
BRANCH   4   7
ATOM      7  C   UNL     1      -5.481  -9.955   0.204  0.00  0.00    +0.216 C 
ATOM      8  O   UNL     1      -5.951  -9.528   1.238  0.00  0.00    -0.276 OA
ATOM      9  N   UNL     1      -6.224 -10.741  -0.600  0.00  0.00    -0.315 N 
ATOM     10  H   UNL     1      -5.848 -11.083  -1.426  0.00  0.00    +0.149 HD
BRANCH   9  11
ATOM     11  C   UNL     1      -7.599 -11.080  -0.225  0.00  0.00    +0.108 C 
BRANCH  11  12
ATOM     12  C   UNL     1      -8.214 -11.977  -1.302  0.00  0.00    +0.052 C 
BRANCH  12  13
ATOM     13  C   UNL     1      -9.629 -12.325  -0.917  0.00  0.00    -0.040 C 
ATOM     14  C   UNL     1     -10.758 -11.696  -1.314  0.00  0.00    -0.001 A 
ATOM     15  C   UNL     1     -10.998 -10.543  -2.190  0.00  0.00    +0.010 A 
ATOM     16  C   UNL     1     -12.270 -10.134  -2.404  0.00  0.00    +0.001 A 
ATOM     17  C   UNL     1     -13.362 -10.784  -1.811  0.00  0.00    +0.002 A 
ATOM     18  C   UNL     1     -13.221 -11.850  -0.995  0.00  0.00    +0.026 A 
ATOM     19  C   UNL     1     -11.928 -12.364  -0.701  0.00  0.00    +0.043 A 
ATOM     20  N   UNL     1     -11.537 -13.368   0.047  0.00  0.00    -0.380 N 
ATOM     21  C   UNL     1     -10.074 -13.453  -0.013  0.00  0.00    +0.144 C 
ATOM     22  H   UNL     1     -12.119 -13.957   0.551  0.00  0.00    +0.160 HD
ENDBRANCH  12  13
ENDBRANCH  11  12
ENDBRANCH   9  11
ENDBRANCH   4   7
BRANCH   1  23
ATOM     23  C   UNL     1      -0.581  -7.264  -1.226  0.00  0.00    +0.133 C 
BRANCH  23  34
ATOM     24  C   UNL     1       0.802  -1.826   1.306  0.00  0.00    +0.163 A 
ATOM     25  C   UNL     1       0.261  -2.666   0.354  0.00  0.00    +0.064 A 
ATOM     26  C   UNL     1       0.377  -4.048   0.511  0.00  0.00    +0.067 A 
ATOM     27  C   UNL     1       1.041  -4.578   1.632  0.00  0.00    +0.059 A 
ATOM     28  C   UNL     1       1.579  -3.725   2.580  0.00  0.00    +0.076 A 
ATOM     29  C   UNL     1       1.466  -2.354   2.415  0.00  0.00    +0.164 A 
ATOM     30  N   UNL     1       1.139  -5.958   1.758  0.00  0.00    -0.307 N 
ATOM     31  H   UNL     1       1.594  -6.340   2.526  0.00  0.00    +0.170 HD
ATOM     32  C   UNL     1       0.610  -6.770   0.827  0.00  0.00    +0.330 A 
ATOM     33  O   UNL     1       0.717  -7.973   0.974  0.00  0.00    -0.246 OA
ATOM     34  N   UNL     1      -0.032  -6.310  -0.258  0.00  0.00    -0.260 N 
ATOM     35  C   UNL     1      -0.182  -4.986  -0.476  0.00  0.00    +0.264 A 
ATOM     36  O   UNL     1      -0.765  -4.579  -1.463  0.00  0.00    -0.267 OA
BRANCH  24  37
ATOM     37  O   UNL     1       0.693  -0.477   1.160  0.00  0.00    -0.489 OA
BRANCH  37  39
ATOM     38  C   UNL     1      -0.019   1.526   0.010  0.00  0.00    +0.048 C 
ATOM     39  C   UNL     1       0.002  -0.004   0.002  0.00  0.00    +0.226 C 
ENDBRANCH  37  39
ENDBRANCH  24  37
BRANCH  29  40
ATOM     40  O   UNL     1       1.999  -1.517   3.343  0.00  0.00    -0.489 OA
BRANCH  40  41
ATOM     41  C   UNL     1       2.665  -2.121   4.454  0.00  0.00    +0.226 C 
ATOM     42  C   UNL     1       3.196  -1.029   5.385  0.00  0.00    +0.048 C 
ENDBRANCH  40  41
ENDBRANCH  29  40
ENDBRANCH  23  34
ENDBRANCH   1  23
TORSDOF 10
