REMARK  Name = ZINC66303574
REMARK  6 active torsions:
REMARK  status: ('A' for Active; 'I' for Inactive)
REMARK    1  A    between atoms: C_1  and  C_2
REMARK    2  A    between atoms: C_2  and  C_4
REMARK    3  A    between atoms: C_2  and  N_15
REMARK    4  A    between atoms: C_16  and  C_18
REMARK    5  A    between atoms: C_19  and  C_20
REMARK    6  A    between atoms: C_19  and  C_21
REMARK                            x       y       z     vdW  Elec       q    Type
REMARK                         _______ _______ _______ _____ _____    ______ ____
ROOT
ATOM      1  C   UNL     1      -0.019   1.526   0.010  0.00  0.00    +0.033 C 
ATOM      2  C   UNL     1       0.002  -0.004   0.002  0.00  0.00    +0.100 C 
ENDROOT
BRANCH   2   3
ATOM      3  C   UNL     1      -1.412  -0.526   0.013  0.00  0.00    -0.025 A 
ATOM      4  C   UNL     1      -2.121  -0.570   1.199  0.00  0.00    +0.009 A 
ATOM      5  C   UNL     1      -3.420  -1.046   1.217  0.00  0.00    +0.048 A 
ATOM      6  C   UNL     1      -4.011  -1.480   0.044  0.00  0.00    +0.142 A 
ATOM      7  C   UNL     1      -3.296  -1.437  -1.152  0.00  0.00    +0.076 A 
ATOM      8  C   UNL     1      -1.998  -0.953  -1.165  0.00  0.00    +0.032 A 
ATOM      9  N   UNL     1      -3.906  -1.883  -2.333  0.00  0.00    -0.280 N 
ATOM     10  C   UNL     1      -5.247  -2.043  -2.357  0.00  0.00    +0.255 C 
ATOM     11  O   UNL     1      -5.793  -2.457  -3.357  0.00  0.00    -0.272 OA
ATOM     12  C   UNL     1      -6.062  -1.706  -1.134  0.00  0.00    +0.325 C 
ATOM     13  O   UNL     1      -5.287  -1.951   0.043  0.00  0.00    -0.481 OA
ATOM     14  H   UNL     1      -3.373  -2.072  -3.121  0.00  0.00    +0.155 HD
ENDBRANCH   2   3
BRANCH   2  15
ATOM     15  N   UNL     1       0.711  -0.489   1.189  0.00  0.00    -0.305 N 
ATOM     16  C   UNL     1       2.054  -0.600   1.174  0.00  0.00    +0.238 C 
ATOM     17  O   UNL     1       2.678  -0.296   0.174  0.00  0.00    -0.271 OA
ATOM     18  H   UNL     1       0.213  -0.731   1.986  0.00  0.00    +0.150 HD
BRANCH  16  19
ATOM     19  C   UNL     1       2.762  -1.085   2.360  0.00  0.00    +0.071 C 
ATOM     20  C   UNL     1       4.106  -1.195   2.344  0.00  0.00    -0.037 C 
ATOM     21  C   UNL     1       4.835  -1.694   3.565  0.00  0.00    +0.044 C 
BRANCH  20  22
ATOM     22  C   UNL     1       4.860  -0.828   1.136  0.00  0.00    -0.004 A 
ATOM     23  C   UNL     1       5.053   0.518   0.809  0.00  0.00    +0.009 A 
ATOM     24  C   UNL     1       5.762   0.854  -0.325  0.00  0.00    +0.001 A 
ATOM     25  C   UNL     1       6.282  -0.137  -1.140  0.00  0.00    +0.001 A 
ATOM     26  C   UNL     1       6.097  -1.471  -0.825  0.00  0.00    +0.020 A 
ATOM     27  C   UNL     1       5.394  -1.824   0.310  0.00  0.00    +0.048 A 
ATOM     28 CL   UNL     1       5.168  -3.499   0.708  0.00  0.00    -0.083 Cl
ENDBRANCH  20  22
ENDBRANCH  16  19
ENDBRANCH   2  15
TORSDOF 4
