REMARK  Name = ZINC21702664
REMARK  5 active torsions:
REMARK  status: ('A' for Active; 'I' for Inactive)
REMARK    1  A    between atoms: C_1  and  C_2
REMARK    2  A    between atoms: N_7  and  S_8
REMARK    3  A    between atoms: S_8  and  C_11
REMARK    4  A    between atoms: C_20  and  C_23
REMARK    5  A    between atoms: C_28  and  C_31
REMARK                            x       y       z     vdW  Elec       q    Type
REMARK                         _______ _______ _______ _____ _____    ______ ____
ROOT
ATOM      1  C   UNL     1       1.114   6.045  -1.216  0.00  0.00    +0.114 A 
ATOM      2  C   UNL     1       2.179   5.695  -0.405  0.00  0.00    +0.030 A 
ATOM      3  C   UNL     1       2.357   4.376  -0.033  0.00  0.00    +0.018 A 
ATOM      4  C   UNL     1       1.467   3.409  -0.471  0.00  0.00    +0.030 A 
ATOM      5  C   UNL     1       0.387   3.754  -1.283  0.00  0.00    +0.049 A 
ATOM      6  C   UNL     1       0.223   5.085  -1.653  0.00  0.00    +0.053 A 
ATOM      7  N   UNL     1      -0.536   2.809  -1.720  0.00  0.00    -0.283 N 
ATOM      8  C   UNL     1      -0.719   1.589  -1.224  0.00  0.00    +0.240 C 
ATOM      9  O   UNL     1      -1.491   0.846  -1.791  0.00  0.00    -0.274 OA
ATOM     10  C   UNL     1      -0.013   1.086   0.008  0.00  0.00    +0.223 C 
ATOM     11  S   UNL     1       1.692   1.720  -0.005  0.00  0.00    -0.101 S 
ATOM     12  H   UNL     1      -1.208   3.043  -2.559  0.00  0.00    +0.155 HD
ENDROOT
BRANCH  10  13
ATOM     13  C   UNL     1      -0.726   1.576   1.242  0.00  0.00    +0.238 C 
ATOM     14  O   UNL     1      -1.328   2.628   1.216  0.00  0.00    -0.274 OA
ATOM     15  N   UNL     1      -0.696   0.844   2.373  0.00  0.00    -0.300 N 
ATOM     16  C   UNL     1       0.024  -0.436   2.418  0.00  0.00    +0.108 C 
ATOM     17  C   UNL     1       1.010  -0.401   3.595  0.00  0.00    +0.022 C 
ATOM     18  C   UNL     1       0.251  -0.062   4.880  0.00  0.00    -0.011 C 
ATOM     19  C   UNL     1      -0.389   1.322   4.747  0.00  0.00    +0.022 C 
ATOM     20  C   UNL     1      -1.386   1.309   3.584  0.00  0.00    +0.108 C 
ATOM     21  C   UNL     1       1.222  -0.063   6.062  0.00  0.00    +0.007 C 
ENDBRANCH  10  13
BRANCH   1  22
ATOM     22  S   UNL     1       0.893   7.726  -1.693  0.00  0.00    +0.101 S 
ATOM     23  O   UNL     1      -0.485   7.882  -2.004  0.00  0.00    -0.146 OA
ATOM     24  O   UNL     1       1.546   8.517  -0.709  0.00  0.00    -0.146 OA
BRANCH  22  31
ATOM     25  C   UNL     1       1.969   6.668  -7.831  0.00  0.00    +0.064 C 
ATOM     26  C   UNL     1       1.358   6.611  -6.455  0.00  0.00    +0.022 A 
ATOM     27  C   UNL     1       0.279   5.831  -6.208  0.00  0.00    +0.069 A 
ATOM     28  S   UNL     1       0.018   6.164  -4.472  0.00  0.00    -0.057 S 
ATOM     29  C   UNL     1       1.333   7.277  -4.255  0.00  0.00    +0.192 A 
ATOM     30  N   UNL     1       1.858   7.325  -5.464  0.00  0.00    -0.336 N 
ATOM     31  N   UNL     1       1.725   7.948  -3.107  0.00  0.00    -0.103 NA
ATOM     32  H   UNL     1       2.729   7.974  -5.639  0.00  0.00    +0.168 HD
ENDBRANCH  22  31
ENDBRANCH   1  22
TORSDOF 3
