REMARK  Name = ZINC09602052
REMARK  5 active torsions:
REMARK  status: ('A' for Active; 'I' for Inactive)
REMARK    1  A    between atoms: C_4  and  C_7
REMARK    2  A    between atoms: C_12  and  C_28
REMARK    3  A    between atoms: C_22  and  C_24
REMARK    4  A    between atoms: C_24  and  C_25
REMARK    5  A    between atoms: C_25  and  C_26
REMARK                            x       y       z     vdW  Elec       q    Type
REMARK                         _______ _______ _______ _____ _____    ______ ____
ROOT
ATOM      1  C   UNL     1       3.291   3.694   4.207  0.00  0.00    +0.032 C 
ATOM      2  C   UNL     1       3.566   5.066   3.593  0.00  0.00    +0.059 C 
ATOM      3  C   UNL     1       3.010   5.125   2.181  0.00  0.00    +0.017 C 
ATOM      4  C   UNL     1       2.969   4.021   1.416  0.00  0.00    +0.037 C 
ATOM      5  C   UNL     1       2.450   3.942   0.000  0.00  0.00    +0.149 C 
ATOM      6  N   UNL     1       2.213   5.226  -0.623  0.00  0.00    -0.258 N 
ATOM      7  C   UNL     1       1.236   6.093  -0.140  0.00  0.00    +0.058 A 
ATOM      8  C   UNL     1       0.093   6.375  -0.870  0.00  0.00    +0.025 A 
ATOM      9  C   UNL     1      -0.903   7.149  -0.301  0.00  0.00    +0.002 A 
ATOM     10  C   UNL     1      -0.761   7.639   0.985  0.00  0.00    +0.002 A 
ATOM     11  C   UNL     1       0.389   7.377   1.709  0.00  0.00    +0.025 A 
ATOM     12  C   UNL     1       1.394   6.617   1.134  0.00  0.00    +0.053 A 
ATOM     13  N   UNL     1       2.593   6.355   1.785  0.00  0.00    -0.316 N 
ATOM     14  C   UNL     1       2.948   5.591  -1.692  0.00  0.00    +0.221 C 
ATOM     15  O   UNL     1       3.801   4.846  -2.125  0.00  0.00    -0.275 OA
ATOM     16  C   UNL     1       3.436   2.785   1.924  0.00  0.00    +0.163 C 
ATOM     17  O   UNL     1       3.405   1.806   1.205  0.00  0.00    -0.292 OA
ATOM     18  C   UNL     1       3.967   2.642   3.319  0.00  0.00    +0.088 C 
ATOM     19  H   UNL     1       3.176   7.108   1.970  0.00  0.00    +0.152 HD
ENDROOT
BRANCH   5  20
ATOM     20  C   UNL     1       1.157   3.169   0.008  0.00  0.00    +0.013 A 
ATOM     21  C   UNL     1       0.469   2.983   1.193  0.00  0.00    +0.008 A 
ATOM     22  C   UNL     1      -0.717   2.274   1.200  0.00  0.00    +0.001 A 
ATOM     23  C   UNL     1      -1.220   1.754   0.022  0.00  0.00    +0.003 A 
ATOM     24  C   UNL     1      -0.532   1.934  -1.163  0.00  0.00    +0.039 A 
ATOM     25  C   UNL     1       0.656   2.644  -1.171  0.00  0.00    +0.129 A 
ATOM     26  F   UNL     1       1.327   2.826  -2.330  0.00  0.00    -0.205 F 
ENDBRANCH   5  20
BRANCH   1  30
ATOM     27  C   UNL     1       4.919   3.520   8.152  0.00  0.00    +0.000 A 
ATOM     28  C   UNL     1       3.569   3.302   7.952  0.00  0.00    +0.000 A 
ATOM     29  C   UNL     1       3.042   3.359   6.675  0.00  0.00    +0.004 A 
ATOM     30  C   UNL     1       3.866   3.633   5.599  0.00  0.00    -0.044 A 
ATOM     31  C   UNL     1       5.217   3.846   5.799  0.00  0.00    +0.004 A 
ATOM     32  C   UNL     1       5.743   3.794   7.076  0.00  0.00    +0.000 A 
ENDBRANCH   1  30
BRANCH  14  33
ATOM     33  C   UNL     1       2.710   6.926  -2.349  0.00  0.00    +0.107 C 
BRANCH  33  34
ATOM     34  C   UNL     1       3.669   7.092  -3.530  0.00  0.00    +0.134 C 
BRANCH  34  35
ATOM     35  C   UNL     1       3.432   8.427  -4.188  0.00  0.00    +0.356 C 
ATOM     36  O   UNL     1       2.582   9.170  -3.756  0.00  0.00    -0.246 OA
ATOM     37  O   UNL     1       4.163   8.790  -5.252  0.00  0.00    -0.246 OA
ENDBRANCH  34  35
ENDBRANCH  33  34
ENDBRANCH  14  33
TORSDOF 5
