REMARK  Name = ZINC34829949
REMARK  8 active torsions:
REMARK  status: ('A' for Active; 'I' for Inactive)
REMARK    1  A    between atoms: C_1  and  C_2
REMARK    2  A    between atoms: N_11  and  C_12
REMARK    3  A    between atoms: C_12  and  C_13
REMARK    4  A    between atoms: C_19  and  C_21
REMARK    5  A    between atoms: C_21  and  N_22
REMARK    6  A    between atoms: C_30  and  C_32
REMARK    7  A    between atoms: C_35  and  O_38
REMARK    8  A    between atoms: O_38  and  C_39
REMARK                            x       y       z     vdW  Elec       q    Type
REMARK                         _______ _______ _______ _____ _____    ______ ____
ROOT
ATOM      1  C   UNL     1       0.010   1.527  -0.008  0.00  0.00    +0.030 C 
ATOM      2  C   UNL     1       0.015  -0.003  -0.006  0.00  0.00    +0.092 C 
ATOM      3  C   UNL     1       0.632  -0.518  -1.312  0.00  0.00    +0.130 C 
ATOM      4  N   UNL     1       0.866  -1.963  -1.184  0.00  0.00    -0.300 N 
ATOM      5  C   UNL     1       1.673  -2.453  -0.058  0.00  0.00    +0.126 C 
ATOM      6  C   UNL     1       1.055  -1.938   1.248  0.00  0.00    +0.128 C 
ATOM      7  N   UNL     1       0.818  -0.493   1.123  0.00  0.00    -0.280 N 
ATOM      8  C   UNL     1       1.333   0.368   2.023  0.00  0.00    +0.303 C 
ATOM      9  O   UNL     1       1.048   1.549   1.967  0.00  0.00    -0.253 OA
ATOM     10  N   UNL     1       2.163  -0.080   2.985  0.00  0.00    -0.295 N 
ATOM     11  C   UNL     1       0.350  -2.824  -2.083  0.00  0.00    +0.199 C 
ATOM     12  O   UNL     1      -0.315  -2.408  -3.009  0.00  0.00    -0.278 OA
ATOM     13  H   UNL     1       2.450  -1.006   2.986  0.00  0.00    +0.151 HD
ENDROOT
BRANCH  10  14
ATOM     14  C   UNL     1       2.633   0.833   4.030  0.00  0.00    +0.141 C 
BRANCH  14  15
ATOM     15  C   UNL     1       3.542   0.090   4.975  0.00  0.00    -0.030 A 
ATOM     16  C   UNL     1       3.016  -0.546   6.083  0.00  0.00    +0.005 A 
ATOM     17  C   UNL     1       3.849  -1.228   6.950  0.00  0.00    +0.000 A 
ATOM     18  C   UNL     1       5.210  -1.274   6.708  0.00  0.00    +0.000 A 
ATOM     19  C   UNL     1       5.736  -0.638   5.599  0.00  0.00    +0.000 A 
ATOM     20  C   UNL     1       4.902   0.040   4.730  0.00  0.00    +0.005 A 
ENDBRANCH  14  15
ENDBRANCH  10  14
BRANCH  11  21
ATOM     21  C   UNL     1       0.598  -4.303  -1.938  0.00  0.00    +0.020 C 
BRANCH  21  22
ATOM     22  N   UNL     1      -0.066  -5.021  -3.035  0.00  0.00    +0.393 N 
ATOM     23  C   UNL     1       0.538  -4.617  -4.312  0.00  0.00    -0.072 C 
ATOM     24  C   UNL     1      -0.360  -5.103  -5.463  0.00  0.00    +0.024 C 
ATOM     25  C   UNL     1      -0.706  -6.531  -5.193  0.00  0.00    -0.010 A 
ATOM     26  C   UNL     1      -0.525  -7.199  -4.018  0.00  0.00    -0.047 A 
ATOM     27  C   UNL     1      -0.918  -8.534  -3.997  0.00  0.00    +0.010 A 
ATOM     28  C   UNL     1      -1.450  -9.102  -5.104  0.00  0.00    +0.045 A 
ATOM     29  S   UNL     1      -1.422  -7.743  -6.265  0.00  0.00    -0.101 S 
ATOM     30  C   UNL     1       0.077  -6.466  -2.824  0.00  0.00    -0.005 C 
ATOM     31  H   UNL     1      -1.047  -4.782  -3.043  0.00  0.00    -0.080 HD
BRANCH  30  32
ATOM     32  C   UNL     1      -0.650  -6.867  -1.566  0.00  0.00    -0.056 A 
ATOM     33  C   UNL     1      -1.878  -6.306  -1.270  0.00  0.00    +0.006 A 
ATOM     34  C   UNL     1      -2.546  -6.672  -0.117  0.00  0.00    +0.046 A 
ATOM     35  C   UNL     1      -1.984  -7.603   0.743  0.00  0.00    +0.120 A 
ATOM     36  C   UNL     1      -0.751  -8.165   0.444  0.00  0.00    +0.046 A 
ATOM     37  C   UNL     1      -0.089  -7.800  -0.713  0.00  0.00    +0.006 A 
BRANCH  35  38
ATOM     38  O   UNL     1      -2.639  -7.964   1.878  0.00  0.00    -0.495 OA
ATOM     39  C   UNL     1      -2.000  -8.928   2.717  0.00  0.00    +0.277 C 
ENDBRANCH  35  38
ENDBRANCH  30  32
ENDBRANCH  21  22
ENDBRANCH  11  21
TORSDOF 6
