REMARK  Name = ZINC12371795
REMARK  7 active torsions:
REMARK  status: ('A' for Active; 'I' for Inactive)
REMARK    1  A    between atoms: C_1  and  O_2
REMARK    2  A    between atoms: O_2  and  C_3
REMARK    3  A    between atoms: C_8  and  C_9
REMARK    4  A    between atoms: C_12  and  S_20
REMARK    5  A    between atoms: N_13  and  C_14
REMARK    6  A    between atoms: S_20  and  C_21
REMARK    7  A    between atoms: C_21  and  C_22
REMARK                            x       y       z     vdW  Elec       q    Type
REMARK                         _______ _______ _______ _____ _____    ______ ____
ROOT
ATOM      1  S   UNL     1       1.430   4.126   1.252  0.00  0.00    -0.078 S 
ENDROOT
BRANCH   1   5
ATOM      2  C   UNL     1       1.086   7.999   1.667  0.00  0.00    +0.173 A 
ATOM      3  N   UNL     1       1.031   7.840   0.364  0.00  0.00    -0.128 NA
ATOM      4  N   UNL     1       1.133   6.594   0.068  0.00  0.00    -0.122 NA
ATOM      5  C   UNL     1       1.260   5.877   1.163  0.00  0.00    +0.197 A 
ATOM      6  N   UNL     1       1.228   6.745   2.220  0.00  0.00    -0.270 N 
BRANCH   2  12
ATOM      7  C   UNL     1       0.011  10.212   2.078  0.00  0.00    +0.131 A 
ATOM      8  C   UNL     1      -0.060  11.407   2.774  0.00  0.00    +0.046 A 
ATOM      9  C   UNL     1       0.853  11.682   3.775  0.00  0.00    +0.004 A 
ATOM     10  C   UNL     1       1.839  10.764   4.093  0.00  0.00    +0.001 A 
ATOM     11  C   UNL     1       1.920   9.567   3.412  0.00  0.00    +0.015 A 
ATOM     12  C   UNL     1       1.004   9.279   2.400  0.00  0.00    +0.061 A 
BRANCH   7  14
ATOM     13  C   UNL     1      -1.867  10.943   0.818  0.00  0.00    +0.277 C 
ATOM     14  O   UNL     1      -0.882   9.944   1.090  0.00  0.00    -0.494 OA
ENDBRANCH   7  14
ENDBRANCH   2  12
BRANCH   6  15
ATOM     15  C   UNL     1       1.323   6.426   3.582  0.00  0.00    +0.051 A 
ATOM     16  C   UNL     1       0.236   6.629   4.422  0.00  0.00    +0.026 A 
ATOM     17  C   UNL     1       0.332   6.309   5.762  0.00  0.00    +0.002 A 
ATOM     18  C   UNL     1       1.511   5.796   6.270  0.00  0.00    +0.000 A 
ATOM     19  C   UNL     1       2.597   5.597   5.437  0.00  0.00    +0.002 A 
ATOM     20  C   UNL     1       2.506   5.910   4.095  0.00  0.00    +0.026 A 
ENDBRANCH   6  15
ENDBRANCH   1   5
BRANCH   1  21
ATOM     21  C   UNL     1       1.376   3.715  -0.510  0.00  0.00    +0.153 C 
BRANCH  21  22
ATOM     22  C   UNL     1       1.508   2.223  -0.682  0.00  0.00    +0.146 A 
ATOM     23  N   UNL     1       2.705   1.679  -0.819  0.00  0.00    -0.199 NA
ATOM     24  C   UNL     1       2.826   0.362  -0.971  0.00  0.00    +0.217 A 
ATOM     25  N   UNL     1       1.741  -0.405  -0.987  0.00  0.00    -0.181 NA
ATOM     26  C   UNL     1       0.540   0.146  -0.850  0.00  0.00    +0.227 A 
ATOM     27  N   UNL     1       0.427   1.464  -0.697  0.00  0.00    -0.198 NA
ATOM     28  N   UNL     1      -0.591  -0.648  -0.866  0.00  0.00    -0.269 N 
ATOM     29  C   UNL     1      -1.911  -0.072  -0.576  0.00  0.00    +0.114 C 
ATOM     30  C   UNL     1      -2.639  -1.027   0.379  0.00  0.00    +0.024 C 
ATOM     31  C   UNL     1      -2.856  -2.364  -0.329  0.00  0.00    +0.038 C 
ATOM     32  C   UNL     1      -1.562  -2.868  -0.912  0.00  0.00    -0.026 A 
ATOM     33  C   UNL     1      -0.498  -2.013  -1.163  0.00  0.00    +0.040 A 
ATOM     34  C   UNL     1       0.680  -2.508  -1.712  0.00  0.00    +0.024 A 
ATOM     35  C   UNL     1       0.792  -3.852  -2.009  0.00  0.00    +0.002 A 
ATOM     36  C   UNL     1      -0.268  -4.704  -1.761  0.00  0.00    +0.000 A 
ATOM     37  C   UNL     1      -1.439  -4.215  -1.206  0.00  0.00    +0.005 A 
ATOM     38  N   UNL     1       4.075  -0.205  -1.113  0.00  0.00    -0.327 N 
ATOM     39  H   UNL     1       4.163  -1.165  -1.224  0.00  0.00    +0.145 HD
ATOM     40  H   UNL     1       4.867   0.356  -1.101  0.00  0.00    +0.145 HD
ENDBRANCH  21  22
ENDBRANCH   1  21
TORSDOF 6
