REMARK  Name = ZINC47169007
REMARK  5 active torsions:
REMARK  status: ('A' for Active; 'I' for Inactive)
REMARK    1  A    between atoms: C_1  and  C_2
REMARK    2  A    between atoms: C_2  and  C_9
REMARK    3  A    between atoms: C_13  and  N_15
REMARK    4  A    between atoms: C_16  and  C_18
REMARK    5  A    between atoms: C_18  and  N_19
REMARK                            x       y       z     vdW  Elec       q    Type
REMARK                         _______ _______ _______ _____ _____    ______ ____
ROOT
ATOM      1  C   UNL     1      -1.328  -1.112  -0.263  0.00  0.00    -0.014 A 
ATOM      2  C   UNL     1      -1.862  -1.356   0.989  0.00  0.00    +0.006 A 
ATOM      3  C   UNL     1      -3.229  -1.288   1.186  0.00  0.00    +0.002 A 
ATOM      4  C   UNL     1      -4.065  -0.976   0.132  0.00  0.00    +0.023 A 
ATOM      5  C   UNL     1      -3.532  -0.730  -1.126  0.00  0.00    +0.034 A 
ATOM      6  C   UNL     1      -2.158  -0.794  -1.319  0.00  0.00    +0.029 A 
ENDROOT
BRANCH   1   8
ATOM      7  C   UNL     1       0.702   0.156  -0.971  0.00  0.00    +0.047 C 
ATOM      8  C   UNL     1       0.163  -1.187  -0.472  0.00  0.00    +0.135 C 
ATOM      9  C   UNL     1       0.513  -2.296  -1.444  0.00  0.00    +0.248 C 
ATOM     10  O   UNL     1       0.170  -2.389  -2.603  0.00  0.00    -0.273 OA
ATOM     11  N   UNL     1       1.285  -3.157  -0.752  0.00  0.00    -0.238 N 
ATOM     12  C   UNL     1       1.469  -2.750   0.509  0.00  0.00    +0.307 C 
ATOM     13  O   UNL     1       2.129  -3.361   1.327  0.00  0.00    -0.252 OA
ATOM     14  N   UNL     1       0.842  -1.589   0.771  0.00  0.00    -0.282 N 
ATOM     15  H   UNL     1       1.660  -3.971  -1.122  0.00  0.00    +0.159 HD
ATOM     16  H   UNL     1       0.837  -1.110   1.615  0.00  0.00    +0.152 HD
ENDBRANCH   1   8
BRANCH   5  17
ATOM     17  N   UNL     1      -4.376  -0.414  -2.196  0.00  0.00    -0.284 N 
ATOM     18  C   UNL     1      -5.595  -0.983  -2.285  0.00  0.00    +0.235 C 
ATOM     19  O   UNL     1      -5.993  -1.705  -1.395  0.00  0.00    -0.274 OA
ATOM     20  H   UNL     1      -4.085   0.216  -2.874  0.00  0.00    +0.155 HD
BRANCH  18  21
ATOM     21  C   UNL     1      -6.462  -0.724  -3.489  0.00  0.00    +0.203 C 
BRANCH  21  22
ATOM     22  N   UNL     1      -7.726  -1.452  -3.346  0.00  0.00    -0.293 N 
ATOM     23  C   UNL     1      -7.840  -2.827  -3.858  0.00  0.00    +0.108 C 
ATOM     24  C   UNL     1      -7.885  -3.789  -2.670  0.00  0.00    +0.019 C 
ATOM     25  C   UNL     1      -9.306  -3.957  -2.164  0.00  0.00    +0.002 C 
ATOM     26  C   UNL     1      -9.886  -2.701  -1.540  0.00  0.00    +0.009 C 
ATOM     27  C   UNL     1     -10.074  -1.609  -2.595  0.00  0.00    +0.096 C 
ATOM     28  C   UNL     1      -8.764  -0.865  -2.749  0.00  0.00    +0.216 C 
ATOM     29  O   UNL     1      -8.660   0.269  -2.331  0.00  0.00    -0.276 OA
ENDBRANCH  21  22
ENDBRANCH  18  21
ENDBRANCH   5  17
TORSDOF 4
