REMARK  Name = ZINC40983929
REMARK  12 active torsions:
REMARK  status: ('A' for Active; 'I' for Inactive)
REMARK    1  A    between atoms: C_1  and  C_2
REMARK    2  A    between atoms: C_2  and  O_3
REMARK    3  A    between atoms: O_3  and  C_4
REMARK    4  A    between atoms: C_12  and  C_14
REMARK    5  A    between atoms: N_17  and  C_20
REMARK    6  A    between atoms: C_20  and  C_21
REMARK    7  A    between atoms: C_22  and  C_36
REMARK    8  A    between atoms: C_24  and  C_26
REMARK    9  A    between atoms: C_29  and  O_32
REMARK   10  A    between atoms: O_32  and  C_33
REMARK   11  A    between atoms: C_33  and  C_34
REMARK   12  A    between atoms: C_33  and  C_35
REMARK                            x       y       z     vdW  Elec       q    Type
REMARK                         _______ _______ _______ _____ _____    ______ ____
ROOT
ATOM      1  C   UNL     1       5.053  -3.359  -5.814  0.00  0.00    +0.072 C 
ATOM      2  C   UNL     1       5.724  -3.810  -4.513  0.00  0.00    -0.006 C 
ATOM      3  C   UNL     1       5.801  -5.338  -4.488  0.00  0.00    -0.078 C 
ATOM      4  N   UNL     1       6.586  -5.811  -5.635  0.00  0.00    +0.383 N 
ATOM      5  C   UNL     1       5.910  -5.444  -6.885  0.00  0.00    -0.078 C 
ATOM      6  C   UNL     1       5.838  -3.921  -7.003  0.00  0.00    -0.006 C 
ATOM      7  H   UNL     1       7.502  -5.388  -5.612  0.00  0.00    -0.081 HD
ENDROOT
BRANCH   1  16
ATOM      8  C   UNL     1       0.805   0.874  -4.275  0.00  0.00    +0.403 C 
ATOM      9  O   UNL     1      -0.085   0.291  -3.689  0.00  0.00    -0.226 OA
ATOM     10  N   UNL     1       1.737   0.175  -4.952  0.00  0.00    -0.264 N 
ATOM     11  C   UNL     1       2.824   0.866  -5.660  0.00  0.00    +0.130 C 
ATOM     12  C   UNL     1       4.164   0.314  -5.160  0.00  0.00    +0.127 C 
ATOM     13  N   UNL     1       4.112  -1.154  -5.204  0.00  0.00    -0.298 N 
ATOM     14  C   UNL     1       3.026  -1.846  -4.495  0.00  0.00    +0.127 C 
ATOM     15  C   UNL     1       1.689  -1.294  -4.991  0.00  0.00    +0.130 C 
ATOM     16  C   UNL     1       5.045  -1.854  -5.881  0.00  0.00    +0.219 C 
ATOM     17  O   UNL     1       5.876  -1.272  -6.544  0.00  0.00    -0.275 OA
BRANCH   8  18
ATOM     18  O   UNL     1       0.861   2.219  -4.247  0.00  0.00    -0.451 OA
BRANCH  18  20
ATOM     19  C   UNL     1       0.069   4.407  -3.593  0.00  0.00    +0.048 C 
ATOM     20  C   UNL     1      -0.159   2.896  -3.510  0.00  0.00    +0.230 C 
ENDBRANCH  18  20
ENDBRANCH   8  18
ENDBRANCH   1  16
BRANCH   4  21
ATOM     21  C   UNL     1       6.722  -7.272  -5.564  0.00  0.00    -0.019 C 
BRANCH  21  22
ATOM     22  C   UNL     1       7.629  -7.746  -6.670  0.00  0.00    +0.066 A 
ATOM     23  C   UNL     1       7.247  -8.102  -7.909  0.00  0.00    +0.124 A 
ATOM     24  O   UNL     1       8.358  -8.461  -8.583  0.00  0.00    -0.440 OA
ATOM     25  C   UNL     1       9.404  -8.321  -7.751  0.00  0.00    +0.228 A 
ATOM     26  N   UNL     1       8.962  -7.882  -6.596  0.00  0.00    -0.216 NA
ATOM     27  C   UNL     1       5.838  -8.101  -8.444  0.00  0.00    +0.088 C 
BRANCH  25  28
ATOM     28  C   UNL     1      10.815  -8.606  -8.083  0.00  0.00    +0.037 A 
ATOM     29  C   UNL     1      11.811  -8.424  -7.122  0.00  0.00    +0.017 A 
ATOM     30  C   UNL     1      13.126  -8.691  -7.436  0.00  0.00    +0.046 A 
ATOM     31  C   UNL     1      13.461  -9.142  -8.706  0.00  0.00    +0.121 A 
ATOM     32  C   UNL     1      12.473  -9.324  -9.665  0.00  0.00    +0.046 A 
ATOM     33  C   UNL     1      11.155  -9.064  -9.358  0.00  0.00    +0.017 A 
BRANCH  31  34
ATOM     34  O   UNL     1      14.759  -9.404  -9.011  0.00  0.00    -0.489 OA
BRANCH  34  35
ATOM     35  C   UNL     1      15.707  -9.309  -7.947  0.00  0.00    +0.167 C 
ATOM     36  C   UNL     1      16.924 -10.180  -8.269  0.00  0.00    +0.051 C 
ATOM     37  C   UNL     1      16.151  -7.854  -7.787  0.00  0.00    +0.051 C 
ENDBRANCH  34  35
ENDBRANCH  31  34
ENDBRANCH  25  28
ENDBRANCH  21  22
ENDBRANCH   4  21
TORSDOF 8
