REMARK  Name = ZINC13467096
REMARK  10 active torsions:
REMARK  status: ('A' for Active; 'I' for Inactive)
REMARK    1  A    between atoms: C_1  and  C_2
REMARK    2  A    between atoms: C_18  and  C_36
REMARK    3  A    between atoms: C_21  and  O_35
REMARK    4  A    between atoms: C_24  and  C_34
REMARK    5  A    between atoms: C_25  and  C_26
REMARK    6  A    between atoms: C_25  and  O_33
REMARK    7  A    between atoms: C_26  and  C_28
REMARK    8  A    between atoms: C_28  and  O_29
REMARK    9  A    between atoms: O_29  and  C_30
REMARK   10  A    between atoms: C_30  and  C_32
REMARK                            x       y       z     vdW  Elec       q    Type
REMARK                         _______ _______ _______ _____ _____    ______ ____
ROOT
ATOM      1  C   UNL     1      -1.689   9.040  -5.213  0.00  0.00    +0.011 C 
ATOM      2  C   UNL     1      -0.509   8.258  -4.633  0.00  0.00    +0.026 C 
ATOM      3  C   UNL     1      -0.981   6.869  -4.146  0.00  0.00    +0.011 C 
ATOM      4  C   UNL     1      -1.224   7.081  -2.640  0.00  0.00    +0.002 C 
ATOM      5  C   UNL     1      -1.284   5.783  -1.873  0.00  0.00    -0.001 C 
ATOM      6  C   UNL     1      -2.385   4.879  -2.429  0.00  0.00    +0.004 C 
ATOM      7  C   UNL     1      -2.478   3.599  -1.593  0.00  0.00    +0.005 C 
ATOM      8  C   UNL     1      -1.134   2.873  -1.643  0.00  0.00    +0.006 C 
ATOM      9  C   UNL     1      -1.196   1.579  -0.831  0.00  0.00    +0.083 C 
ATOM     10  C   UNL     1       0.153   0.900  -0.965  0.00  0.00    +0.156 C 
ATOM     11  O   UNL     1       0.235  -0.303  -1.100  0.00  0.00    -0.293 OA
ATOM     12  C   UNL     1       1.355   1.739  -0.934  0.00  0.00    +0.042 C 
ATOM     13  C   UNL     1       1.263   3.065  -0.984  0.00  0.00    -0.016 C 
ATOM     14  C   UNL     1      -0.051   3.778  -1.059  0.00  0.00    -0.005 C 
ATOM     15  C   UNL     1       0.058   5.049  -1.899  0.00  0.00    +0.031 C 
ATOM     16  C   UNL     1       1.122   5.971  -1.293  0.00  0.00    +0.119 C 
ATOM     17  C   UNL     1       1.255   7.209  -2.175  0.00  0.00    +0.041 C 
ATOM     18  C   UNL     1      -0.059   7.993  -2.214  0.00  0.00    +0.009 C 
ATOM     19  C   UNL     1       0.053   8.989  -3.399  0.00  0.00    +0.135 C 
ATOM     20  C   UNL     1      -0.335   8.707  -0.889  0.00  0.00    +0.015 C 
ATOM     21  C   UNL     1      -0.479   4.164   0.358  0.00  0.00    +0.016 C 
ENDROOT
BRANCH  19  22
ATOM     22  C   UNL     1       1.496   9.360  -3.628  0.00  0.00    +0.202 C 
ATOM     23  O   UNL     1       2.163   8.734  -4.417  0.00  0.00    -0.291 OA
BRANCH  22  24
ATOM     24  C   UNL     1       2.106  10.513  -2.874  0.00  0.00    +0.309 C 
BRANCH  24  25
ATOM     25  O   UNL     1       3.495  10.668  -3.267  0.00  0.00    -0.457 OA
BRANCH  25  26
ATOM     26  C   UNL     1       4.188  11.658  -2.683  0.00  0.00    +0.304 C 
ATOM     27  O   UNL     1       3.651  12.372  -1.869  0.00  0.00    -0.251 OA
ATOM     28  C   UNL     1       5.635  11.880  -3.041  0.00  0.00    +0.136 C 
ENDBRANCH  25  26
ENDBRANCH  24  25
ENDBRANCH  22  24
ENDBRANCH  19  22
BRANCH  19  29
ATOM     29  O   UNL     1      -0.718  10.162  -3.130  0.00  0.00    -0.380 OA
ATOM     30  H   UNL     1      -0.688  10.823  -3.834  0.00  0.00    +0.211 HD
ENDBRANCH  19  29
BRANCH  16  31
ATOM     31  O   UNL     1       0.727   6.357   0.025  0.00  0.00    -0.391 OA
ATOM     32  H   UNL     1       1.356   6.942   0.469  0.00  0.00    +0.210 HD
ENDBRANCH  16  31
TORSDOF 6
