REMARK  Name = ZINC14802564
REMARK  7 active torsions:
REMARK  status: ('A' for Active; 'I' for Inactive)
REMARK    1  A    between atoms: C_1  and  C_2
REMARK    2  A    between atoms: C_5  and  C_9
REMARK    3  A    between atoms: C_6  and  C_8
REMARK    4  A    between atoms: N_11  and  N_12
REMARK    5  A    between atoms: C_13  and  C_15
REMARK    6  A    between atoms: C_15  and  N_16
REMARK    7  A    between atoms: C_24  and  C_26
REMARK                            x       y       z     vdW  Elec       q    Type
REMARK                         _______ _______ _______ _____ _____    ______ ____
ROOT
ATOM      1  N   UNL     1       3.927  -0.147  -1.722  0.00  0.00    -0.233 N 
ATOM      2  C   UNL     1       2.636   0.130  -1.452  0.00  0.00    +0.247 C 
ATOM      3  O   UNL     1       1.883   0.446  -2.349  0.00  0.00    -0.273 OA
ATOM      4  H   UNL     1       4.529  -0.400  -1.005  0.00  0.00    +0.173 HD
ENDROOT
BRANCH   1   7
ATOM      5  C   UNL     1       5.691  -0.345  -3.309  0.00  0.00    +0.260 C 
ATOM      6  O   UNL     1       6.445  -0.662  -2.410  0.00  0.00    -0.269 OA
ATOM      7  N   UNL     1       4.399  -0.069  -3.039  0.00  0.00    -0.230 N 
ATOM      8  H   UNL     1       3.797   0.184  -3.756  0.00  0.00    +0.173 HD
BRANCH   5  13
ATOM      9  C   UNL     1       7.632  -0.023  -8.717  0.00  0.00    +0.044 C 
ATOM     10  C   UNL     1       7.123  -0.107  -7.301  0.00  0.00    -0.050 A 
ATOM     11  C   UNL     1       5.773   0.049  -7.043  0.00  0.00    +0.004 A 
ATOM     12  C   UNL     1       5.301  -0.027  -5.749  0.00  0.00    +0.013 A 
ATOM     13  C   UNL     1       6.189  -0.262  -4.698  0.00  0.00    +0.041 A 
ATOM     14  C   UNL     1       7.551  -0.414  -4.964  0.00  0.00    -0.038 A 
ATOM     15  C   UNL     1       8.009  -0.341  -6.264  0.00  0.00    +0.007 A 
ATOM     16  C   UNL     1       8.518  -0.663  -3.836  0.00  0.00    +0.044 C 
ENDBRANCH   5  13
ENDBRANCH   1   7
BRANCH   2  17
ATOM     17  C   UNL     1       2.127   0.045  -0.036  0.00  0.00    +0.215 C 
BRANCH  17  18
ATOM     18  N   UNL     1       0.704   0.390  -0.007  0.00  0.00    -0.215 N 
ATOM     19  C   UNL     1       0.230   1.641   0.166  0.00  0.00    +0.247 C 
ATOM     20  O   UNL     1       0.875   2.655   0.321  0.00  0.00    -0.273 OA
ATOM     21  C   UNL     1      -1.276   1.511   0.125  0.00  0.00    +0.115 C 
ATOM     22  C   UNL     1      -1.847   2.319  -1.035  0.00  0.00    +0.035 C 
ATOM     23  C   UNL     1      -3.368   2.153  -1.077  0.00  0.00    +0.003 C 
ATOM     24  C   UNL     1      -3.969   2.634   0.246  0.00  0.00    +0.000 C 
ATOM     25  C   UNL     1      -3.405   1.798   1.397  0.00  0.00    +0.006 C 
ATOM     26  C   UNL     1      -1.884   1.962   1.448  0.00  0.00    +0.018 C 
ATOM     27  C   UNL     1      -1.318   1.110   2.586  0.00  0.00    +0.010 C 
ATOM     28  N   UNL     1      -1.505   0.077  -0.091  0.00  0.00    -0.285 N 
ATOM     29  C   UNL     1      -0.288  -0.498  -0.149  0.00  0.00    +0.310 C 
ATOM     30  O   UNL     1      -0.111  -1.689  -0.318  0.00  0.00    -0.252 OA
ATOM     31  H   UNL     1      -2.362  -0.369  -0.173  0.00  0.00    +0.151 HD
ENDBRANCH  17  18
ENDBRANCH   2  17
TORSDOF 4
