REMARK  Name = ZINC20036808
REMARK  5 active torsions:
REMARK  status: ('A' for Active; 'I' for Inactive)
REMARK    1  A    between atoms: C_1  and  C_2
REMARK    2  A    between atoms: C_7  and  N_8
REMARK    3  A    between atoms: C_12  and  N_13
REMARK    4  A    between atoms: N_13  and  C_14
REMARK    5  A    between atoms: C_25  and  C_27
REMARK                            x       y       z     vdW  Elec       q    Type
REMARK                         _______ _______ _______ _____ _____    ______ ____
ROOT
ATOM      1  N   UNL     1       0.025  -0.013   2.418  0.00  0.00    -0.156 N 
ATOM      2  C   UNL     1      -0.865  -0.199   3.414  0.00  0.00    +0.273 C 
ATOM      3  O   UNL     1      -1.801  -0.981   3.424  0.00  0.00    -0.268 OA
ATOM      4  C   UNL     1      -0.479   0.730   4.482  0.00  0.00    +0.075 C 
ATOM      5  C   UNL     1      -1.095   0.906   5.711  0.00  0.00    +0.087 C 
ATOM      6  C   UNL     1       0.704   1.433   3.965  0.00  0.00    +0.070 C 
ATOM      7  N   UNL     1       0.952   0.964   2.780  0.00  0.00    -0.176 NA
ATOM      8  C   UNL     1       1.490   2.500   4.682  0.00  0.00    +0.068 C 
ENDROOT
BRANCH   1  15
ATOM      9  C   UNL     1      -0.018   1.503   0.010  0.00  0.00    +0.046 C 
ATOM     10  C   UNL     1       0.002  -0.004   0.002  0.00  0.00    -0.026 A 
ATOM     11  C   UNL     1       0.006  -0.689  -1.198  0.00  0.00    +0.020 A 
ATOM     12  C   UNL     1       0.024  -2.072  -1.206  0.00  0.00    +0.018 A 
ATOM     13  C   UNL     1       0.039  -2.774  -0.013  0.00  0.00    +0.017 A 
ATOM     14  C   UNL     1       0.035  -2.094   1.189  0.00  0.00    +0.027 A 
ATOM     15  C   UNL     1       0.023  -0.705   1.200  0.00  0.00    +0.063 A 
ATOM     16 BR   UNL     1       0.028  -3.006  -2.850  0.00  0.00    -0.050 Br
ENDBRANCH   1  15
BRANCH   5  17
ATOM     17  N   UNL     1      -2.181   0.174   6.032  0.00  0.00    -0.320 N 
ATOM     18  H   UNL     1      -2.531  -0.476   5.402  0.00  0.00    +0.152 HD
BRANCH  17  19
ATOM     19  C   UNL     1      -2.803   0.351   7.272  0.00  0.00    +0.033 A 
ATOM     20  C   UNL     1      -2.304   1.288   8.171  0.00  0.00    +0.025 A 
ATOM     21  C   UNL     1      -2.913   1.468   9.396  0.00  0.00    +0.029 A 
ATOM     22  C   UNL     1      -4.027   0.713   9.733  0.00  0.00    +0.067 A 
ATOM     23  C   UNL     1      -4.531  -0.228   8.833  0.00  0.00    +0.069 A 
ATOM     24  C   UNL     1      -3.921  -0.403   7.601  0.00  0.00    +0.051 A 
ATOM     25  N   UNL     1      -5.635  -0.819   9.443  0.00  0.00    -0.306 N 
ATOM     26  C   UNL     1      -5.796  -0.263  10.659  0.00  0.00    +0.325 A 
ATOM     27  N   UNL     1      -4.841   0.664  10.864  0.00  0.00    -0.306 N 
ATOM     28  H   UNL     1      -4.738   1.206  11.662  0.00  0.00    +0.170 HD
ATOM     29  O   UNL     1      -6.671  -0.555  11.452  0.00  0.00    -0.247 OA
ATOM     30  H   UNL     1      -6.193  -1.512   9.058  0.00  0.00    +0.170 HD
ENDBRANCH  17  19
ENDBRANCH   5  17
TORSDOF 3
