REMARK  Name = ZINC14704805
REMARK  6 active torsions:
REMARK  status: ('A' for Active; 'I' for Inactive)
REMARK    1  A    between atoms: C_1  and  C_2
REMARK    2  A    between atoms: C_7  and  C_8
REMARK    3  A    between atoms: C_8  and  O_9
REMARK    4  A    between atoms: O_9  and  C_10
REMARK    5  A    between atoms: C_10  and  C_12
REMARK    6  A    between atoms: C_21  and  C_24
REMARK                            x       y       z     vdW  Elec       q    Type
REMARK                         _______ _______ _______ _____ _____    ______ ____
ROOT
ATOM      1  C   UNL     1      -1.264  -0.758   0.010  0.00  0.00    +0.061 A 
ATOM      2  C   UNL     1      -2.484  -0.074   0.025  0.00  0.00    +0.016 A 
ATOM      3  C   UNL     1      -3.665  -0.782   0.031  0.00  0.00    +0.017 A 
ATOM      4  C   UNL     1      -3.644  -2.171   0.023  0.00  0.00    +0.030 A 
ATOM      5  C   UNL     1      -2.431  -2.868   0.011  0.00  0.00    +0.048 A 
ATOM      6  C   UNL     1      -1.243  -2.155  -0.003  0.00  0.00    +0.039 A 
ATOM      7  N   UNL     1      -2.392  -4.260   0.010  0.00  0.00    -0.284 N 
ATOM      8  C   UNL     1      -3.370  -5.075  -0.376  0.00  0.00    +0.230 C 
ATOM      9  O   UNL     1      -3.173  -6.271  -0.325  0.00  0.00    -0.274 OA
ATOM     10  C   UNL     1      -4.706  -4.596  -0.873  0.00  0.00    +0.134 C 
ATOM     11  S   UNL     1      -5.157  -3.081   0.026  0.00  0.00    -0.111 S 
ATOM     12  C   UNL     1      -4.619  -4.297  -2.371  0.00  0.00    +0.029 C 
ATOM     13  H   UNL     1      -1.572  -4.676   0.321  0.00  0.00    +0.155 HD
ENDROOT
BRANCH   1  14
ATOM     14  C   UNL     1       0.002  -0.004   0.002  0.00  0.00    +0.340 C 
ATOM     15  O   UNL     1       1.063  -0.597  -0.011  0.00  0.00    -0.245 OA
BRANCH  14  16
ATOM     16  O   UNL     1      -0.016   1.343   0.009  0.00  0.00    -0.456 OA
BRANCH  16  17
ATOM     17  C   UNL     1       1.268   2.020   0.001  0.00  0.00    +0.268 C 
BRANCH  17  24
ATOM     18  C   UNL     1       3.536   3.811   0.001  0.00  0.00    +0.044 C 
ATOM     19  C   UNL     1       2.135   4.368   0.011  0.00  0.00    -0.044 A 
ATOM     20  C   UNL     1       1.936   5.736   0.016  0.00  0.00    +0.004 A 
ATOM     21  C   UNL     1       0.651   6.247   0.030  0.00  0.00    +0.000 A 
ATOM     22  C   UNL     1      -0.433   5.390   0.035  0.00  0.00    +0.000 A 
ATOM     23  C   UNL     1      -0.234   4.022   0.026  0.00  0.00    +0.007 A 
ATOM     24  C   UNL     1       1.051   3.511   0.011  0.00  0.00    -0.007 A 
ENDBRANCH  17  24
ENDBRANCH  16  17
ENDBRANCH  14  16
ENDBRANCH   1  14
TORSDOF 4
