REMARK  Name = ZINC64623098
REMARK  6 active torsions:
REMARK  status: ('A' for Active; 'I' for Inactive)
REMARK    1  A    between atoms: C_1  and  O_2
REMARK    2  A    between atoms: O_2  and  C_3
REMARK    3  A    between atoms: C_6  and  C_9
REMARK    4  A    between atoms: N_26  and  C_27
REMARK    5  A    between atoms: C_31  and  S_33
REMARK    6  A    between atoms: S_33  and  C_34
REMARK                            x       y       z     vdW  Elec       q    Type
REMARK                         _______ _______ _______ _____ _____    ______ ____
ROOT
ATOM      1  C   UNL     1       1.942  -2.387   4.032  0.00  0.00    +0.134 C 
ATOM      2  C   UNL     1       3.403  -2.600   3.623  0.00  0.00    +0.131 C 
ATOM      3  C   UNL     1       3.454  -3.918   2.861  0.00  0.00    -0.035 C 
ATOM      4  C   UNL     1       3.991  -3.647   1.677  0.00  0.00    -0.001 A 
ATOM      5  C   UNL     1       4.356  -4.514   0.546  0.00  0.00    +0.010 A 
ATOM      6  C   UNL     1       4.885  -3.891  -0.540  0.00  0.00    +0.001 A 
ATOM      7  C   UNL     1       5.084  -2.509  -0.613  0.00  0.00    +0.002 A 
ATOM      8  C   UNL     1       4.782  -1.637   0.381  0.00  0.00    +0.026 A 
ATOM      9  C   UNL     1       4.223  -2.174   1.578  0.00  0.00    +0.043 A 
ATOM     10  N   UNL     1       3.865  -1.566   2.695  0.00  0.00    -0.375 N 
ATOM     11  C   UNL     1       2.894  -5.202   3.424  0.00  0.00    +0.052 C 
ATOM     12  C   UNL     1       1.462  -4.891   3.896  0.00  0.00    +0.114 C 
ATOM     13  N   UNL     1       1.460  -3.632   4.651  0.00  0.00    -0.276 N 
ATOM     14  C   UNL     1       1.013  -3.616   5.923  0.00  0.00    +0.307 C 
ATOM     15  O   UNL     1       0.924  -2.562   6.522  0.00  0.00    -0.252 OA
ATOM     16  N   UNL     1       0.666  -4.768   6.529  0.00  0.00    -0.269 N 
ATOM     17  H   UNL     1       0.797  -5.615   6.074  0.00  0.00    +0.156 HD
ATOM     18  H   UNL     1       3.893  -0.613   2.875  0.00  0.00    +0.160 HD
ENDROOT
BRANCH   1  22
ATOM     19  C   UNL     1      -0.409  -1.482   0.581  0.00  0.00    +0.120 A 
ATOM     20  C   UNL     1       0.139  -2.747   0.736  0.00  0.00    +0.046 A 
ATOM     21  C   UNL     1       0.898  -3.037   1.852  0.00  0.00    +0.009 A 
ATOM     22  C   UNL     1       1.113  -2.068   2.815  0.00  0.00    -0.024 A 
ATOM     23  C   UNL     1       0.567  -0.807   2.663  0.00  0.00    +0.009 A 
ATOM     24  C   UNL     1      -0.188  -0.510   1.545  0.00  0.00    +0.046 A 
BRANCH  19  26
ATOM     25  C   UNL     1      -1.343  -2.244  -1.469  0.00  0.00    +0.277 C 
ATOM     26  O   UNL     1      -1.157  -1.194  -0.517  0.00  0.00    -0.495 OA
ENDBRANCH  19  26
ENDBRANCH   1  22
BRANCH  16  27
ATOM     27  C   UNL     1       0.117  -4.743   7.816  0.00  0.00    +0.036 A 
ATOM     28  C   UNL     1       0.338  -3.650   8.646  0.00  0.00    +0.023 A 
ATOM     29  C   UNL     1      -0.203  -3.625   9.916  0.00  0.00    +0.003 A 
ATOM     30  C   UNL     1      -0.966  -4.685  10.368  0.00  0.00    +0.015 A 
ATOM     31  C   UNL     1      -1.190  -5.781   9.543  0.00  0.00    +0.009 A 
ATOM     32  C   UNL     1      -0.652  -5.807   8.263  0.00  0.00    +0.038 A 
BRANCH  31  33
ATOM     33  S   UNL     1      -2.162  -7.134  10.120  0.00  0.00    -0.129 S 
ATOM     34  C   UNL     1      -2.636  -6.648  11.802  0.00  0.00    +0.090 C 
ENDBRANCH  31  33
ENDBRANCH  16  27
TORSDOF 4
