REMARK  Name = ZINC11177545
REMARK  9 active torsions:
REMARK  status: ('A' for Active; 'I' for Inactive)
REMARK    1  A    between atoms: C_1  and  C_2
REMARK    2  A    between atoms: C_5  and  C_8
REMARK    3  A    between atoms: C_9  and  C_10
REMARK    4  A    between atoms: C_10  and  O_12
REMARK    5  A    between atoms: O_12  and  C_13
REMARK    6  A    between atoms: C_13  and  C_14
REMARK    7  A    between atoms: N_16  and  C_17
REMARK    8  A    between atoms: C_21  and  S_23
REMARK    9  A    between atoms: S_23  and  N_26
REMARK                            x       y       z     vdW  Elec       q    Type
REMARK                         _______ _______ _______ _____ _____    ______ ____
ROOT
ATOM      1  C   UNL     1       2.709   7.791   3.960  0.00  0.00    +0.035 A 
ATOM      2  C   UNL     1       3.964   7.266   4.244  0.00  0.00    +0.023 A 
ATOM      3  C   UNL     1       4.242   5.947   3.945  0.00  0.00    +0.004 A 
ATOM      4  C   UNL     1       3.272   5.147   3.369  0.00  0.00    +0.029 A 
ATOM      5  C   UNL     1       2.024   5.668   3.081  0.00  0.00    +0.114 A 
ATOM      6  C   UNL     1       1.739   6.987   3.377  0.00  0.00    +0.052 A 
ENDROOT
BRANCH   1   9
ATOM      7  C   UNL     1       1.179   9.482   4.638  0.00  0.00    +0.255 C 
ATOM      8  O   UNL     1       0.331   8.631   4.806  0.00  0.00    -0.272 OA
ATOM      9  N   UNL     1       2.424   9.127   4.262  0.00  0.00    -0.283 N 
ATOM     10  H   UNL     1       3.122   9.798   4.201  0.00  0.00    +0.155 HD
BRANCH   7  11
ATOM     11  C   UNL     1       0.840  10.935   4.847  0.00  0.00    +0.328 C 
BRANCH  11  12
ATOM     12  O   UNL     1      -0.529  11.054   5.239  0.00  0.00    -0.452 OA
BRANCH  12  13
ATOM     13  C   UNL     1      -0.995  12.299   5.468  0.00  0.00    +0.332 C 
ATOM     14  O   UNL     1      -0.257  13.258   5.338  0.00  0.00    -0.246 OA
BRANCH  13  16
ATOM     15  C   UNL     1      -2.852  13.742   6.100  0.00  0.00    +0.015 C 
ATOM     16  C   UNL     1      -2.386  12.496   5.871  0.00  0.00    +0.092 C 
BRANCH  15  21
ATOM     17  C   UNL     1      -8.323  14.517   7.687  0.00  0.00    +0.044 C 
ATOM     18  C   UNL     1      -6.889  14.314   7.272  0.00  0.00    -0.050 A 
ATOM     19  C   UNL     1      -6.053  15.407   7.125  0.00  0.00    +0.004 A 
ATOM     20  C   UNL     1      -4.739  15.230   6.745  0.00  0.00    +0.008 A 
ATOM     21  C   UNL     1      -4.253  13.940   6.507  0.00  0.00    -0.025 A 
ATOM     22  C   UNL     1      -5.105  12.841   6.651  0.00  0.00    +0.008 A 
ATOM     23  C   UNL     1      -6.415  13.035   7.038  0.00  0.00    +0.004 A 
ENDBRANCH  15  21
ENDBRANCH  13  16
ENDBRANCH  12  13
ENDBRANCH  11  12
ENDBRANCH   7  11
ENDBRANCH   1   9
BRANCH   5  24
ATOM     24  S   UNL     1       0.794   4.646   2.341  0.00  0.00    +0.100 S 
ATOM     25  O   UNL     1      -0.464   5.216   2.678  0.00  0.00    -0.146 OA
ATOM     26  O   UNL     1       1.133   3.304   2.664  0.00  0.00    -0.146 OA
BRANCH  24  27
ATOM     27  N   UNL     1       0.956   4.794   0.700  0.00  0.00    -0.118 NA
ATOM     28  C   UNL     1       0.167   4.141  -0.089  0.00  0.00    +0.117 C 
ATOM     29  C   UNL     1      -0.890   3.256   0.445  0.00  0.00    +0.073 C 
ATOM     30  C   UNL     1      -0.490   1.782   0.628  0.00  0.00    +0.008 C 
ATOM     31  C   UNL     1       0.367   1.313  -0.577  0.00  0.00    +0.002 C 
ATOM     32  C   UNL     1      -0.139   1.861  -1.884  0.00  0.00    +0.019 C 
ATOM     33  C   UNL     1       0.705   3.105  -2.184  0.00  0.00    +0.102 C 
ATOM     34  N   UNL     1       0.282   4.247  -1.484  0.00  0.00    -0.331 N 
ATOM     35  H   UNL     1       0.077   5.075  -1.946  0.00  0.00    +0.147 HD
ENDBRANCH  24  27
ENDBRANCH   5  24
TORSDOF 8
