REMARK  Name = ZINC41124689
REMARK  5 active torsions:
REMARK  status: ('A' for Active; 'I' for Inactive)
REMARK    1  A    between atoms: C_5  and  S_16
REMARK    2  A    between atoms: S_16  and  N_19
REMARK    3  A    between atoms: N_19  and  C_20
REMARK    4  A    between atoms: C_23  and  O_26
REMARK    5  A    between atoms: O_26  and  C_27
REMARK                            x       y       z     vdW  Elec       q    Type
REMARK                         _______ _______ _______ _____ _____    ______ ____
ROOT
ATOM      1  S   UNL     1       6.400   2.320  -0.146  0.00  0.00    +0.092 S 
ATOM      2  O   UNL     1       7.403   1.440  -0.634  0.00  0.00    -0.148 OA
ATOM      3  O   UNL     1       6.131   3.578  -0.750  0.00  0.00    -0.148 OA
ENDROOT
BRANCH   1   8
ATOM      4  C   UNL     1       0.089   1.328  -0.326  0.00  0.00    +0.001 A 
ATOM      5  C   UNL     1       1.246   2.054  -0.311  0.00  0.00    +0.008 A 
ATOM      6  C   UNL     1       2.487   1.398  -0.246  0.00  0.00    -0.015 A 
ATOM      7  C   UNL     1       3.705   2.100  -0.229  0.00  0.00    +0.037 A 
ATOM      8  C   UNL     1       4.886   1.418  -0.166  0.00  0.00    +0.112 A 
ATOM      9  C   UNL     1       4.924   0.029  -0.118  0.00  0.00    +0.042 A 
ATOM     10  C   UNL     1       3.744  -0.701  -0.133  0.00  0.00    +0.047 A 
ATOM     11  C   UNL     1       2.512  -0.012  -0.197  0.00  0.00    +0.006 A 
ATOM     12  C   UNL     1       1.304  -0.746  -0.213  0.00  0.00    +0.046 A 
ATOM     13  C   UNL     1       0.100  -0.061  -0.278  0.00  0.00    +0.014 A 
ATOM     14  C   UNL     1       1.371  -2.214  -0.161  0.00  0.00    +0.251 C 
ATOM     15  O   UNL     1       0.344  -2.866  -0.174  0.00  0.00    -0.270 OA
ATOM     16  N   UNL     1       2.561  -2.840  -0.100  0.00  0.00    -0.248 N 
ATOM     17  C   UNL     1       3.729  -2.170  -0.084  0.00  0.00    +0.251 C 
ATOM     18  O   UNL     1       4.778  -2.784  -0.029  0.00  0.00    -0.270 OA
ATOM     19  H   UNL     1       2.578  -3.809  -0.067  0.00  0.00    +0.158 HD
ENDBRANCH   1   8
BRANCH   1  20
ATOM     20  N   UNL     1       6.768   2.624   1.439  0.00  0.00    -0.098 NA
BRANCH  20  21
ATOM     21  C   UNL     1       7.929   3.333   1.764  0.00  0.00    +0.075 A 
ATOM     22  C   UNL     1       8.771   3.786   0.757  0.00  0.00    +0.030 A 
ATOM     23  C   UNL     1       9.918   4.486   1.079  0.00  0.00    +0.048 A 
ATOM     24  C   UNL     1      10.229   4.736   2.407  0.00  0.00    +0.129 A 
ATOM     25  C   UNL     1       9.388   4.283   3.414  0.00  0.00    +0.048 A 
ATOM     26  C   UNL     1       8.238   3.589   3.094  0.00  0.00    +0.030 A 
BRANCH  24  27
ATOM     27  O   UNL     1      11.358   5.424   2.723  0.00  0.00    -0.455 OA
BRANCH  27  28
ATOM     28  C   UNL     1      11.421   6.738   2.382  0.00  0.00    +0.147 A 
ATOM     29  C   UNL     1      10.308   7.371   1.848  0.00  0.00    +0.049 A 
ATOM     30  C   UNL     1      10.374   8.707   1.502  0.00  0.00    +0.023 A 
ATOM     31  C   UNL     1      11.549   9.414   1.687  0.00  0.00    +0.043 A 
ATOM     32  C   UNL     1      12.661   8.785   2.219  0.00  0.00    +0.043 A 
ATOM     33  C   UNL     1      12.598   7.450   2.571  0.00  0.00    +0.085 A 
ATOM     34 CL   UNL     1      13.991   6.662   3.244  0.00  0.00    -0.080 Cl
ATOM     35 CL   UNL     1      11.629  11.092   1.250  0.00  0.00    -0.083 Cl
ENDBRANCH  27  28
ENDBRANCH  24  27
ENDBRANCH  20  21
ENDBRANCH   1  20
TORSDOF 5
