REMARK  Name = ZINC28289897
REMARK  5 active torsions:
REMARK  status: ('A' for Active; 'I' for Inactive)
REMARK    1  A    between atoms: C_3  and  C_6
REMARK    2  A    between atoms: C_6  and  C_8
REMARK    3  A    between atoms: C_6  and  N_24
REMARK    4  A    between atoms: C_8  and  N_9
REMARK    5  A    between atoms: C_10  and  C_12
REMARK                            x       y       z     vdW  Elec       q    Type
REMARK                         _______ _______ _______ _____ _____    ______ ____
ROOT
ATOM      1  N   UNL     1       3.303  -3.445  -1.337  0.00  0.00    -0.310 N 
ATOM      2  C   UNL     1       3.446  -4.203  -2.442  0.00  0.00    +0.279 C 
ATOM      3  O   UNL     1       2.979  -3.831  -3.500  0.00  0.00    -0.267 OA
ATOM      4  H   UNL     1       3.726  -3.782  -0.380  0.00  0.00    +0.149 HD
ENDROOT
BRANCH   2   5
ATOM      5  C   UNL     1       4.174  -5.492  -2.366  0.00  0.00    +0.193 A 
ATOM      6  C   UNL     1       4.303  -6.234  -3.493  0.00  0.00    +0.103 A 
ATOM      7  C   UNL     1       5.026  -7.513  -3.419  0.00  0.00    +0.193 A 
ATOM      8  O   UNL     1       5.171  -8.221  -4.400  0.00  0.00    -0.287 OA
ATOM      9  C   UNL     1       5.565  -7.897  -2.101  0.00  0.00    +0.065 A 
ATOM     10  C   UNL     1       6.266  -9.090  -1.925  0.00  0.00    +0.030 A 
ATOM     11  C   UNL     1       6.754  -9.414  -0.677  0.00  0.00    +0.019 A 
ATOM     12  C   UNL     1       6.550  -8.558   0.397  0.00  0.00    +0.019 A 
ATOM     13  C   UNL     1       5.859  -7.377   0.236  0.00  0.00    +0.048 A 
ATOM     14  C   UNL     1       5.357  -7.030  -1.015  0.00  0.00    +0.140 A 
ATOM     15  O   UNL     1       4.684  -5.876  -1.187  0.00  0.00    -0.450 OA
ATOM     16 BR   UNL     1       7.705 -11.029  -0.428  0.00  0.00    -0.050 Br
ENDBRANCH   2   5
BRANCH   1  17
ATOM     17  C   UNL     1       2.583  -2.171  -1.412  0.00  0.00    +0.094 C 
BRANCH  17  18
ATOM     18  C   UNL     1       2.565  -1.514  -0.030  0.00  0.00    -0.013 C 
BRANCH  18  19
ATOM     19  N   UNL     1       1.998  -2.450   0.950  0.00  0.00    +0.386 N 
ATOM     20  C   UNL     1       0.662  -2.922   0.521  0.00  0.00    -0.078 C 
ATOM     21  C   UNL     1      -0.072  -3.662   1.606  0.00  0.00    -0.019 C 
ATOM     22  C   UNL     1      -0.974  -2.660   2.357  0.00  0.00    -0.002 C 
ATOM     23  C   UNL     1      -0.224  -1.848   3.307  0.00  0.00    -0.002 C 
ATOM     24  C   UNL     1       0.862  -0.996   2.616  0.00  0.00    -0.019 C 
ATOM     25  C   UNL     1       2.041  -1.880   2.315  0.00  0.00    -0.078 C 
ATOM     26  H   UNL     1       2.629  -3.350   0.987  0.00  0.00    -0.081 HD
ENDBRANCH  18  19
BRANCH  18  29
ATOM     27  C   UNL     1       1.108   2.003   0.130  0.00  0.00    +0.008 A 
ATOM     28  C   UNL     1       2.056   1.004   0.256  0.00  0.00    +0.009 A 
ATOM     29  C   UNL     1       1.721  -0.266  -0.079  0.00  0.00    -0.022 A 
ATOM     30  S   UNL     1       0.021  -0.077  -0.591  0.00  0.00    -0.103 S 
ATOM     31  C   UNL     1      -0.128   1.682  -0.325  0.00  0.00    +0.045 A 
ENDBRANCH  18  29
ENDBRANCH  17  18
ENDBRANCH   1  17
TORSDOF 5
