REMARK  Name = ZINC32129722
REMARK  5 active torsions:
REMARK  status: ('A' for Active; 'I' for Inactive)
REMARK    1  A    between atoms: C_1  and  C_2
REMARK    2  A    between atoms: C_2  and  C_4
REMARK    3  A    between atoms: C_2  and  N_11
REMARK    4  A    between atoms: C_7  and  N_10
REMARK    5  A    between atoms: C_12  and  C_14
REMARK                            x       y       z     vdW  Elec       q    Type
REMARK                         _______ _______ _______ _____ _____    ______ ____
ROOT
ATOM      1  N   UNL     1       0.002  -0.004   0.002  0.00  0.00    -0.305 N 
ATOM      2  C   UNL     1      -0.016   1.344   0.009  0.00  0.00    +0.245 C 
ATOM      3  O   UNL     1      -1.077   1.937   0.018  0.00  0.00    -0.270 OA
ATOM      4  H   UNL     1       0.962  -0.541  -0.010  0.00  0.00    +0.150 HD
ENDROOT
BRANCH   2   5
ATOM      5  C   UNL     1       1.252   2.099   0.001  0.00  0.00    +0.040 A 
ATOM      6  C   UNL     1       2.472   1.419  -0.008  0.00  0.00    +0.017 A 
ATOM      7  C   UNL     1       3.655   2.125  -0.022  0.00  0.00    +0.050 A 
ATOM      8  C   UNL     1       3.639   3.514  -0.014  0.00  0.00    +0.166 A 
ATOM      9  C   UNL     1       2.424   4.199   0.001  0.00  0.00    +0.167 A 
ATOM     10  C   UNL     1       1.235   3.496   0.009  0.00  0.00    +0.062 A 
ATOM     11  O   UNL     1       2.680   5.540   0.007  0.00  0.00    -0.453 OA
ATOM     12  C   UNL     1       4.058   5.666   0.407  0.00  0.00    +0.466 C 
ATOM     13  O   UNL     1       4.653   4.426  -0.019  0.00  0.00    -0.453 OA
ENDBRANCH   2   5
BRANCH   1  15
ATOM     14  C   UNL     1      -1.745  -0.914   1.451  0.00  0.00    +0.033 C 
ATOM     15  C   UNL     1      -1.256  -0.754   0.010  0.00  0.00    +0.100 C 
BRANCH  15  16
ATOM     16  C   UNL     1      -1.035  -2.114  -0.600  0.00  0.00    -0.027 A 
ATOM     17  C   UNL     1       0.127  -2.812  -0.325  0.00  0.00    +0.007 A 
ATOM     18  C   UNL     1       0.330  -4.061  -0.878  0.00  0.00    +0.023 A 
ATOM     19  C   UNL     1      -0.628  -4.611  -1.720  0.00  0.00    +0.025 A 
ATOM     20  C   UNL     1      -1.791  -3.905  -1.998  0.00  0.00    +0.023 A 
ATOM     21  C   UNL     1      -1.991  -2.658  -1.438  0.00  0.00    +0.007 A 
BRANCH  19  22
ATOM     22  N   UNL     1      -0.422  -5.872  -2.285  0.00  0.00    -0.358 N 
ATOM     23  H   UNL     1      -1.182  -6.306  -2.952  0.00  0.00    +0.142 HD
ATOM     24  H   UNL     1       0.499  -6.430  -2.064  0.00  0.00    +0.142 HD
ENDBRANCH  19  22
ENDBRANCH  15  16
ENDBRANCH   1  15
TORSDOF 4
