REMARK  Name = ZINC41006862
REMARK  10 active torsions:
REMARK  status: ('A' for Active; 'I' for Inactive)
REMARK    1  A    between atoms: C_1  and  C_2
REMARK    2  A    between atoms: C_2  and  O_40
REMARK    3  A    between atoms: C_6  and  C_31
REMARK    4  A    between atoms: C_8  and  C_21
REMARK    5  A    between atoms: C_10  and  C_12
REMARK    6  A    between atoms: N_14  and  C_15
REMARK    7  A    between atoms: C_24  and  C_27
REMARK    8  A    between atoms: C_27  and  O_29
REMARK    9  A    between atoms: O_29  and  C_30
REMARK   10  A    between atoms: N_33  and  C_34
REMARK                            x       y       z     vdW  Elec       q    Type
REMARK                         _______ _______ _______ _____ _____    ______ ____
ROOT
ATOM      1  C   UNL     1       1.193   1.736   0.988  0.00  0.00    +0.042 C 
ATOM      2  C   UNL     1       1.478   0.260   0.699  0.00  0.00    +0.082 C 
ATOM      3  C   UNL     1       2.269   0.139  -0.608  0.00  0.00    +0.110 C 
ATOM      4  C   UNL     1       3.624   0.780  -0.411  0.00  0.00    +0.148 C 
ATOM      5  O   UNL     1       4.037   1.607  -1.189  0.00  0.00    -0.296 OA
ATOM      6  C   UNL     1       4.450   0.360   0.785  0.00  0.00    +0.149 C 
ATOM      7  C   UNL     1       3.580   0.473   2.041  0.00  0.00    +0.053 C 
ATOM      8  C   UNL     1       2.297  -0.335   1.846  0.00  0.00    +0.115 C 
ENDROOT
BRANCH   7   9
ATOM      9  C   UNL     1       4.338  -0.065   3.227  0.00  0.00    -0.042 A 
ATOM     10  C   UNL     1       4.552  -1.427   3.348  0.00  0.00    +0.005 A 
ATOM     11  C   UNL     1       5.245  -1.926   4.431  0.00  0.00    +0.015 A 
ATOM     12  C   UNL     1       5.731  -1.054   5.407  0.00  0.00    +0.059 A 
ATOM     13  C   UNL     1       5.512   0.319   5.279  0.00  0.00    +0.015 A 
ATOM     14  C   UNL     1       4.822   0.806   4.188  0.00  0.00    +0.005 A 
BRANCH  12  15
ATOM     15  C   UNL     1       6.473  -1.581   6.570  0.00  0.00    +0.339 C 
ATOM     16  O   UNL     1       6.662  -2.776   6.679  0.00  0.00    -0.245 OA
BRANCH  15  17
ATOM     17  O   UNL     1       6.941  -0.737   7.510  0.00  0.00    -0.464 OA
ATOM     18  C   UNL     1       7.650  -1.317   8.607  0.00  0.00    +0.280 C 
ENDBRANCH  15  17
ENDBRANCH  12  15
ENDBRANCH   7   9
BRANCH   8  19
ATOM     19  C   UNL     1       2.650  -1.764   1.520  0.00  0.00    +0.224 C 
ATOM     20  O   UNL     1       3.037  -2.054   0.407  0.00  0.00    -0.275 OA
ATOM     21  N   UNL     1       2.535  -2.719   2.464  0.00  0.00    -0.285 N 
ATOM     22  H   UNL     1       2.288  -2.477   3.370  0.00  0.00    +0.155 HD
BRANCH  21  23
ATOM     23  C   UNL     1       2.773  -4.058   2.137  0.00  0.00    +0.033 A 
ATOM     24  C   UNL     1       2.669  -4.481   0.818  0.00  0.00    +0.023 A 
ATOM     25  C   UNL     1       2.905  -5.804   0.499  0.00  0.00    +0.002 A 
ATOM     26  C   UNL     1       3.244  -6.707   1.490  0.00  0.00    +0.000 A 
ATOM     27  C   UNL     1       3.347  -6.289   2.804  0.00  0.00    +0.002 A 
ATOM     28  C   UNL     1       3.119  -4.966   3.129  0.00  0.00    +0.023 A 
ENDBRANCH  21  23
ENDBRANCH   8  19
BRANCH   6  29
ATOM     29  C   UNL     1       4.908  -1.065   0.608  0.00  0.00    +0.228 C 
ATOM     30  O   UNL     1       5.482  -1.634   1.512  0.00  0.00    -0.275 OA
ATOM     31  N   UNL     1       4.679  -1.707  -0.554  0.00  0.00    -0.285 N 
ATOM     32  H   UNL     1       4.268  -1.236  -1.296  0.00  0.00    +0.155 HD
BRANCH  31  33
ATOM     33  C   UNL     1       5.035  -3.053  -0.692  0.00  0.00    +0.033 A 
ATOM     34  C   UNL     1       5.318  -3.816   0.433  0.00  0.00    +0.023 A 
ATOM     35  C   UNL     1       5.669  -5.145   0.294  0.00  0.00    +0.002 A 
ATOM     36  C   UNL     1       5.739  -5.715  -0.964  0.00  0.00    +0.000 A 
ATOM     37  C   UNL     1       5.458  -4.958  -2.086  0.00  0.00    +0.002 A 
ATOM     38  C   UNL     1       5.101  -3.630  -1.953  0.00  0.00    +0.023 A 
ENDBRANCH  31  33
ENDBRANCH   6  29
BRANCH   2  39
ATOM     39  O   UNL     1       0.243  -0.448   0.577  0.00  0.00    -0.388 OA
ATOM     40  H   UNL     1      -0.328  -0.124  -0.133  0.00  0.00    +0.210 HD
ENDBRANCH   2  39
TORSDOF 8
