REMARK  Name = ZINC49390015
REMARK  3 active torsions:
REMARK  status: ('A' for Active; 'I' for Inactive)
REMARK    1  A    between atoms: C_3  and  O_10
REMARK    2  A    between atoms: C_6  and  C_7
REMARK    3  A    between atoms: O_10  and  C_11
REMARK                            x       y       z     vdW  Elec       q    Type
REMARK                         _______ _______ _______ _____ _____    ______ ____
ROOT
ATOM      1  O   UNL     1       3.544   2.118  -0.021  0.00  0.00    -0.436 OA
ENDROOT
BRANCH   1   2
ATOM      2  C   UNL     1       4.186   2.272  -1.205  0.00  0.00    +0.226 A 
ATOM      3  C   UNL     1       5.437   2.883  -1.256  0.00  0.00    +0.107 A 
ATOM      4  C   UNL     1       6.055   3.020  -2.487  0.00  0.00    +0.138 A 
ATOM      5  N   UNL     1       5.442   2.569  -3.573  0.00  0.00    -0.203 NA
ATOM      6  C   UNL     1       4.253   1.993  -3.492  0.00  0.00    +0.217 A 
ATOM      7  N   UNL     1       3.632   1.839  -2.332  0.00  0.00    -0.179 NA
ATOM      8  N   UNL     1       3.645   1.535  -4.648  0.00  0.00    -0.327 N 
ATOM      9 CL   UNL     1       7.614   3.774  -2.607  0.00  0.00    -0.062 Cl
ATOM     10  H   UNL     1       4.090   1.639  -5.503  0.00  0.00    +0.145 HD
ATOM     11  H   UNL     1       2.773   1.111  -4.603  0.00  0.00    +0.145 HD
ENDBRANCH   1   2
BRANCH   1  14
ATOM     12  C   UNL     1      -0.038   1.517  -0.108  0.00  0.00    +0.015 A 
ATOM     13  C   UNL     1       1.169   2.178  -0.108  0.00  0.00    +0.048 A 
ATOM     14  C   UNL     1       2.357   1.461  -0.020  0.00  0.00    +0.149 A 
ATOM     15  C   UNL     1       2.332   0.072   0.067  0.00  0.00    +0.084 A 
ATOM     16  C   UNL     1       1.130  -0.599   0.067  0.00  0.00    +0.034 A 
ATOM     17  C   UNL     1      -0.069   0.120  -0.021  0.00  0.00    +0.016 A 
ATOM     18 CL   UNL     1       3.820  -0.816   0.175  0.00  0.00    -0.080 Cl
BRANCH  17  19
ATOM     19  C   UNL     1      -1.355  -0.590  -0.020  0.00  0.00    +0.258 C 
ATOM     20  O   UNL     1      -1.379  -1.801   0.056  0.00  0.00    -0.296 OA
ENDBRANCH  17  19
ENDBRANCH   1  14
TORSDOF 3
