REMARK  Name = ZINC39356819
REMARK  11 active torsions:
REMARK  status: ('A' for Active; 'I' for Inactive)
REMARK    1  A    between atoms: C_1  and  C_2
REMARK    2  A    between atoms: C_5  and  C_39
REMARK    3  A    between atoms: C_6  and  C_8
REMARK    4  A    between atoms: C_12  and  C_14
REMARK    5  A    between atoms: C_14  and  N_15
REMARK    6  A    between atoms: C_27  and  N_33
REMARK    7  A    between atoms: C_29  and  O_31
REMARK    8  A    between atoms: O_31  and  C_32
REMARK    9  A    between atoms: C_34  and  C_36
REMARK   10  A    between atoms: C_36  and  C_37
REMARK   11  A    between atoms: C_36  and  C_38
REMARK                            x       y       z     vdW  Elec       q    Type
REMARK                         _______ _______ _______ _____ _____    ______ ____
ROOT
ATOM      1  N   UNL     1       1.215  -0.776   5.406  0.00  0.00    +0.380 N 
ATOM      2  C   UNL     1       0.085   0.161   5.421  0.00  0.00    -0.078 C 
ATOM      3  C   UNL     1      -0.062   0.762   6.822  0.00  0.00    -0.005 C 
ATOM      4  C   UNL     1       1.228   1.486   7.199  0.00  0.00    +0.021 C 
ATOM      5  C   UNL     1       2.418   0.536   7.090  0.00  0.00    -0.005 C 
ATOM      6  C   UNL     1       2.465  -0.056   5.679  0.00  0.00    -0.078 C 
ATOM      7  C   UNL     1       1.127   2.046   8.597  0.00  0.00    -0.034 A 
ATOM      8  C   UNL     1       0.640   1.478   9.764  0.00  0.00    +0.004 A 
ATOM      9  C   UNL     1       0.649   2.195  10.943  0.00  0.00    +0.000 A 
ATOM     10  C   UNL     1       1.145   3.486  10.962  0.00  0.00    +0.000 A 
ATOM     11  C   UNL     1       1.632   4.054   9.802  0.00  0.00    +0.006 A 
ATOM     12  C   UNL     1       1.624   3.336   8.617  0.00  0.00    -0.021 A 
ATOM     13  C   UNL     1       2.096   3.724   7.232  0.00  0.00    +0.133 C 
ATOM     14  C   UNL     1       1.438   2.702   6.279  0.00  0.00    +0.153 C 
ATOM     15  H   UNL     1       1.074  -1.482   6.113  0.00  0.00    -0.082 HD
ENDROOT
BRANCH  13  16
ATOM     16  N   UNL     1       3.556   3.634   7.148  0.00  0.00    -0.306 N 
ATOM     17  C   UNL     1       4.318   4.682   7.520  0.00  0.00    +0.216 C 
ATOM     18  O   UNL     1       3.795   5.699   7.924  0.00  0.00    -0.276 OA
ATOM     19  H   UNL     1       3.974   2.821   6.825  0.00  0.00    +0.149 HD
BRANCH  17  20
ATOM     20  C   UNL     1       5.820   4.589   7.434  0.00  0.00    +0.069 C 
ATOM     21  C   UNL     1       6.440   5.904   7.911  0.00  0.00    +0.017 C 
ATOM     22  C   UNL     1       6.311   3.442   8.318  0.00  0.00    +0.017 C 
ENDBRANCH  17  20
ENDBRANCH  13  16
BRANCH  14  23
ATOM     23  O   UNL     1       0.188   3.193   5.792  0.00  0.00    -0.377 OA
ATOM     24  C   UNL     1       0.267   3.803   4.502  0.00  0.00    +0.194 C 
ENDBRANCH  14  23
BRANCH   1  25
ATOM     25  C   UNL     1       1.300  -1.417   4.086  0.00  0.00    -0.063 C 
BRANCH  25  30
ATOM     26  C   UNL     1       0.052  -2.845   2.450  0.00  0.00    +0.077 C 
ATOM     27  N   UNL     1       0.075  -4.141   2.599  0.00  0.00    -0.153 NA
ATOM     28  N   UNL     1       0.084  -4.516   3.938  0.00  0.00    -0.161 NA
ATOM     29  C   UNL     1       0.068  -3.500   4.737  0.00  0.00    +0.115 C 
ATOM     30  C   UNL     1       0.051  -2.269   3.853  0.00  0.00    +0.066 C 
BRANCH  26  36
ATOM     31  C   UNL     1      -0.018   1.503   0.010  0.00  0.00    +0.044 C 
ATOM     32  C   UNL     1       0.002  -0.004   0.002  0.00  0.00    -0.050 A 
ATOM     33  C   UNL     1       0.006  -0.688  -1.202  0.00  0.00    +0.003 A 
ATOM     34  C   UNL     1       0.024  -2.071  -1.220  0.00  0.00    +0.004 A 
ATOM     35  C   UNL     1       0.039  -2.780  -0.037  0.00  0.00    -0.042 A 
ATOM     36  C   UNL     1       0.036  -2.096   1.183  0.00  0.00    +0.002 A 
ATOM     37  C   UNL     1       0.023  -0.698   1.193  0.00  0.00    +0.013 A 
ATOM     38  C   UNL     1       0.059  -4.287  -0.059  0.00  0.00    +0.044 C 
ENDBRANCH  26  36
ENDBRANCH  25  30
ENDBRANCH   1  25
TORSDOF 6
