REMARK  Name = ZINC40874848
REMARK  8 active torsions:
REMARK  status: ('A' for Active; 'I' for Inactive)
REMARK    1  A    between atoms: C_1  and  C_2
REMARK    2  A    between atoms: N_5  and  C_11
REMARK    3  A    between atoms: C_7  and  C_10
REMARK    4  A    between atoms: C_11  and  C_12
REMARK    5  A    between atoms: C_15  and  C_18
REMARK    6  A    between atoms: C_23  and  C_24
REMARK    7  A    between atoms: C_29  and  C_32
REMARK    8  A    between atoms: C_32  and  C_33
REMARK                            x       y       z     vdW  Elec       q    Type
REMARK                         _______ _______ _______ _____ _____    ______ ____
ROOT
ATOM      1  C   UNL     1      -2.591  -8.254  -0.815  0.00  0.00    +0.013 A 
ATOM      2  C   UNL     1      -3.559  -8.891  -1.597  0.00  0.00    +0.012 A 
ATOM      3  C   UNL     1      -3.393 -10.234  -1.884  0.00  0.00    +0.020 A 
ATOM      4  C   UNL     1      -2.283 -10.905  -1.393  0.00  0.00    +0.111 A 
ATOM      5  N   UNL     1      -1.384 -10.287  -0.659  0.00  0.00    -0.250 NA
ATOM      6  C   UNL     1      -1.492  -8.999  -0.359  0.00  0.00    +0.133 A 
ENDROOT
BRANCH   6   7
ATOM      7  C   UNL     1      -0.452  -8.346   0.465  0.00  0.00    +0.266 C 
ATOM      8  O   UNL     1       0.362  -7.609  -0.056  0.00  0.00    -0.268 OA
ATOM      9  N   UNL     1      -0.407  -8.568   1.794  0.00  0.00    -0.296 N 
ATOM     10  C   UNL     1      -1.307  -9.545   2.420  0.00  0.00    +0.108 C 
ATOM     11  C   UNL     1      -0.470 -10.538   3.232  0.00  0.00    +0.023 C 
ATOM     12  C   UNL     1       0.409  -9.768   4.221  0.00  0.00    -0.004 C 
ATOM     13  C   UNL     1       1.361  -8.849   3.452  0.00  0.00    +0.023 C 
ATOM     14  C   UNL     1       0.548  -7.841   2.642  0.00  0.00    +0.108 C 
BRANCH  12  15
ATOM     15  C   UNL     1       1.222 -10.759   5.058  0.00  0.00    +0.038 C 
BRANCH  15  16
ATOM     16  C   UNL     1       1.994 -10.009   6.113  0.00  0.00    -0.047 A 
ATOM     17  C   UNL     1       3.267  -9.544   5.838  0.00  0.00    +0.006 A 
ATOM     18  C   UNL     1       3.975  -8.857   6.805  0.00  0.00    +0.038 A 
ATOM     19  C   UNL     1       3.411  -8.634   8.049  0.00  0.00    +0.123 A 
ATOM     20  C   UNL     1       2.136  -9.100   8.323  0.00  0.00    +0.038 A 
ATOM     21  C   UNL     1       1.427  -9.783   7.353  0.00  0.00    +0.006 A 
ATOM     22  F   UNL     1       4.103  -7.962   8.995  0.00  0.00    -0.205 F 
ENDBRANCH  15  16
ENDBRANCH  12  15
ENDBRANCH   6   7
BRANCH   1  26
ATOM     23  C   UNL     1      -2.961  -4.131   0.150  0.00  0.00    -0.033 A 
ATOM     24  C   UNL     1      -2.967  -4.532  -1.174  0.00  0.00    +0.005 A 
ATOM     25  C   UNL     1      -2.848  -5.869  -1.493  0.00  0.00    +0.009 A 
ATOM     26  C   UNL     1      -2.719  -6.817  -0.479  0.00  0.00    -0.016 A 
ATOM     27  C   UNL     1      -2.713  -6.407   0.854  0.00  0.00    +0.009 A 
ATOM     28  C   UNL     1      -2.829  -5.066   1.161  0.00  0.00    +0.005 A 
BRANCH  23  29
ATOM     29  C   UNL     1      -3.093  -2.669   0.492  0.00  0.00    +0.119 C 
BRANCH  29  33
ATOM     30  C   UNL     1      -0.541   1.529   0.762  0.00  0.00    -0.012 C 
ATOM     31  C   UNL     1      -0.446   0.007   0.642  0.00  0.00    -0.060 C 
ATOM     32  C   UNL     1      -1.853  -0.594   0.645  0.00  0.00    +0.069 C 
ATOM     33  N   UNL     1      -1.758  -2.058   0.550  0.00  0.00    -0.301 NA
ATOM     34  C   UNL     1      -0.976  -2.604   1.667  0.00  0.00    +0.069 C 
ATOM     35  C   UNL     1       0.424  -1.986   1.656  0.00  0.00    -0.060 C 
ATOM     36  N   UNL     1       0.316  -0.527   1.779  0.00  0.00    +0.384 N 
ATOM     37  C   UNL     1       1.234  -2.538   2.831  0.00  0.00    -0.012 C 
ATOM     38  H   UNL     1       1.240  -0.121   1.784  0.00  0.00    -0.085 HD
ATOM     39  H   UNL     1      -0.157  -0.295   2.639  0.00  0.00    -0.085 HD
ENDBRANCH  29  33
ENDBRANCH  23  29
ENDBRANCH   1  26
TORSDOF 6
