REMARK  Name = ZINC12550441
REMARK  4 active torsions:
REMARK  status: ('A' for Active; 'I' for Inactive)
REMARK    1  A    between atoms: C_4  and  C_7
REMARK    2  A    between atoms: C_8  and  C_22
REMARK    3  A    between atoms: N_15  and  C_16
REMARK    4  A    between atoms: N_23  and  N_24
REMARK                            x       y       z     vdW  Elec       q    Type
REMARK                         _______ _______ _______ _____ _____    ______ ____
ROOT
ATOM      1  C   UNL     1       4.255   7.271  -0.001  0.00  0.00    +0.064 A 
ATOM      2  C   UNL     1       3.958   5.919  -0.005  0.00  0.00    +0.028 A 
ATOM      3  C   UNL     1       5.248   5.209  -0.014  0.00  0.00    +0.009 A 
ATOM      4  C   UNL     1       5.604   3.860  -0.029  0.00  0.00    +0.010 A 
ATOM      5  C   UNL     1       6.934   3.505  -0.042  0.00  0.00    +0.001 A 
ATOM      6  C   UNL     1       7.920   4.483  -0.047  0.00  0.00    +0.002 A 
ATOM      7  C   UNL     1       7.584   5.819  -0.037  0.00  0.00    +0.027 A 
ATOM      8  C   UNL     1       6.245   6.199  -0.024  0.00  0.00    +0.055 A 
ATOM      9  N   UNL     1       5.621   7.431  -0.012  0.00  0.00    -0.308 N 
ENDROOT
BRANCH   1  13
ATOM     10  C   UNL     1       1.407  10.418   0.040  0.00  0.00    +0.000 A 
ATOM     11  C   UNL     1       1.232   9.342  -0.813  0.00  0.00    +0.001 A 
ATOM     12  C   UNL     1       2.154   8.316  -0.832  0.00  0.00    +0.010 A 
ATOM     13  C   UNL     1       3.265   8.364   0.013  0.00  0.00    -0.001 A 
ATOM     14  C   UNL     1       3.432   9.451   0.875  0.00  0.00    +0.010 A 
ATOM     15  C   UNL     1       2.505  10.472   0.879  0.00  0.00    +0.001 A 
ENDBRANCH   1  13
BRANCH   9  16
ATOM     16  C   UNL     1       6.282   8.664  -0.012  0.00  0.00    +0.047 A 
ATOM     17  C   UNL     1       6.159   9.520  -1.099  0.00  0.00    +0.026 A 
ATOM     18  C   UNL     1       6.809  10.739  -1.093  0.00  0.00    +0.002 A 
ATOM     19  C   UNL     1       7.591  11.102  -0.012  0.00  0.00    +0.000 A 
ATOM     20  C   UNL     1       7.720  10.250   1.069  0.00  0.00    +0.002 A 
ATOM     21  C   UNL     1       7.069   9.032   1.072  0.00  0.00    +0.026 A 
ENDBRANCH   9  16
BRANCH   2  22
ATOM     22  C   UNL     1       2.621   5.312   0.004  0.00  0.00    +0.141 C 
ATOM     23  N   UNL     1       2.494   4.018  -0.001  0.00  0.00    -0.188 NA
BRANCH  23  24
ATOM     24  N   UNL     1       1.218   3.439   0.008  0.00  0.00    -0.215 N 
ATOM     25  C   UNL     1       1.083   2.067   0.003  0.00  0.00    +0.179 A 
ATOM     26  N   UNL     1      -0.016   1.346   0.009  0.00  0.00    -0.224 NA
ATOM     27  C   UNL     1       0.002  -0.004   0.002  0.00  0.00    +0.080 A 
ATOM     28  C   UNL     1      -1.099  -0.892   0.007  0.00  0.00    +0.029 A 
ATOM     29  C   UNL     1      -0.904  -2.248  -0.003  0.00  0.00    +0.002 A 
ATOM     30  C   UNL     1       0.369  -2.798  -0.017  0.00  0.00    +0.001 A 
ATOM     31  C   UNL     1       1.469  -1.959  -0.022  0.00  0.00    +0.017 A 
ATOM     32  C   UNL     1       1.284  -0.600  -0.013  0.00  0.00    +0.041 A 
ATOM     33  S   UNL     1       2.359   0.815  -0.016  0.00  0.00    -0.051 S 
ATOM     34  H   UNL     1       0.429   4.004   0.018  0.00  0.00    +0.176 HD
ENDBRANCH  23  24
ENDBRANCH   2  22
TORSDOF 4
