REMARK  Name = ZINC15947076
REMARK  10 active torsions:
REMARK  status: ('A' for Active; 'I' for Inactive)
REMARK    1  A    between atoms: C_1  and  C_2
REMARK    2  A    between atoms: C_2  and  O_3
REMARK    3  A    between atoms: O_3  and  C_4
REMARK    4  A    between atoms: C_4  and  C_6
REMARK    5  A    between atoms: C_9  and  C_12
REMARK    6  A    between atoms: C_15  and  C_17
REMARK    7  A    between atoms: N_26  and  C_29
REMARK    8  A    between atoms: C_29  and  C_30
REMARK    9  A    between atoms: C_29  and  C_31
REMARK   10  A    between atoms: C_32  and  O_34
REMARK                            x       y       z     vdW  Elec       q    Type
REMARK                         _______ _______ _______ _____ _____    ______ ____
ROOT
ATOM      1  C   UNL     1     -10.249  -3.867   0.061  0.00  0.00    +0.260 C 
ATOM      2  N   UNL     1     -10.426  -2.570  -0.617  0.00  0.00    -0.311 N 
ATOM      3  C   UNL     1     -10.532  -2.608  -1.989  0.00  0.00    +0.080 A 
ATOM      4  C   UNL     1     -10.981  -3.750  -2.665  0.00  0.00    +0.067 A 
ATOM      5  C   UNL     1     -11.027  -3.642  -4.109  0.00  0.00    -0.027 A 
ATOM      6  C   UNL     1     -10.633  -2.443  -4.599  0.00  0.00    -0.021 A 
ATOM      7  S   UNL     1     -10.215  -1.487  -3.169  0.00  0.00    -0.080 S 
ATOM      8  C   UNL     1     -10.575  -2.053  -6.042  0.00  0.00    -0.035 C 
ATOM      9  N   UNL     1     -10.647  -3.280  -6.857  0.00  0.00    +0.384 N 
ATOM     10  C   UNL     1     -11.783  -4.099  -6.416  0.00  0.00    -0.073 C 
ATOM     11  C   UNL     1     -11.475  -4.744  -5.060  0.00  0.00    +0.018 C 
ATOM     12  C   UNL     1     -11.363  -4.926  -1.842  0.00  0.00    +0.220 C 
ATOM     13  N   UNL     1     -11.027  -4.918  -0.582  0.00  0.00    -0.220 NA
ATOM     14  H   UNL     1     -10.465  -1.736  -0.123  0.00  0.00    +0.149 HD
ATOM     15  H   UNL     1      -9.792  -3.805  -6.750  0.00  0.00    -0.081 HD
ENDROOT
BRANCH   1  19
ATOM     16  C   UNL     1      -6.602  -4.072  -0.025  0.00  0.00    +0.135 A 
ATOM     17  C   UNL     1      -6.899  -5.401  -0.011  0.00  0.00    +0.050 A 
ATOM     18  C   UNL     1      -8.303  -5.502   0.023  0.00  0.00    +0.049 A 
ATOM     19  C   UNL     1      -8.790  -4.244   0.028  0.00  0.00    +0.148 A 
ATOM     20  O   UNL     1      -7.760  -3.384   0.004  0.00  0.00    -0.456 OA
BRANCH  16  24
ATOM     21  C   UNL     1      -2.710  -2.394  -0.123  0.00  0.00    +0.059 A 
ATOM     22  C   UNL     1      -3.832  -1.559  -0.096  0.00  0.00    +0.015 A 
ATOM     23  C   UNL     1      -5.085  -2.099  -0.065  0.00  0.00    +0.012 A 
ATOM     24  C   UNL     1      -5.248  -3.489  -0.060  0.00  0.00    +0.017 A 
ATOM     25  C   UNL     1      -4.127  -4.324  -0.087  0.00  0.00    +0.012 A 
ATOM     26  C   UNL     1      -2.873  -3.784  -0.124  0.00  0.00    +0.015 A 
BRANCH  21  27
ATOM     27  C   UNL     1      -1.357  -1.811  -0.158  0.00  0.00    +0.339 C 
ATOM     28  O   UNL     1      -0.383  -2.536  -0.186  0.00  0.00    -0.245 OA
BRANCH  27  29
ATOM     29  O   UNL     1      -1.200  -0.472  -0.157  0.00  0.00    -0.461 OA
BRANCH  29  31
ATOM     30  C   UNL     1       0.117   1.554  -0.185  0.00  0.00    +0.048 C 
ATOM     31  C   UNL     1       0.140   0.024  -0.191  0.00  0.00    +0.229 C 
ENDBRANCH  29  31
ENDBRANCH  27  29
ENDBRANCH  21  27
ENDBRANCH  16  24
ENDBRANCH   1  19
BRANCH   9  32
ATOM     32  C   UNL     1     -10.825  -2.919  -8.270  0.00  0.00    -0.074 C 
ATOM     33  C   UNL     1      -9.713  -1.956  -8.694  0.00  0.00    -0.014 C 
ATOM     34  C   UNL     1     -10.761  -4.182  -9.131  0.00  0.00    -0.014 C 
ENDBRANCH   9  32
BRANCH  12  35
ATOM     35  O   UNL     1     -12.035  -5.970  -2.382  0.00  0.00    -0.492 OA
ATOM     36  H   UNL     1     -12.230  -6.679  -1.754  0.00  0.00    +0.294 HD
ENDBRANCH  12  35
TORSDOF 7
