REMARK  Name = ZINC58985760
REMARK  6 active torsions:
REMARK  status: ('A' for Active; 'I' for Inactive)
REMARK    1  A    between atoms: C_9  and  O_32
REMARK    2  A    between atoms: C_10  and  C_11
REMARK    3  A    between atoms: N_12  and  N_13
REMARK    4  A    between atoms: C_14  and  C_16
REMARK    5  A    between atoms: N_19  and  S_22
REMARK    6  A    between atoms: S_22  and  C_25
REMARK                            x       y       z     vdW  Elec       q    Type
REMARK                         _______ _______ _______ _____ _____    ______ ____
ROOT
ATOM      1  N   UNL     1       7.321   0.148  -0.067  0.00  0.00    -0.207 N 
ATOM      2  C   UNL     1       8.489  -0.523  -0.081  0.00  0.00    +0.235 C 
ATOM      3  O   UNL     1       8.492  -1.736  -0.087  0.00  0.00    -0.274 OA
ATOM      4  H   UNL     1       7.319   1.118  -0.062  0.00  0.00    +0.177 HD
ENDROOT
BRANCH   2   5
ATOM      5  C   UNL     1       9.793   0.233  -0.090  0.00  0.00    +0.079 C 
ATOM      6  C   UNL     1       9.859   1.120  -1.335  0.00  0.00    +0.030 C 
ATOM      7  C   UNL     1      11.170   1.913  -1.323  0.00  0.00    +0.110 C 
ATOM      8  N   UNL     1      12.291   0.973  -1.192  0.00  0.00    -0.177 NA
ATOM      9  C   UNL     1      12.281   0.013  -0.080  0.00  0.00    +0.110 C 
ATOM     10  C   UNL     1      10.958  -0.759  -0.106  0.00  0.00    +0.030 C 
BRANCH   8  11
ATOM     11  S   UNL     1      13.541   0.993  -2.278  0.00  0.00    +0.061 S 
ATOM     12  O   UNL     1      14.127  -0.301  -2.248  0.00  0.00    -0.153 OA
ATOM     13  O   UNL     1      13.032   1.571  -3.473  0.00  0.00    -0.153 OA
BRANCH  11  14
ATOM     14  C   UNL     1      14.753   2.110  -1.656  0.00  0.00    +0.106 A 
ATOM     15  C   UNL     1      14.699   3.449  -1.996  0.00  0.00    +0.029 A 
ATOM     16  C   UNL     1      15.650   4.325  -1.508  0.00  0.00    +0.017 A 
ATOM     17  C   UNL     1      16.655   3.862  -0.678  0.00  0.00    +0.018 A 
ATOM     18  C   UNL     1      16.709   2.523  -0.338  0.00  0.00    +0.017 A 
ATOM     19  C   UNL     1      15.755   1.648  -0.823  0.00  0.00    +0.029 A 
ATOM     20 BR   UNL     1      17.957   5.061  -0.010  0.00  0.00    -0.050 Br
ENDBRANCH  11  14
ENDBRANCH   8  11
ENDBRANCH   2   5
BRANCH   1  22
ATOM     21  C   UNL     1       4.982   0.092  -0.045  0.00  0.00    +0.142 C 
ATOM     22  N   UNL     1       6.109  -0.555  -0.059  0.00  0.00    -0.188 NA
BRANCH  21  32
ATOM     23  C   UNL     1      -0.016   1.357   0.009  0.00  0.00    +0.001 A 
ATOM     24  C   UNL     1       1.167   2.091   0.002  0.00  0.00    +0.001 A 
ATOM     25  C   UNL     1       2.379   1.466  -0.013  0.00  0.00    +0.009 A 
ATOM     26  C   UNL     1       2.435   0.067  -0.021  0.00  0.00    -0.006 A 
ATOM     27  C   UNL     1       1.233  -0.683  -0.013  0.00  0.00    -0.017 A 
ATOM     28  C   UNL     1       0.002  -0.004   0.002  0.00  0.00    +0.008 A 
ATOM     29  C   UNL     1       1.291  -2.087  -0.021  0.00  0.00    +0.012 A 
ATOM     30  C   UNL     1       2.487  -2.733  -0.035  0.00  0.00    +0.046 A 
ATOM     31  C   UNL     1       3.696  -2.040  -0.042  0.00  0.00    +0.126 A 
ATOM     32  C   UNL     1       3.711  -0.645  -0.036  0.00  0.00    +0.044 A 
BRANCH  31  33
ATOM     33  O   UNL     1       4.868  -2.727  -0.056  0.00  0.00    -0.506 OA
ATOM     34  H   UNL     1       5.199  -2.922  -0.943  0.00  0.00    +0.292 HD
ENDBRANCH  31  33
ENDBRANCH  21  32
ENDBRANCH   1  22
TORSDOF 6
