REMARK  Name = ZINC64623159
REMARK  7 active torsions:
REMARK  status: ('A' for Active; 'I' for Inactive)
REMARK    1  A    between atoms: C_1  and  O_2
REMARK    2  A    between atoms: O_2  and  C_3
REMARK    3  A    between atoms: C_10  and  C_31
REMARK    4  A    between atoms: N_20  and  C_21
REMARK    5  A    between atoms: C_26  and  C_27
REMARK    6  A    between atoms: C_27  and  O_29
REMARK    7  A    between atoms: O_29  and  C_30
REMARK                            x       y       z     vdW  Elec       q    Type
REMARK                         _______ _______ _______ _____ _____    ______ ____
ROOT
ATOM      1  C   UNL     1      -0.165  -0.583  -1.820  0.00  0.00    +0.121 A 
ATOM      2  C   UNL     1       0.486   0.164  -2.817  0.00  0.00    +0.047 A 
ATOM      3  C   UNL     1       1.288  -0.405  -3.742  0.00  0.00    +0.029 A 
ATOM      4  C   UNL     1       1.504  -1.854  -3.729  0.00  0.00    +0.043 A 
ATOM      5  N   UNL     1       2.234  -2.638  -4.488  0.00  0.00    -0.375 N 
ATOM      6  C   UNL     1       2.018  -4.021  -4.069  0.00  0.00    +0.131 C 
ATOM      7  C   UNL     1       3.330  -4.710  -3.676  0.00  0.00    +0.134 C 
ATOM      8  N   UNL     1       2.993  -5.916  -2.903  0.00  0.00    -0.276 N 
ATOM      9  C   UNL     1       2.232  -5.813  -1.653  0.00  0.00    +0.114 C 
ATOM     10  C   UNL     1       0.883  -5.126  -1.933  0.00  0.00    +0.052 C 
ATOM     11  C   UNL     1       1.153  -3.935  -2.822  0.00  0.00    -0.035 C 
ATOM     12  C   UNL     1       0.823  -2.644  -2.673  0.00  0.00    +0.003 A 
ATOM     13  C   UNL     1      -0.025  -1.925  -1.715  0.00  0.00    +0.055 A 
ATOM     14  C   UNL     1       3.386  -7.126  -3.348  0.00  0.00    +0.307 C 
ATOM     15  O   UNL     1       4.097  -7.211  -4.330  0.00  0.00    -0.252 OA
ATOM     16  N   UNL     1       2.990  -8.242  -2.704  0.00  0.00    -0.269 N 
ATOM     17  H   UNL     1       2.369  -8.179  -1.962  0.00  0.00    +0.156 HD
ATOM     18  H   UNL     1       2.818  -2.348  -5.206  0.00  0.00    +0.160 HD
ENDROOT
BRANCH   7  19
ATOM     19  C   UNL     1       4.163  -3.779  -2.833  0.00  0.00    -0.025 A 
ATOM     20  C   UNL     1       5.411  -3.379  -3.274  0.00  0.00    +0.008 A 
ATOM     21  C   UNL     1       6.175  -2.524  -2.502  0.00  0.00    +0.038 A 
ATOM     22  C   UNL     1       5.691  -2.070  -1.287  0.00  0.00    +0.123 A 
ATOM     23  C   UNL     1       4.442  -2.471  -0.847  0.00  0.00    +0.038 A 
ATOM     24  C   UNL     1       3.677  -3.322  -1.623  0.00  0.00    +0.008 A 
ATOM     25  F   UNL     1       6.438  -1.235  -0.532  0.00  0.00    -0.205 F 
ENDBRANCH   7  19
BRANCH  16  26
ATOM     26  C   UNL     1       3.473  -9.485  -3.104  0.00  0.00    +0.049 A 
ATOM     27  C   UNL     1       3.697  -9.746  -4.450  0.00  0.00    +0.024 A 
ATOM     28  C   UNL     1       4.176 -10.979  -4.844  0.00  0.00    +0.002 A 
ATOM     29  C   UNL     1       4.436 -11.964  -3.905  0.00  0.00    +0.001 A 
ATOM     30  C   UNL     1       4.220 -11.723  -2.566  0.00  0.00    +0.017 A 
ATOM     31  C   UNL     1       3.741 -10.478  -2.150  0.00  0.00    +0.080 A 
BRANCH  31  32
ATOM     32  C   UNL     1       3.513 -10.211  -0.719  0.00  0.00    +0.341 C 
ATOM     33  O   UNL     1       3.014  -9.161  -0.368  0.00  0.00    -0.245 OA
BRANCH  32  34
ATOM     34  O   UNL     1       3.859 -11.133   0.202  0.00  0.00    -0.464 OA
ATOM     35  C   UNL     1       3.610 -10.808   1.571  0.00  0.00    +0.280 C 
ENDBRANCH  32  34
ENDBRANCH  31  32
ENDBRANCH  16  26
BRANCH   1  37
ATOM     36  C   UNL     1      -1.077   1.482  -1.074  0.00  0.00    +0.277 C 
ATOM     37  O   UNL     1      -0.958   0.066  -0.927  0.00  0.00    -0.495 OA
ENDBRANCH   1  37
TORSDOF 5
