REMARK  Name = ZINC39327296
REMARK  6 active torsions:
REMARK  status: ('A' for Active; 'I' for Inactive)
REMARK    1  A    between atoms: C_4  and  C_7
REMARK    2  A    between atoms: C_7  and  C_9
REMARK    3  A    between atoms: C_14  and  N_15
REMARK    4  A    between atoms: C_16  and  C_18
REMARK    5  A    between atoms: C_19  and  N_37
REMARK    6  A    between atoms: C_23  and  C_27
REMARK                            x       y       z     vdW  Elec       q    Type
REMARK                         _______ _______ _______ _____ _____    ______ ____
ROOT
ATOM      1  C   UNL     1       8.655  -1.844  -0.016  0.00  0.00    +0.097 A 
ATOM      2  C   UNL     1       9.959  -2.285  -0.078  0.00  0.00    +0.053 A 
ATOM      3  C   UNL     1      11.024  -1.294  -0.067  0.00  0.00    +0.027 A 
ATOM      4  C   UNL     1      12.425  -1.500  -0.121  0.00  0.00    +0.014 A 
ATOM      5  C   UNL     1      13.261  -0.409  -0.099  0.00  0.00    +0.022 A 
ATOM      6  C   UNL     1      12.738   0.874  -0.024  0.00  0.00    +0.023 A 
ATOM      7  N   UNL     1      11.434   1.062   0.026  0.00  0.00    -0.352 N 
ATOM      8  C   UNL     1      10.593   0.050   0.007  0.00  0.00    +0.088 A 
ATOM      9  S   UNL     1       8.822  -0.071   0.050  0.00  0.00    -0.064 S 
ATOM     10  H   UNL     1      11.086   1.966   0.078  0.00  0.00    +0.166 HD
ENDROOT
BRANCH   6  11
ATOM     11  C   UNL     1      13.666   2.061   0.001  0.00  0.00    +0.012 C 
ATOM     12  C   UNL     1      13.374   2.962  -1.200  0.00  0.00    +0.016 C 
ATOM     13  C   UNL     1      14.316   4.167  -1.174  0.00  0.00    -0.010 C 
ATOM     14  C   UNL     1      15.766   3.682  -1.242  0.00  0.00    +0.007 C 
ATOM     15  C   UNL     1      16.058   2.780  -0.041  0.00  0.00    -0.010 C 
ATOM     16  C   UNL     1      15.116   1.575  -0.066  0.00  0.00    +0.016 C 
ATOM     17  C   UNL     1      15.844   3.568   1.253  0.00  0.00    +0.007 C 
ATOM     18  C   UNL     1      14.395   4.053   1.321  0.00  0.00    -0.010 C 
ATOM     19  C   UNL     1      14.102   4.955   0.120  0.00  0.00    +0.007 C 
ATOM     20  C   UNL     1      13.452   2.849   1.295  0.00  0.00    +0.016 C 
ENDBRANCH   6  11
BRANCH   1  22
ATOM     21  N   UNL     1       6.267  -2.004   0.048  0.00  0.00    -0.280 N 
ATOM     22  C   UNL     1       7.467  -2.615  -0.013  0.00  0.00    +0.257 C 
ATOM     23  O   UNL     1       7.529  -3.831  -0.064  0.00  0.00    -0.269 OA
ATOM     24  H   UNL     1       6.218  -1.044   0.174  0.00  0.00    +0.155 HD
BRANCH  21  30
ATOM     25  C   UNL     1       3.901  -2.281   0.488  0.00  0.00    +0.043 A 
ATOM     26  C   UNL     1       2.733  -3.038   0.355  0.00  0.00    +0.013 A 
ATOM     27  C   UNL     1       2.767  -4.240  -0.317  0.00  0.00    +0.001 A 
ATOM     28  C   UNL     1       3.953  -4.704  -0.864  0.00  0.00    +0.002 A 
ATOM     29  C   UNL     1       5.114  -3.968  -0.741  0.00  0.00    +0.024 A 
ATOM     30  C   UNL     1       5.099  -2.751  -0.072  0.00  0.00    +0.045 A 
BRANCH  25  31
ATOM     31  C   UNL     1       3.872  -0.994   1.206  0.00  0.00    +0.195 C 
ATOM     32  O   UNL     1       3.316  -0.033   0.710  0.00  0.00    -0.287 OA
BRANCH  31  36
ATOM     33  C   UNL     1       5.730  -0.642   5.010  0.00  0.00    +0.000 A 
ATOM     34  C   UNL     1       5.192   0.477   4.400  0.00  0.00    +0.001 A 
ATOM     35  C   UNL     1       4.587   0.370   3.164  0.00  0.00    +0.012 A 
ATOM     36  C   UNL     1       4.519  -0.871   2.529  0.00  0.00    +0.022 A 
ATOM     37  C   UNL     1       5.064  -1.997   3.150  0.00  0.00    +0.012 A 
ATOM     38  C   UNL     1       5.666  -1.876   4.386  0.00  0.00    +0.001 A 
ENDBRANCH  31  36
ENDBRANCH  25  31
ENDBRANCH  21  30
ENDBRANCH   1  22
BRANCH   2  39
ATOM     39  N   UNL     1      10.249  -3.640  -0.147  0.00  0.00    -0.356 N 
ATOM     40  H   UNL     1       9.530  -4.291  -0.154  0.00  0.00    +0.142 HD
ATOM     41  H   UNL     1      11.172  -3.937  -0.190  0.00  0.00    +0.142 HD
ENDBRANCH   2  39
TORSDOF 6
