REMARK  Name = ZINC08443620
REMARK  10 active torsions:
REMARK  status: ('A' for Active; 'I' for Inactive)
REMARK    1  A    between atoms: C_1  and  C_2
REMARK    2  A    between atoms: C_2  and  O_3
REMARK    3  A    between atoms: O_3  and  C_4
REMARK    4  A    between atoms: C_4  and  C_6
REMARK    5  A    between atoms: C_7  and  C_37
REMARK    6  A    between atoms: C_14  and  C_15
REMARK    7  A    between atoms: C_18  and  O_21
REMARK    8  A    between atoms: C_23  and  C_25
REMARK    9  A    between atoms: C_34  and  O_35
REMARK   10  A    between atoms: O_35  and  C_36
REMARK                            x       y       z     vdW  Elec       q    Type
REMARK                         _______ _______ _______ _____ _____    ______ ____
ROOT
ATOM      1  C   UNL     1       0.812   1.899   4.787  0.00  0.00    +0.085 C 
ATOM      2  C   UNL     1       0.241   2.103   6.012  0.00  0.00    +0.053 C 
ATOM      3  N   UNL     1       0.628   1.392   7.064  0.00  0.00    -0.228 NA
ATOM      4  C   UNL     1       1.559   0.472   7.042  0.00  0.00    +0.178 A 
ATOM      5  N   UNL     1       2.262   0.114   5.915  0.00  0.00    -0.275 N 
ATOM      6  C   UNL     1       3.194  -0.842   6.015  0.00  0.00    +0.268 A 
ATOM      7  O   UNL     1       3.841  -1.192   5.045  0.00  0.00    -0.266 OA
ATOM      8  C   UNL     1       3.412  -1.458   7.331  0.00  0.00    +0.081 A 
ATOM      9  C   UNL     1       4.282  -2.436   7.694  0.00  0.00    +0.028 C 
ATOM     10  S   UNL     1       2.220  -0.574   8.325  0.00  0.00    -0.046 S 
ATOM     11  C   UNL     1       1.897   0.854   4.673  0.00  0.00    +0.166 C 
ATOM     12  C   UNL     1      -0.841   3.140   6.169  0.00  0.00    +0.066 C 
ENDROOT
BRANCH  11  13
ATOM     13  C   UNL     1       3.140   1.530   4.155  0.00  0.00    +0.029 A 
ATOM     14  C   UNL     1       3.595   1.270   2.852  0.00  0.00    -0.009 A 
ATOM     15  C   UNL     1       2.911   0.379   2.006  0.00  0.00    +0.009 A 
ATOM     16  C   UNL     1       3.381   0.150   0.749  0.00  0.00    +0.001 A 
ATOM     17  C   UNL     1       4.532   0.784   0.287  0.00  0.00    +0.001 A 
ATOM     18  C   UNL     1       5.214   1.661   1.074  0.00  0.00    +0.008 A 
ATOM     19  C   UNL     1       4.763   1.919   2.380  0.00  0.00    -0.017 A 
ATOM     20  C   UNL     1       5.452   2.804   3.227  0.00  0.00    +0.012 A 
ATOM     21  C   UNL     1       4.989   3.032   4.485  0.00  0.00    +0.046 A 
ATOM     22  C   UNL     1       3.833   2.397   4.951  0.00  0.00    +0.126 A 
BRANCH  22  23
ATOM     23  O   UNL     1       3.395   2.645   6.213  0.00  0.00    -0.495 OA
ATOM     24  C   UNL     1       4.162   3.560   6.998  0.00  0.00    +0.277 C 
ENDBRANCH  22  23
ENDBRANCH  11  13
BRANCH   9  25
ATOM     25  C   UNL     1       5.034  -3.167   6.667  0.00  0.00    -0.024 A 
ATOM     26  C   UNL     1       4.389  -3.610   5.505  0.00  0.00    +0.011 A 
ATOM     27  C   UNL     1       5.101  -4.289   4.543  0.00  0.00    +0.046 A 
ATOM     28  C   UNL     1       6.454  -4.547   4.727  0.00  0.00    +0.117 A 
ATOM     29  C   UNL     1       7.098  -4.115   5.881  0.00  0.00    +0.046 A 
ATOM     30  C   UNL     1       6.398  -3.429   6.847  0.00  0.00    +0.011 A 
BRANCH  28  31
ATOM     31  O   UNL     1       7.150  -5.223   3.777  0.00  0.00    -0.507 OA
ATOM     32  H   UNL     1       7.152  -6.182   3.899  0.00  0.00    +0.292 HD
ENDBRANCH  28  31
ENDBRANCH   9  25
BRANCH   1  33
ATOM     33  C   UNL     1       0.405   2.643   3.668  0.00  0.00    +0.339 C 
ATOM     34  O   UNL     1      -0.538   3.409   3.756  0.00  0.00    -0.245 OA
BRANCH  33  35
ATOM     35  O   UNL     1       1.059   2.509   2.493  0.00  0.00    -0.462 OA
BRANCH  35  37
ATOM     36  C   UNL     1       1.449   3.011   0.162  0.00  0.00    +0.048 C 
ATOM     37  C   UNL     1       0.591   3.296   1.397  0.00  0.00    +0.229 C 
ENDBRANCH  35  37
ENDBRANCH  33  35
ENDBRANCH   1  33
TORSDOF 7
