REMARK  Name = ZINC11383257
REMARK  11 active torsions:
REMARK  status: ('A' for Active; 'I' for Inactive)
REMARK    1  A    between atoms: C_1  and  C_2
REMARK    2  A    between atoms: C_2  and  O_3
REMARK    3  A    between atoms: O_3  and  C_4
REMARK    4  A    between atoms: C_4  and  C_6
REMARK    5  A    between atoms: C_7  and  C_21
REMARK    6  A    between atoms: C_12  and  C_14
REMARK    7  A    between atoms: C_21  and  S_22
REMARK    8  A    between atoms: S_22  and  C_23
REMARK    9  A    between atoms: C_26  and  C_29
REMARK   10  A    between atoms: N_27  and  C_28
REMARK   11  A    between atoms: C_33  and  C_34
REMARK                            x       y       z     vdW  Elec       q    Type
REMARK                         _______ _______ _______ _____ _____    ______ ____
ROOT
ATOM      1  C   UNL     1      -1.924   5.657   1.292  0.00  0.00    +0.079 C 
ATOM      2  C   UNL     1      -1.917   4.923   0.159  0.00  0.00    +0.034 C 
ATOM      3  N   UNL     1      -2.658   5.294  -0.926  0.00  0.00    -0.272 N 
ATOM      4  C   UNL     1      -3.428   6.389  -0.960  0.00  0.00    +0.304 C 
ATOM      5  O   UNL     1      -4.052   6.638  -1.973  0.00  0.00    -0.252 OA
ATOM      6  N   UNL     1      -3.534   7.224   0.093  0.00  0.00    -0.288 N 
ATOM      7  C   UNL     1      -2.773   6.911   1.314  0.00  0.00    +0.144 C 
ATOM      8  H   UNL     1      -2.624   4.734  -1.717  0.00  0.00    +0.156 HD
ATOM      9  H   UNL     1      -4.098   8.011   0.047  0.00  0.00    +0.151 HD
ENDROOT
BRANCH   7  10
ATOM     10  C   UNL     1      -1.871   8.082   1.612  0.00  0.00    -0.022 A 
ATOM     11  C   UNL     1      -1.219   8.732   0.581  0.00  0.00    +0.007 A 
ATOM     12  C   UNL     1      -0.397   9.809   0.853  0.00  0.00    +0.020 A 
ATOM     13  C   UNL     1      -0.218  10.229   2.159  0.00  0.00    +0.041 A 
ATOM     14  C   UNL     1      -0.867   9.575   3.191  0.00  0.00    +0.020 A 
ATOM     15  C   UNL     1      -1.693   8.502   2.917  0.00  0.00    +0.007 A 
ATOM     16 CL   UNL     1       0.820  11.578   2.502  0.00  0.00    -0.084 Cl
ENDBRANCH   7  10
BRANCH   1  17
ATOM     17  C   UNL     1      -1.161   5.270   2.419  0.00  0.00    +0.339 C 
ATOM     18  O   UNL     1      -0.390   4.332   2.338  0.00  0.00    -0.245 OA
BRANCH  17  19
ATOM     19  O   UNL     1      -1.288   5.941   3.583  0.00  0.00    -0.462 OA
BRANCH  19  21
ATOM     20  C   UNL     1      -0.766   6.371   5.902  0.00  0.00    +0.048 C 
ATOM     21  C   UNL     1      -0.487   5.496   4.679  0.00  0.00    +0.229 C 
ENDBRANCH  19  21
ENDBRANCH  17  19
ENDBRANCH   1  17
BRANCH   2  22
ATOM     22  C   UNL     1      -1.081   3.670   0.092  0.00  0.00    +0.128 C 
BRANCH  22  23
ATOM     23  S   UNL     1       0.557   4.071  -0.564  0.00  0.00    -0.080 S 
BRANCH  23  24
ATOM     24  C   UNL     1       1.298   2.473  -0.534  0.00  0.00    +0.192 A 
ATOM     25  N   UNL     1       0.735   1.360  -0.123  0.00  0.00    -0.122 NA
ATOM     26  N   UNL     1       1.560   0.381  -0.232  0.00  0.00    -0.128 NA
ATOM     27  C   UNL     1       2.701   0.808  -0.720  0.00  0.00    +0.168 A 
ATOM     28  N   UNL     1       2.570   2.161  -0.928  0.00  0.00    -0.305 N 
ATOM     29  C   UNL     1       3.581   3.076  -1.462  0.00  0.00    +0.153 C 
BRANCH  27  30
ATOM     30  C   UNL     1       3.901  -0.012  -0.994  0.00  0.00    +0.060 A 
ATOM     31  C   UNL     1       5.298   0.340  -0.710  0.00  0.00    +0.053 A 
ATOM     32  C   UNL     1       6.035  -0.704  -1.124  0.00  0.00    +0.196 A 
ATOM     33  O   UNL     1       5.220  -1.640  -1.635  0.00  0.00    -0.467 OA
ATOM     34  C   UNL     1       3.941  -1.245  -1.566  0.00  0.00    +0.112 A 
ATOM     35  C   UNL     1       2.748  -2.034  -2.042  0.00  0.00    +0.087 C 
ENDBRANCH  27  30
ENDBRANCH  23  24
ENDBRANCH  22  23
ENDBRANCH   2  22
TORSDOF 8
