REMARK  Name = ZINC40416297
REMARK  8 active torsions:
REMARK  status: ('A' for Active; 'I' for Inactive)
REMARK    1  A    between atoms: C_1  and  C_2
REMARK    2  A    between atoms: C_5  and  C_8
REMARK    3  A    between atoms: C_12  and  O_22
REMARK    4  A    between atoms: C_19  and  C_21
REMARK    5  A    between atoms: O_22  and  C_23
REMARK    6  A    between atoms: C_23  and  C_25
REMARK    7  A    between atoms: C_23  and  C_26
REMARK    8  A    between atoms: N_28  and  C_29
REMARK                            x       y       z     vdW  Elec       q    Type
REMARK                         _______ _______ _______ _____ _____    ______ ____
ROOT
ATOM      1  C   UNL     1       0.060  -4.295  -0.013  0.00  0.00    +0.137 C 
ATOM      2  C   UNL     1       1.489  -4.765   0.099  0.00  0.00    -0.016 A 
ATOM      3  C   UNL     1       2.313  -4.598  -1.005  0.00  0.00    +0.051 A 
ATOM      4  C   UNL     1       3.637  -5.001  -0.960  0.00  0.00    +0.122 A 
ATOM      5  C   UNL     1       4.140  -5.574   0.199  0.00  0.00    +0.046 A 
ATOM      6  C   UNL     1       3.318  -5.742   1.292  0.00  0.00    +0.007 A 
ATOM      7  C   UNL     1       1.987  -5.343   1.246  0.00  0.00    -0.040 A 
ATOM      8  C   UNL     1       1.144  -5.584   2.471  0.00  0.00    +0.054 C 
ATOM      9  C   UNL     1      -0.098  -4.695   2.460  0.00  0.00    +0.113 C 
ATOM     10  N   UNL     1      -0.714  -4.794   1.128  0.00  0.00    -0.290 N 
ATOM     11  C   UNL     1      -1.943  -5.323   0.963  0.00  0.00    +0.213 C 
ATOM     12  O   UNL     1      -2.429  -5.393  -0.146  0.00  0.00    -0.276 OA
ATOM     13  C   UNL     1      -2.713  -5.828   2.156  0.00  0.00    +0.109 C 
ENDROOT
BRANCH   1  18
ATOM     14  C   UNL     1      -0.062   1.483  -0.041  0.00  0.00    +0.044 C 
ATOM     15  C   UNL     1      -0.030  -0.024  -0.034  0.00  0.00    -0.050 A 
ATOM     16  C   UNL     1       0.595  -0.697   0.999  0.00  0.00    +0.004 A 
ATOM     17  C   UNL     1       0.624  -2.079   1.006  0.00  0.00    +0.006 A 
ATOM     18  C   UNL     1       0.028  -2.788  -0.020  0.00  0.00    -0.023 A 
ATOM     19  C   UNL     1      -0.598  -2.115  -1.053  0.00  0.00    +0.006 A 
ATOM     20  C   UNL     1      -0.631  -0.733  -1.057  0.00  0.00    +0.004 A 
ENDBRANCH   1  18
BRANCH   4  21
ATOM     21  O   UNL     1       4.438  -4.836  -2.045  0.00  0.00    -0.480 OA
BRANCH  21  22
ATOM     22  C   UNL     1       5.757  -5.381  -1.966  0.00  0.00    +0.256 C 
ATOM     23  C   UNL     1       6.684  -4.377  -1.278  0.00  0.00    +0.062 C 
BRANCH  22  24
ATOM     24  C   UNL     1       6.267  -5.666  -3.355  0.00  0.00    +0.258 C 
ATOM     25  O   UNL     1       5.609  -5.343  -4.321  0.00  0.00    -0.271 OA
ATOM     26  N   UNL     1       7.455  -6.280  -3.524  0.00  0.00    -0.282 N 
ATOM     27  H   UNL     1       8.012  -6.477  -2.755  0.00  0.00    +0.155 HD
BRANCH  26  28
ATOM     28  C   UNL     1       7.884  -6.632  -4.809  0.00  0.00    +0.036 A 
ATOM     29  C   UNL     1       8.609  -7.800  -5.004  0.00  0.00    +0.023 A 
ATOM     30  C   UNL     1       9.032  -8.146  -6.273  0.00  0.00    +0.005 A 
ATOM     31  C   UNL     1       8.734  -7.331  -7.349  0.00  0.00    +0.038 A 
ATOM     32  C   UNL     1       8.011  -6.165  -7.159  0.00  0.00    +0.125 A 
ATOM     33  C   UNL     1       7.581  -5.817  -5.891  0.00  0.00    +0.061 A 
ATOM     34  F   UNL     1       7.722  -5.370  -8.212  0.00  0.00    -0.205 F 
ENDBRANCH  26  28
ENDBRANCH  22  24
ENDBRANCH  21  22
ENDBRANCH   4  21
TORSDOF 5
