REMARK  Name = ZINC40322745
REMARK  11 active torsions:
REMARK  status: ('A' for Active; 'I' for Inactive)
REMARK    1  A    between atoms: C_1  and  C_2
REMARK    2  A    between atoms: C_5  and  S_8
REMARK    3  A    between atoms: S_8  and  C_11
REMARK    4  A    between atoms: C_14  and  C_16
REMARK    5  A    between atoms: N_18  and  C_19
REMARK    6  A    between atoms: C_19  and  C_20
REMARK    7  A    between atoms: C_20  and  C_22
REMARK    8  A    between atoms: C_20  and  N_31
REMARK    9  A    between atoms: C_25  and  C_28
REMARK   10  A    between atoms: C_28  and  C_29
REMARK   11  A    between atoms: C_28  and  C_30
REMARK                            x       y       z     vdW  Elec       q    Type
REMARK                         _______ _______ _______ _____ _____    ______ ____
ROOT
ATOM      1  C   UNL     1       7.425  -5.109  -2.438  0.00  0.00    +0.279 C 
ATOM      2  O   UNL     1       6.936  -5.705  -1.496  0.00  0.00    -0.267 OA
ATOM      3  N   UNL     1       6.881  -5.227  -3.666  0.00  0.00    -0.310 N 
ATOM      4  H   UNL     1       7.271  -4.752  -4.417  0.00  0.00    +0.149 HD
ENDROOT
BRANCH   1   8
ATOM      5  C   UNL     1      10.279  -2.903  -2.643  0.00  0.00    +0.246 A 
ATOM      6  C   UNL     1      10.321  -3.186  -1.323  0.00  0.00    +0.070 A 
ATOM      7  C   UNL     1       9.253  -4.057  -1.053  0.00  0.00    +0.056 A 
ATOM      8  C   UNL     1       8.606  -4.263  -2.237  0.00  0.00    +0.192 A 
ATOM      9  O   UNL     1       9.241  -3.550  -3.190  0.00  0.00    -0.433 OA
BRANCH   5  10
ATOM     10  S   UNL     1      11.400  -1.850  -3.502  0.00  0.00    +0.058 S 
ATOM     11  O   UNL     1      11.952  -0.968  -2.534  0.00  0.00    -0.161 OA
ATOM     12  O   UNL     1      10.714  -1.382  -4.656  0.00  0.00    -0.161 OA
BRANCH  10  17
ATOM     13  C   UNL     1      15.938  -5.301  -5.476  0.00  0.00    +0.044 C 
ATOM     14  C   UNL     1      14.805  -4.439  -4.983  0.00  0.00    -0.050 A 
ATOM     15  C   UNL     1      13.690  -4.243  -5.776  0.00  0.00    +0.005 A 
ATOM     16  C   UNL     1      12.650  -3.453  -5.324  0.00  0.00    +0.028 A 
ATOM     17  C   UNL     1      12.725  -2.858  -4.078  0.00  0.00    +0.097 A 
ATOM     18  C   UNL     1      13.839  -3.054  -3.285  0.00  0.00    +0.028 A 
ATOM     19  C   UNL     1      14.877  -3.849  -3.735  0.00  0.00    +0.005 A 
ENDBRANCH  10  17
ENDBRANCH   5  10
ENDBRANCH   1   8
BRANCH   3  20
ATOM     20  C   UNL     1       5.701  -6.072  -3.866  0.00  0.00    +0.094 C 
BRANCH  20  21
ATOM     21  C   UNL     1       5.225  -5.947  -5.315  0.00  0.00    -0.020 C 
BRANCH  21  22
ATOM     22  C   UNL     1       6.271  -6.519  -6.238  0.00  0.00    -0.059 A 
ATOM     23  C   UNL     1       6.355  -7.886  -6.425  0.00  0.00    +0.002 A 
ATOM     24  C   UNL     1       7.314  -8.410  -7.271  0.00  0.00    +0.004 A 
ATOM     25  C   UNL     1       8.188  -7.567  -7.931  0.00  0.00    -0.045 A 
ATOM     26  C   UNL     1       8.103  -6.200  -7.745  0.00  0.00    +0.004 A 
ATOM     27  C   UNL     1       7.142  -5.676  -6.902  0.00  0.00    +0.002 A 
BRANCH  25  28
ATOM     28  C   UNL     1       9.234  -8.139  -8.854  0.00  0.00    +0.013 C 
ATOM     29  C   UNL     1       9.027  -7.586 -10.265  0.00  0.00    +0.012 C 
ATOM     30  C   UNL     1      10.625  -7.747  -8.352  0.00  0.00    +0.012 C 
ENDBRANCH  25  28
ENDBRANCH  21  22
BRANCH  21  31
ATOM     31  N   UNL     1       3.967  -6.687  -5.482  0.00  0.00    +0.385 N 
ATOM     32  C   UNL     1       2.905  -6.090  -4.633  0.00  0.00    -0.078 C 
ATOM     33  C   UNL     1       1.597  -6.566  -5.314  0.00  0.00    -0.020 C 
ATOM     34  C   UNL     1       1.948  -6.504  -6.818  0.00  0.00    -0.020 C 
ATOM     35  C   UNL     1       3.486  -6.566  -6.876  0.00  0.00    -0.078 C 
ATOM     36  H   UNL     1       4.100  -7.658  -5.244  0.00  0.00    -0.081 HD
ENDBRANCH  21  31
ENDBRANCH  20  21
ENDBRANCH   3  20
TORSDOF 8
