REMARK  Name = ZINC13880819
REMARK  5 active torsions:
REMARK  status: ('A' for Active; 'I' for Inactive)
REMARK    1  A    between atoms: C_6  and  N_7
REMARK    2  A    between atoms: C_13  and  C_14
REMARK    3  A    between atoms: C_17  and  O_21
REMARK    4  A    between atoms: O_21  and  C_22
REMARK    5  A    between atoms: C_22  and  C_23
REMARK                            x       y       z     vdW  Elec       q    Type
REMARK                         _______ _______ _______ _____ _____    ______ ____
ROOT
ATOM      1  N   UNL     1      -1.232  -0.625  -0.083  0.00  0.00    -0.226 NA
ATOM      2  C   UNL     1      -1.407  -1.630  -0.911  0.00  0.00    +0.166 C 
ATOM      3  N   UNL     1      -0.669  -1.960  -2.026  0.00  0.00    -0.260 N 
ATOM      4  C   UNL     1      -0.986  -3.017  -2.756  0.00  0.00    +0.256 C 
ATOM      5  O   UNL     1      -0.345  -3.323  -3.744  0.00  0.00    -0.269 OA
ATOM      6  C   UNL     1      -2.152  -3.807  -2.317  0.00  0.00    +0.078 C 
ATOM      7  C   UNL     1      -2.693  -4.923  -2.869  0.00  0.00    +0.028 C 
ATOM      8  S   UNL     1      -2.656  -2.905  -0.860  0.00  0.00    -0.049 S 
ATOM      9  H   UNL     1       0.091  -1.413  -2.279  0.00  0.00    +0.157 HD
ENDROOT
BRANCH   1  15
ATOM     10  C   UNL     1      -0.434   1.633  -0.178  0.00  0.00    +0.030 A 
ATOM     11  C   UNL     1       0.603   2.520  -0.385  0.00  0.00    +0.040 A 
ATOM     12  C   UNL     1       1.867   2.049  -0.702  0.00  0.00    +0.124 A 
ATOM     13  C   UNL     1       2.098   0.688  -0.813  0.00  0.00    +0.040 A 
ATOM     14  C   UNL     1       1.069  -0.208  -0.609  0.00  0.00    +0.030 A 
ATOM     15  C   UNL     1      -0.207   0.260  -0.288  0.00  0.00    +0.067 A 
ATOM     16  F   UNL     1       2.878   2.922  -0.904  0.00  0.00    -0.205 F 
ENDBRANCH   1  15
BRANCH   7  17
ATOM     17  C   UNL     1      -2.006  -5.602  -3.976  0.00  0.00    -0.023 A 
ATOM     18  C   UNL     1      -0.612  -5.735  -3.962  0.00  0.00    +0.011 A 
ATOM     19  C   UNL     1       0.027  -6.372  -5.001  0.00  0.00    +0.047 A 
ATOM     20  C   UNL     1      -0.709  -6.883  -6.064  0.00  0.00    +0.135 A 
ATOM     21  C   UNL     1      -2.093  -6.754  -6.084  0.00  0.00    +0.060 A 
ATOM     22  C   UNL     1      -2.743  -6.123  -5.046  0.00  0.00    +0.027 A 
ATOM     23 BR   UNL     1      -3.085  -7.452  -7.534  0.00  0.00    -0.046 Br
BRANCH  20  24
ATOM     24  O   UNL     1      -0.073  -7.511  -7.087  0.00  0.00    -0.480 OA
BRANCH  24  25
ATOM     25  C   UNL     1       1.350  -7.609  -7.003  0.00  0.00    +0.353 C 
BRANCH  25  26
ATOM     26  C   UNL     1       1.876  -8.331  -8.217  0.00  0.00    +0.393 C 
ATOM     27  O   UNL     1       1.104  -8.725  -9.074  0.00  0.00    -0.243 OA
ATOM     28  O   UNL     1       3.074  -8.521  -8.342  0.00  0.00    -0.243 OA
ENDBRANCH  25  26
ENDBRANCH  24  25
ENDBRANCH  20  24
ENDBRANCH   7  17
TORSDOF 5
