REMARK  Name = ZINC13729577
REMARK  11 active torsions:
REMARK  status: ('A' for Active; 'I' for Inactive)
REMARK    1  A    between atoms: C_1  and  C_2
REMARK    2  A    between atoms: C_2  and  O_3
REMARK    3  A    between atoms: O_3  and  C_4
REMARK    4  A    between atoms: C_6  and  C_22
REMARK    5  A    between atoms: C_9  and  O_10
REMARK    6  A    between atoms: O_10  and  C_11
REMARK    7  A    between atoms: N_15  and  C_16
REMARK    8  A    between atoms: C_22  and  N_69
REMARK    9  A    between atoms: C_23  and  C_25
REMARK   10  A    between atoms: C_23  and  C_26
REMARK   11  A    between atoms: C_23  and  N_69
REMARK                            x       y       z     vdW  Elec       q    Type
REMARK                         _______ _______ _______ _____ _____    ______ ____
ROOT
ATOM      1  C   UNL     1       3.629   4.508   0.204  0.00  0.00    +0.163 A 
ATOM      2  C   UNL     1       5.000   4.686   0.298  0.00  0.00    +0.051 A 
ATOM      3  C   UNL     1       5.842   3.589   0.282  0.00  0.00    -0.061 A 
ATOM      4  C   UNL     1       5.320   2.314   0.173  0.00  0.00    +0.005 A 
ATOM      5  C   UNL     1       3.953   2.129   0.085  0.00  0.00    +0.050 A 
ATOM      6  C   UNL     1       3.103   3.224   0.094  0.00  0.00    +0.173 A 
ENDROOT
BRANCH   1   7
ATOM      7  O   UNL     1       2.800   5.585   0.218  0.00  0.00    -0.489 OA
BRANCH   7   9
ATOM      8  C   UNL     1       2.326   7.952   0.333  0.00  0.00    +0.048 C 
ATOM      9  C   UNL     1       3.410   6.872   0.334  0.00  0.00    +0.226 C 
ENDBRANCH   7   9
ENDBRANCH   1   7
BRANCH   6  10
ATOM     10  O   UNL     1       1.759   3.044   0.001  0.00  0.00    -0.419 OA
BRANCH  10  11
ATOM     11  C   UNL     1       1.301   1.796  -0.261  0.00  0.00    +0.347 A 
ATOM     12  N   UNL     1       2.029   0.744  -0.557  0.00  0.00    -0.070 NA
ATOM     13  N   UNL     1       1.281  -0.282  -0.748  0.00  0.00    -0.019 NA
ATOM     14  N   UNL     1       0.041   0.032  -0.591  0.00  0.00    -0.036 NA
ATOM     15  N   UNL     1       0.006   1.399  -0.268  0.00  0.00    -0.162 N 
BRANCH  15  16
ATOM     16  C   UNL     1      -1.127   2.186  -0.012  0.00  0.00    +0.072 A 
ATOM     17  C   UNL     1      -1.072   3.198   0.936  0.00  0.00    +0.028 A 
ATOM     18  C   UNL     1      -2.188   3.974   1.181  0.00  0.00    +0.002 A 
ATOM     19  C   UNL     1      -3.363   3.736   0.491  0.00  0.00    +0.000 A 
ATOM     20  C   UNL     1      -3.422   2.725  -0.450  0.00  0.00    +0.002 A 
ATOM     21  C   UNL     1      -2.308   1.949  -0.703  0.00  0.00    +0.028 A 
ENDBRANCH  15  16
ENDBRANCH  10  11
ENDBRANCH   6  10
BRANCH   3  22
ATOM     22  C   UNL     1       7.333   3.785   0.385  0.00  0.00    -0.046 C 
BRANCH  22  23
ATOM     23  N   UNL     1       7.727   3.763   1.806  0.00  0.00    +0.384 N 
ATOM     24  H   UNL     1       7.465   2.859   2.216  0.00  0.00    -0.085 HD
ATOM     25  H   UNL     1       7.241   4.518   2.304  0.00  0.00    -0.085 HD
BRANCH  23  26
ATOM     26  C   UNL     1       9.184   3.952   1.937  0.00  0.00    -0.068 C 
ATOM     27  C   UNL     1       9.506   5.448   1.936  0.00  0.00    -0.013 C 
BRANCH  26  28
ATOM     28  C   UNL     1       9.655   3.330   3.253  0.00  0.00    -0.041 C 
ATOM     29  C   UNL     1       9.332   1.835   3.255  0.00  0.00    +0.009 C 
ATOM     30  C   UNL     1       9.803   1.212   4.571  0.00  0.00    -0.010 C 
ATOM     31  C   UNL     1      11.314   1.408   4.716  0.00  0.00    +0.007 C 
ATOM     32  C   UNL     1      11.636   2.904   4.714  0.00  0.00    -0.010 C 
ATOM     33  C   UNL     1      11.165   3.526   3.398  0.00  0.00    +0.009 C 
ATOM     34  C   UNL     1      10.920   3.581   5.884  0.00  0.00    +0.007 C 
ATOM     35  C   UNL     1       9.409   3.385   5.739  0.00  0.00    -0.010 C 
ATOM     36  C   UNL     1       9.086   1.890   5.740  0.00  0.00    +0.007 C 
ATOM     37  C   UNL     1       8.938   4.008   4.423  0.00  0.00    +0.009 C 
ENDBRANCH  26  28
ENDBRANCH  23  26
ENDBRANCH  22  23
ENDBRANCH   3  22
TORSDOF 9
