REMARK  Name = ZINC63626159
REMARK  9 active torsions:
REMARK  status: ('A' for Active; 'I' for Inactive)
REMARK    1  A    between atoms: C_1  and  O_2
REMARK    2  A    between atoms: O_2  and  C_3
REMARK    3  A    between atoms: C_9  and  C_12
REMARK    4  A    between atoms: C_12  and  C_13
REMARK    5  A    between atoms: C_13  and  N_14
REMARK    6  A    between atoms: C_15  and  C_28
REMARK    7  A    between atoms: N_19  and  C_22
REMARK    8  A    between atoms: C_28  and  C_29
REMARK    9  A    between atoms: N_31  and  C_32
REMARK                            x       y       z     vdW  Elec       q    Type
REMARK                         _______ _______ _______ _____ _____    ______ ____
ROOT
ATOM      1  N   UNL     1       1.831  -6.696  -0.300  0.00  0.00    -0.273 N 
ATOM      2  C   UNL     1       2.035  -8.153  -0.234  0.00  0.00    +0.173 C 
ATOM      3  C   UNL     1       1.630  -8.633  -1.613  0.00  0.00    +0.248 C 
ATOM      4  O   UNL     1       1.634  -9.774  -2.022  0.00  0.00    -0.273 OA
ATOM      5  N   UNL     1       1.263  -7.527  -2.291  0.00  0.00    -0.193 N 
ATOM      6  C   UNL     1       1.374  -6.427  -1.537  0.00  0.00    +0.316 C 
ATOM      7  O   UNL     1       1.097  -5.310  -1.927  0.00  0.00    -0.252 OA
ENDROOT
BRANCH   5   8
ATOM      8  C   UNL     1       0.816  -7.529  -3.619  0.00  0.00    +0.045 A 
ATOM      9  C   UNL     1       0.593  -6.329  -4.280  0.00  0.00    +0.024 A 
ATOM     10  C   UNL     1       0.152  -6.335  -5.590  0.00  0.00    +0.002 A 
ATOM     11  C   UNL     1      -0.068  -7.534  -6.241  0.00  0.00    +0.000 A 
ATOM     12  C   UNL     1       0.153  -8.731  -5.585  0.00  0.00    +0.002 A 
ATOM     13  C   UNL     1       0.599  -8.732  -4.278  0.00  0.00    +0.024 A 
ENDBRANCH   5   8
BRANCH   1  14
ATOM     14  C   UNL     1       2.071  -5.728   0.773  0.00  0.00    +0.114 C 
BRANCH  14  15
ATOM     15  C   UNL     1       0.768  -5.475   1.533  0.00  0.00    +0.052 C 
BRANCH  15  22
ATOM     16  C   UNL     1       0.249  -0.918   1.769  0.00  0.00    +0.121 A 
ATOM     17  C   UNL     1       0.599  -0.354   3.009  0.00  0.00    +0.047 A 
ATOM     18  C   UNL     1       1.051  -1.096   4.043  0.00  0.00    +0.029 A 
ATOM     19  C   UNL     1       1.190  -2.548   3.891  0.00  0.00    +0.043 A 
ATOM     20  N   UNL     1       1.595  -3.480   4.716  0.00  0.00    -0.380 N 
ATOM     21  C   UNL     1       1.531  -4.775   4.029  0.00  0.00    +0.144 C 
ATOM     22  C   UNL     1       1.015  -4.480   2.638  0.00  0.00    -0.040 C 
ATOM     23  C   UNL     1       0.821  -3.143   2.585  0.00  0.00    +0.002 A 
ATOM     24  C   UNL     1       0.336  -2.248   1.529  0.00  0.00    +0.055 A 
ATOM     25  H   UNL     1       1.890  -3.339   5.630  0.00  0.00    +0.160 HD
BRANCH  16  27
ATOM     26  C   UNL     1      -0.273   1.296   1.076  0.00  0.00    +0.277 C 
ATOM     27  O   UNL     1      -0.197  -0.100   0.779  0.00  0.00    -0.495 OA
ENDBRANCH  16  27
ENDBRANCH  15  22
ENDBRANCH  14  15
ENDBRANCH   1  14
BRANCH   2  28
ATOM     28  C   UNL     1       3.505  -8.478   0.042  0.00  0.00    +0.128 C 
BRANCH  28  29
ATOM     29  C   UNL     1       3.660  -9.962   0.254  0.00  0.00    +0.219 C 
ATOM     30  O   UNL     1       2.678 -10.673   0.303  0.00  0.00    -0.275 OA
ATOM     31  N   UNL     1       4.888 -10.499   0.388  0.00  0.00    -0.285 N 
ATOM     32  H   UNL     1       5.669  -9.924   0.415  0.00  0.00    +0.155 HD
BRANCH  31  33
ATOM     33  C   UNL     1       5.039 -11.887   0.487  0.00  0.00    +0.033 A 
ATOM     34  C   UNL     1       6.149 -12.508  -0.070  0.00  0.00    +0.023 A 
ATOM     35  C   UNL     1       6.294 -13.878   0.030  0.00  0.00    +0.002 A 
ATOM     36  C   UNL     1       5.335 -14.631   0.683  0.00  0.00    +0.000 A 
ATOM     37  C   UNL     1       4.229 -14.015   1.239  0.00  0.00    +0.002 A 
ATOM     38  C   UNL     1       4.081 -12.645   1.148  0.00  0.00    +0.023 A 
ENDBRANCH  31  33
ENDBRANCH  28  29
ENDBRANCH   2  28
TORSDOF 8
