REMARK  Name = ZINC03284296
REMARK  11 active torsions:
REMARK  status: ('A' for Active; 'I' for Inactive)
REMARK    1  A    between atoms: C_1  and  C_2
REMARK    2  A    between atoms: C_2  and  O_3
REMARK    3  A    between atoms: O_3  and  C_4
REMARK    4  A    between atoms: C_4  and  C_6
REMARK    5  A    between atoms: C_7  and  C_34
REMARK    6  A    between atoms: C_10  and  C_33
REMARK    7  A    between atoms: C_11  and  C_12
REMARK    8  A    between atoms: C_12  and  C_14
REMARK    9  A    between atoms: C_14  and  S_15
REMARK   10  A    between atoms: S_15  and  C_16
REMARK   11  A    between atoms: C_22  and  C_27
REMARK                            x       y       z     vdW  Elec       q    Type
REMARK                         _______ _______ _______ _____ _____    ______ ____
ROOT
ATOM      1  S   UNL     1      -1.074  -2.826  -5.284  0.00  0.00    -0.080 S 
ENDROOT
BRANCH   1   2
ATOM      2  C   UNL     1      -1.015  -4.242  -6.331  0.00  0.00    +0.170 A 
ATOM      3  N   UNL     1      -0.911  -4.077  -7.682  0.00  0.00    -0.301 N 
ATOM      4  H   UNL     1      -0.870  -3.065  -8.111  0.00  0.00    +0.171 HD
ATOM      5  C   UNL     1      -0.858  -5.136  -8.511  0.00  0.00    +0.261 A 
ATOM      6  O   UNL     1      -0.761  -4.972  -9.715  0.00  0.00    -0.267 OA
ATOM      7  C   UNL     1      -0.923  -6.454  -7.964  0.00  0.00    +0.080 A 
ATOM      8  C   UNL     1      -0.890  -7.740  -8.652  0.00  0.00    +0.004 A 
ATOM      9  C   UNL     1      -0.967  -8.875  -7.918  0.00  0.00    +0.056 A 
ATOM     10  S   UNL     1      -1.089  -8.276  -6.244  0.00  0.00    -0.076 S 
ATOM     11  C   UNL     1      -1.035  -6.532  -6.565  0.00  0.00    +0.117 A 
ATOM     12  N   UNL     1      -1.077  -5.447  -5.800  0.00  0.00    -0.216 NA
BRANCH   8  13
ATOM     13  C   UNL     1      -0.775  -7.804 -10.129  0.00  0.00    -0.017 A 
ATOM     14  C   UNL     1      -1.631  -7.048 -10.930  0.00  0.00    +0.008 A 
ATOM     15  C   UNL     1      -1.515  -7.107 -12.304  0.00  0.00    +0.001 A 
ATOM     16  C   UNL     1      -0.561  -7.922 -12.887  0.00  0.00    +0.000 A 
ATOM     17  C   UNL     1       0.287  -8.678 -12.097  0.00  0.00    +0.001 A 
ATOM     18  C   UNL     1       0.184  -8.623 -10.722  0.00  0.00    +0.008 A 
ENDBRANCH   8  13
ENDBRANCH   1   2
BRANCH   1  19
ATOM     19  C   UNL     1      -1.214  -3.634  -3.670  0.00  0.00    +0.157 C 
BRANCH  19  20
ATOM     20  C   UNL     1      -1.282  -2.587  -2.589  0.00  0.00    +0.176 C 
ATOM     21  O   UNL     1      -1.337  -1.411  -2.885  0.00  0.00    -0.291 OA
BRANCH  20  27
ATOM     22  C   UNL     1      -0.103  -3.268  -0.334  0.00  0.00    +0.090 A 
ATOM     23  C   UNL     1      -0.597  -3.606   0.892  0.00  0.00    +0.028 A 
ATOM     24  N   UNL     1      -1.950  -3.545   0.848  0.00  0.00    -0.361 N 
ATOM     25  H   UNL     1      -2.541  -3.778   1.746  0.00  0.00    +0.165 HD
ATOM     26  C   UNL     1      -2.373  -3.181  -0.379  0.00  0.00    +0.024 A 
ATOM     27  C   UNL     1      -1.282  -2.988  -1.181  0.00  0.00    +0.053 A 
ATOM     28  C   UNL     1      -3.811  -3.015  -0.798  0.00  0.00    +0.064 C 
ATOM     29  C   UNL     1       0.226  -3.983   2.096  0.00  0.00    +0.064 C 
BRANCH  22  30
ATOM     30  C   UNL     1       1.310  -3.201  -0.732  0.00  0.00    +0.342 C 
ATOM     31  O   UNL     1       1.928  -2.161  -0.609  0.00  0.00    -0.245 OA
BRANCH  30  32
ATOM     32  O   UNL     1       1.922  -4.292  -1.234  0.00  0.00    -0.461 OA
BRANCH  32  34
ATOM     33  C   UNL     1       3.836  -5.486  -2.150  0.00  0.00    +0.048 C 
ATOM     34  C   UNL     1       3.318  -4.153  -1.606  0.00  0.00    +0.229 C 
ENDBRANCH  32  34
ENDBRANCH  30  32
ENDBRANCH  22  30
ENDBRANCH  20  27
ENDBRANCH  19  20
ENDBRANCH   1  19
TORSDOF 8
