REMARK  Name = ZINC29838371
REMARK  1 active torsions:
REMARK  status: ('A' for Active; 'I' for Inactive)
REMARK    1  A    between atoms: C_4  and  C_6
REMARK                            x       y       z     vdW  Elec       q    Type
REMARK                         _______ _______ _______ _____ _____    ______ ____
ROOT
ATOM      1  C   UNL     1       1.697  -1.647   0.841  0.00  0.00    +0.219 C 
ATOM      2  O   UNL     1       2.378  -1.577   1.842  0.00  0.00    -0.275 OA
ATOM      3  N   UNL     1       1.130  -2.819   0.492  0.00  0.00    -0.301 N 
ATOM      4  C   UNL     1       0.309  -2.921  -0.722  0.00  0.00    +0.110 C 
ATOM      5  C   UNL     1       0.856  -4.057  -1.593  0.00  0.00    +0.054 C 
ATOM      6  C   UNL     1       0.937  -5.335  -0.764  0.00  0.00    +0.115 C 
ATOM      7  C   UNL     1       1.862  -5.147   0.433  0.00  0.00    +0.054 C 
ATOM      8  C   UNL     1       1.328  -4.020   1.316  0.00  0.00    +0.110 C 
ATOM      9  C   UNL     1       1.409  -6.489  -1.619  0.00  0.00    +0.244 C 
ATOM     10  O   UNL     1       2.470  -6.587  -2.198  0.00  0.00    -0.273 OA
ATOM     11  N   UNL     1       0.402  -7.386  -1.601  0.00  0.00    -0.238 N 
ATOM     12  C   UNL     1      -0.627  -6.958  -0.860  0.00  0.00    +0.307 C 
ATOM     13  O   UNL     1      -1.650  -7.593  -0.693  0.00  0.00    -0.252 OA
ATOM     14  N   UNL     1      -0.402  -5.745  -0.320  0.00  0.00    -0.285 N 
ATOM     15  H   UNL     1       0.421  -8.236  -2.068  0.00  0.00    +0.159 HD
ATOM     16  H   UNL     1      -1.004  -5.242   0.250  0.00  0.00    +0.151 HD
ENDROOT
BRANCH   1  20
ATOM     17  C   UNL     1      -0.019   1.534   0.011  0.00  0.00    +0.001 C 
ATOM     18  C   UNL     1       1.453   1.995  -0.001  0.00  0.00    +0.001 C 
ATOM     19  C   UNL     1       2.232   0.792   0.586  0.00  0.00    +0.013 C 
ATOM     20  C   UNL     1       1.486  -0.425  -0.014  0.00  0.00    +0.075 C 
ATOM     21  C   UNL     1       0.002  -0.004   0.002  0.00  0.00    +0.013 C 
ENDBRANCH   1  20
TORSDOF 1
