REMARK  Name = ZINC63383799
REMARK  11 active torsions:
REMARK  status: ('A' for Active; 'I' for Inactive)
REMARK    1  A    between atoms: C_1  and  C_2
REMARK    2  A    between atoms: C_2  and  C_3
REMARK    3  A    between atoms: C_2  and  C_4
REMARK    4  A    between atoms: C_4  and  C_5
REMARK    5  A    between atoms: C_5  and  N_6
REMARK    6  A    between atoms: C_7  and  C_9
REMARK    7  A    between atoms: C_9  and  C_11
REMARK    8  A    between atoms: C_9  and  N_14
REMARK    9  A    between atoms: C_11  and  C_12
REMARK   10  A    between atoms: C_11  and  C_13
REMARK   11  A    between atoms: C_15  and  C_17
REMARK                            x       y       z     vdW  Elec       q    Type
REMARK                         _______ _______ _______ _____ _____    ______ ____
ROOT
ATOM      1  C   UNL     1       8.569  -0.239  -4.627  0.00  0.00    +0.167 C 
ATOM      2  C   UNL     1       8.742   1.178  -4.046  0.00  0.00    +0.065 C 
ATOM      3  C   UNL     1       9.449   2.002  -5.093  0.00  0.00    -0.034 C 
ATOM      4  C   UNL     1      10.534   2.765  -5.003  0.00  0.00    -0.001 A 
ATOM      5  C   UNL     1      11.365   3.151  -3.851  0.00  0.00    +0.010 A 
ATOM      6  C   UNL     1      12.432   3.947  -4.122  0.00  0.00    +0.001 A 
ATOM      7  C   UNL     1      12.753   4.393  -5.408  0.00  0.00    +0.002 A 
ATOM      8  C   UNL     1      12.040   4.093  -6.523  0.00  0.00    +0.026 A 
ATOM      9  C   UNL     1      10.890   3.267  -6.364  0.00  0.00    +0.043 A 
ATOM     10  N   UNL     1      10.030   2.845  -7.243  0.00  0.00    -0.375 N 
ATOM     11  C   UNL     1       8.998   2.075  -6.545  0.00  0.00    +0.131 C 
ATOM     12  C   UNL     1       8.901   0.642  -7.064  0.00  0.00    +0.134 C 
ATOM     13  N   UNL     1       9.211  -0.273  -5.947  0.00  0.00    -0.276 N 
ATOM     14  C   UNL     1      10.183  -1.119  -6.342  0.00  0.00    +0.248 C 
ATOM     15  O   UNL     1      10.579  -2.072  -5.701  0.00  0.00    -0.270 OA
ATOM     16  C   UNL     1      10.691  -0.720  -7.656  0.00  0.00    +0.042 A 
ATOM     17  C   UNL     1       9.905   0.376  -8.137  0.00  0.00    -0.013 A 
ATOM     18  C   UNL     1      10.134   0.978  -9.353  0.00  0.00    +0.006 A 
ATOM     19  C   UNL     1      11.170   0.464 -10.128  0.00  0.00    +0.000 A 
ATOM     20  C   UNL     1      11.937  -0.603  -9.703  0.00  0.00    +0.001 A 
ATOM     21  C   UNL     1      11.734  -1.240  -8.427  0.00  0.00    +0.013 A 
ATOM     22  H   UNL     1      10.066   3.011  -8.198  0.00  0.00    +0.160 HD
ENDROOT
BRANCH   1  24
ATOM     23  N   UNL     1       6.310  -0.569  -3.676  0.00  0.00    -0.302 N 
ATOM     24  C   UNL     1       7.103  -0.557  -4.766  0.00  0.00    +0.235 C 
ATOM     25  O   UNL     1       6.636  -0.802  -5.858  0.00  0.00    -0.274 OA
ATOM     26  H   UNL     1       6.683  -0.373  -2.802  0.00  0.00    +0.150 HD
BRANCH  23  27
ATOM     27  C   UNL     1       4.885  -0.878  -3.811  0.00  0.00    +0.161 C 
BRANCH  27  29
ATOM     28  N   UNL     1       2.833   0.091  -2.825  0.00  0.00    -0.314 N 
ATOM     29  C   UNL     1       4.125  -0.258  -2.666  0.00  0.00    +0.234 C 
ATOM     30  O   UNL     1       4.677  -0.072  -1.602  0.00  0.00    -0.274 OA
ATOM     31  H   UNL     1       2.411   0.005  -3.694  0.00  0.00    +0.149 HD
BRANCH  28  32
ATOM     32  C   UNL     1       2.066   0.599  -1.685  0.00  0.00    +0.104 C 
BRANCH  32  33
ATOM     33  C   UNL     1       0.638   0.918  -2.133  0.00  0.00    +0.022 C 
BRANCH  33  35
ATOM     34  C   UNL     1       0.426   2.785  -0.486  0.00  0.00    +0.007 C 
ATOM     35  C   UNL     1      -0.163   1.449  -0.942  0.00  0.00    -0.016 C 
ATOM     36  C   UNL     1      -1.621   1.649  -1.358  0.00  0.00    +0.007 C 
ENDBRANCH  33  35
ENDBRANCH  32  33
ENDBRANCH  28  32
ENDBRANCH  27  29
BRANCH  27  37
ATOM     37  C   UNL     1       4.688  -2.396  -3.790  0.00  0.00    +0.012 C 
ATOM     38  C   UNL     1       3.205  -2.720  -3.983  0.00  0.00    +0.009 C 
ATOM     39  C   UNL     1       5.500  -3.031  -4.920  0.00  0.00    +0.009 C 
ENDBRANCH  27  37
ENDBRANCH  23  27
ENDBRANCH   1  24
TORSDOF 7
