REMARK  Name = ZINC58574473
REMARK  5 active torsions:
REMARK  status: ('A' for Active; 'I' for Inactive)
REMARK    1  A    between atoms: C_4  and  O_25
REMARK    2  A    between atoms: C_5  and  C_7
REMARK    3  A    between atoms: C_12  and  C_15
REMARK    4  A    between atoms: O_25  and  C_26
REMARK    5  A    between atoms: C_26  and  C_27
REMARK                            x       y       z     vdW  Elec       q    Type
REMARK                         _______ _______ _______ _____ _____    ______ ____
ROOT
ATOM      1  C   UNL     1       1.250  -2.159  -0.022  0.00  0.00    +0.250 C 
ATOM      2  O   UNL     1       2.310  -2.747  -0.111  0.00  0.00    -0.270 OA
ATOM      3  N   UNL     1       0.101  -2.855   0.087  0.00  0.00    -0.293 N 
ATOM      4  C   UNL     1       0.102  -4.324   0.198  0.00  0.00    +0.113 C 
ATOM      5  C   UNL     1      -0.508  -4.697   1.551  0.00  0.00    +0.054 C 
ATOM      6  C   UNL     1      -1.758  -3.905   1.796  0.00  0.00    -0.039 C 
ATOM      7  C   UNL     1      -2.067  -2.794   1.169  0.00  0.00    -0.004 C 
ATOM      8  C   UNL     1      -1.204  -2.178   0.108  0.00  0.00    +0.135 C 
ENDROOT
BRANCH   6   9
ATOM      9  C   UNL     1      -2.705  -4.408   2.811  0.00  0.00    +0.005 A 
ATOM     10  C   UNL     1      -3.549  -5.464   2.681  0.00  0.00    +0.093 A 
ATOM     11  N   UNL     1      -4.267  -5.623   3.832  0.00  0.00    -0.345 N 
ATOM     12  H   UNL     1      -4.934  -6.312   3.977  0.00  0.00    +0.167 HD
ATOM     13  C   UNL     1      -3.910  -4.669   4.755  0.00  0.00    +0.139 A 
ATOM     14  C   UNL     1      -2.915  -3.869   4.164  0.00  0.00    +0.026 A 
ATOM     15  C   UNL     1      -2.361  -2.814   4.887  0.00  0.00    +0.013 A 
ATOM     16  C   UNL     1      -2.818  -2.597   6.175  0.00  0.00    +0.020 A 
ATOM     17  C   UNL     1      -3.798  -3.425   6.696  0.00  0.00    +0.113 A 
ATOM     18  N   UNL     1      -4.313  -4.412   5.992  0.00  0.00    -0.237 NA
ENDBRANCH   6   9
BRANCH   1  23
ATOM     19  C   UNL     1       0.336   1.372  -0.904  0.00  0.00    +0.001 A 
ATOM     20  C   UNL     1       1.165   2.089  -0.058  0.00  0.00    +0.004 A 
ATOM     21  C   UNL     1       2.023   1.431   0.801  0.00  0.00    +0.046 A 
ATOM     22  C   UNL     1       2.059   0.044   0.821  0.00  0.00    +0.133 A 
ATOM     23  C   UNL     1       1.220  -0.684  -0.034  0.00  0.00    +0.078 A 
ATOM     24  C   UNL     1       0.358  -0.005  -0.898  0.00  0.00    +0.017 A 
BRANCH  22  25
ATOM     25  O   UNL     1       2.901  -0.604   1.664  0.00  0.00    -0.487 OA
BRANCH  25  26
ATOM     26  C   UNL     1       3.726   0.205   2.505  0.00  0.00    +0.264 C 
BRANCH  26  27
ATOM     27  C   UNL     1       4.589  -0.682   3.365  0.00  0.00    -0.010 A 
ATOM     28  C   UNL     1       4.131  -1.103   4.600  0.00  0.00    +0.008 A 
ATOM     29  C   UNL     1       4.922  -1.917   5.390  0.00  0.00    +0.020 A 
ATOM     30  C   UNL     1       6.171  -2.310   4.944  0.00  0.00    +0.041 A 
ATOM     31  C   UNL     1       6.628  -1.888   3.708  0.00  0.00    +0.020 A 
ATOM     32  C   UNL     1       5.835  -1.079   2.917  0.00  0.00    +0.008 A 
ATOM     33 CL   UNL     1       7.165  -3.331   5.935  0.00  0.00    -0.084 Cl
ENDBRANCH  26  27
ENDBRANCH  25  26
ENDBRANCH  22  25
ENDBRANCH   1  23
TORSDOF 5
