REMARK  Name = ZINC35191788
REMARK  7 active torsions:
REMARK  status: ('A' for Active; 'I' for Inactive)
REMARK    1  A    between atoms: C_1  and  C_2
REMARK    2  A    between atoms: C_2  and  C_3
REMARK    3  A    between atoms: C_3  and  N_4
REMARK    4  A    between atoms: C_5  and  C_7
REMARK    5  A    between atoms: C_11  and  C_23
REMARK    6  A    between atoms: C_14  and  C_16
REMARK    7  A    between atoms: C_21  and  C_22
REMARK                            x       y       z     vdW  Elec       q    Type
REMARK                         _______ _______ _______ _____ _____    ______ ____
ROOT
ATOM      1  C   UNL     1      -2.954  -3.832  -0.578  0.00  0.00    +0.173 C 
ATOM      2  C   UNL     1      -2.431  -4.296  -1.969  0.00  0.00    +0.103 C 
ATOM      3  S   UNL     1      -4.036  -4.263  -2.887  0.00  0.00    -0.131 S 
ATOM      4  C   UNL     1      -5.127  -4.672  -1.459  0.00  0.00    +0.166 C 
ATOM      5  N   UNL     1      -4.260  -4.420  -0.294  0.00  0.00    -0.269 N 
ATOM      6  C   UNL     1      -4.651  -4.716   0.961  0.00  0.00    +0.249 C 
ATOM      7  O   UNL     1      -3.951  -4.407   1.905  0.00  0.00    -0.270 OA
ENDROOT
BRANCH   4   8
ATOM      8  C   UNL     1      -6.333  -3.768  -1.435  0.00  0.00    -0.016 A 
ATOM      9  C   UNL     1      -6.484  -2.845  -0.417  0.00  0.00    +0.008 A 
ATOM     10  C   UNL     1      -7.590  -2.016  -0.393  0.00  0.00    +0.022 A 
ATOM     11  C   UNL     1      -8.546  -2.110  -1.389  0.00  0.00    +0.059 A 
ATOM     12  C   UNL     1      -8.394  -3.035  -2.408  0.00  0.00    +0.060 A 
ATOM     13  C   UNL     1      -7.284  -3.860  -2.433  0.00  0.00    +0.027 A 
ATOM     14 CL   UNL     1      -9.594  -3.154  -3.658  0.00  0.00    -0.082 Cl
ATOM     15 CL   UNL     1      -9.936  -1.070  -1.359  0.00  0.00    -0.082 Cl
ENDBRANCH   4   8
BRANCH   6  16
ATOM     16  C   UNL     1      -5.933  -5.417   1.190  0.00  0.00    +0.040 A 
ATOM     17  C   UNL     1      -6.227  -6.587   0.487  0.00  0.00    +0.013 A 
ATOM     18  C   UNL     1      -7.424  -7.237   0.706  0.00  0.00    +0.001 A 
ATOM     19  C   UNL     1      -8.333  -6.730   1.619  0.00  0.00    +0.000 A 
ATOM     20  C   UNL     1      -8.048  -5.571   2.318  0.00  0.00    +0.004 A 
ATOM     21  C   UNL     1      -6.851  -4.915   2.113  0.00  0.00    -0.038 A 
ATOM     22  C   UNL     1      -6.539  -3.656   2.880  0.00  0.00    +0.044 C 
ENDBRANCH   6  16
BRANCH   1  24
ATOM     23  N   UNL     1      -2.055  -1.575  -0.114  0.00  0.00    -0.314 N 
ATOM     24  C   UNL     1      -3.074  -2.330  -0.570  0.00  0.00    +0.234 C 
ATOM     25  O   UNL     1      -4.088  -1.800  -0.973  0.00  0.00    -0.274 OA
ATOM     26  H   UNL     1      -1.244  -1.998   0.208  0.00  0.00    +0.149 HD
BRANCH  23  27
ATOM     27  C   UNL     1      -2.172  -0.115  -0.105  0.00  0.00    +0.104 C 
BRANCH  27  29
ATOM     28  C   UNL     1      -1.008   2.022   0.465  0.00  0.00    +0.005 C 
ATOM     29  C   UNL     1      -0.886   0.496   0.456  0.00  0.00    +0.015 C 
ENDBRANCH  27  29
ENDBRANCH  23  27
ENDBRANCH   1  24
TORSDOF 5
