REMARK  Name = ZINC02256664
REMARK  4 active torsions:
REMARK  status: ('A' for Active; 'I' for Inactive)
REMARK    1  A    between atoms: C_1  and  O_2
REMARK    2  A    between atoms: O_2  and  C_3
REMARK    3  A    between atoms: C_6  and  C_9
REMARK    4  A    between atoms: C_20  and  C_22
REMARK                            x       y       z     vdW  Elec       q    Type
REMARK                         _______ _______ _______ _____ _____    ______ ____
ROOT
ATOM      1  C   UNL     1      -5.049  -2.974  -0.510  0.00  0.00    +0.159 C 
ATOM      2  C   UNL     1      -5.266  -3.178  -1.994  0.00  0.00    +0.027 C 
ATOM      3  C   UNL     1      -5.572  -4.418  -2.425  0.00  0.00    +0.083 C 
ATOM      4  C   UNL     1      -5.792  -4.601  -3.883  0.00  0.00    +0.042 A 
ATOM      5  C   UNL     1      -5.794  -5.862  -4.463  0.00  0.00    +0.013 A 
ATOM      6  C   UNL     1      -6.002  -5.987  -5.823  0.00  0.00    +0.001 A 
ATOM      7  C   UNL     1      -6.207  -4.862  -6.603  0.00  0.00    +0.004 A 
ATOM      8  C   UNL     1      -6.207  -3.602  -6.032  0.00  0.00    +0.046 A 
ATOM      9  C   UNL     1      -6.001  -3.462  -4.671  0.00  0.00    +0.131 A 
ATOM     10  O   UNL     1      -6.004  -2.239  -4.083  0.00  0.00    -0.479 OA
ATOM     11  C   UNL     1      -5.138  -2.040  -2.964  0.00  0.00    +0.234 C 
ATOM     12  N   UNL     1      -5.677  -5.462  -1.567  0.00  0.00    -0.213 NA
ATOM     13  C   UNL     1      -5.504  -5.373  -0.269  0.00  0.00    +0.237 C 
ATOM     14  N   UNL     1      -5.190  -4.171   0.327  0.00  0.00    -0.208 N 
ATOM     15  N   UNL     1      -5.077  -4.424   1.696  0.00  0.00    -0.251 N 
ATOM     16  C   UNL     1      -5.320  -5.753   1.864  0.00  0.00    +0.203 C 
ATOM     17  N   UNL     1      -5.572  -6.296   0.716  0.00  0.00    -0.205 NA
ATOM     18  H   UNL     1      -4.866  -3.779   2.389  0.00  0.00    +0.171 HD
ENDROOT
BRANCH  11  19
ATOM     19  C   UNL     1      -3.713  -1.954  -3.446  0.00  0.00    -0.002 A 
ATOM     20  C   UNL     1      -3.199  -2.943  -4.265  0.00  0.00    +0.007 A 
ATOM     21  C   UNL     1      -1.892  -2.865  -4.707  0.00  0.00    +0.001 A 
ATOM     22  C   UNL     1      -1.097  -1.798  -4.331  0.00  0.00    +0.015 A 
ATOM     23  C   UNL     1      -1.610  -0.809  -3.512  0.00  0.00    +0.018 A 
ATOM     24  C   UNL     1      -2.921  -0.885  -3.073  0.00  0.00    +0.022 A 
ATOM     25 BR   UNL     1      -0.523   0.649  -2.995  0.00  0.00    -0.050 Br
ENDBRANCH  11  19
BRANCH   1  29
ATOM     26  C   UNL     1      -1.115  -1.404   0.057  0.00  0.00    +0.120 A 
ATOM     27  C   UNL     1      -1.294  -2.759  -0.184  0.00  0.00    +0.046 A 
ATOM     28  C   UNL     1      -2.567  -3.264  -0.367  0.00  0.00    +0.009 A 
ATOM     29  C   UNL     1      -3.662  -2.420  -0.310  0.00  0.00    -0.021 A 
ATOM     30  C   UNL     1      -3.485  -1.070  -0.071  0.00  0.00    +0.009 A 
ATOM     31  C   UNL     1      -2.215  -0.561   0.119  0.00  0.00    +0.046 A 
BRANCH  26  33
ATOM     32  C   UNL     1       1.228  -1.807   0.047  0.00  0.00    +0.277 C 
ATOM     33  O   UNL     1       0.136  -0.905   0.238  0.00  0.00    -0.495 OA
ENDBRANCH  26  33
ENDBRANCH   1  29
TORSDOF 3
