REMARK  Name = ZINC57589920
REMARK  7 active torsions:
REMARK  status: ('A' for Active; 'I' for Inactive)
REMARK    1  A    between atoms: C_1  and  C_2
REMARK    2  A    between atoms: C_6  and  C_15
REMARK    3  A    between atoms: C_13  and  C_14
REMARK    4  A    between atoms: C_15  and  C_17
REMARK    5  A    between atoms: C_15  and  N_27
REMARK    6  A    between atoms: N_21  and  C_22
REMARK    7  A    between atoms: C_30  and  C_33
REMARK                            x       y       z     vdW  Elec       q    Type
REMARK                         _______ _______ _______ _____ _____    ______ ____
ROOT
ATOM      1  C   UNL     1       0.053  -4.980  -3.675  0.00  0.00    +0.163 C 
ENDROOT
BRANCH   1   7
ATOM      2  C   UNL     1      -1.494   1.400  -0.138  0.00  0.00    +0.044 C 
ATOM      3  C   UNL     1      -1.232  -0.084  -0.117  0.00  0.00    -0.047 A 
ATOM      4  C   UNL     1      -0.979  -0.743  -1.287  0.00  0.00    +0.013 A 
ATOM      5  C   UNL     1      -0.736  -2.120  -1.268  0.00  0.00    -0.001 A 
ATOM      6  C   UNL     1      -0.461  -2.857  -2.503  0.00  0.00    +0.021 A 
ATOM      7  C   UNL     1      -0.232  -4.191  -2.423  0.00  0.00    +0.042 A 
ATOM      8  C   UNL     1      -0.261  -4.844  -1.172  0.00  0.00    +0.254 A 
ATOM      9  O   UNL     1      -0.052  -6.044  -1.123  0.00  0.00    -0.268 OA
ATOM     10  N   UNL     1      -0.511  -4.176  -0.033  0.00  0.00    -0.322 N 
ATOM     11  H   UNL     1      -0.523  -4.655   0.810  0.00  0.00    +0.169 HD
ATOM     12  C   UNL     1      -0.753  -2.818  -0.046  0.00  0.00    +0.049 A 
ATOM     13  C   UNL     1      -1.013  -2.126   1.132  0.00  0.00    +0.030 A 
ATOM     14  C   UNL     1      -1.244  -0.768   1.091  0.00  0.00    -0.046 A 
ATOM     15  C   UNL     1      -1.519  -0.019   2.369  0.00  0.00    +0.044 C 
ENDBRANCH   1   7
BRANCH   1  16
ATOM     16  N   UNL     1       1.310  -5.723  -3.510  0.00  0.00    -0.285 NA
ATOM     17  C   UNL     1       2.439  -4.806  -3.284  0.00  0.00    +0.090 C 
ATOM     18  C   UNL     1       3.642  -5.624  -2.807  0.00  0.00    +0.051 C 
ATOM     19  C   UNL     1       3.847  -6.802  -3.719  0.00  0.00    -0.042 C 
ATOM     20  C   UNL     1       2.921  -7.227  -4.549  0.00  0.00    -0.007 C 
ATOM     21  C   UNL     1       1.573  -6.577  -4.675  0.00  0.00    +0.113 C 
BRANCH  19  22
ATOM     22  C   UNL     1       5.144  -7.511  -3.679  0.00  0.00    -0.022 A 
ATOM     23  C   UNL     1       5.532  -8.197  -2.528  0.00  0.00    +0.011 A 
ATOM     24  C   UNL     1       6.743  -8.857  -2.497  0.00  0.00    +0.039 A 
ATOM     25  C   UNL     1       7.573  -8.839  -3.606  0.00  0.00    +0.123 A 
ATOM     26  C   UNL     1       7.192  -8.159  -4.752  0.00  0.00    +0.039 A 
ATOM     27  C   UNL     1       5.981  -7.501  -4.796  0.00  0.00    +0.011 A 
ATOM     28  F   UNL     1       8.758  -9.487  -3.571  0.00  0.00    -0.205 F 
ENDBRANCH  19  22
ENDBRANCH   1  16
BRANCH   1  29
ATOM     29  C   UNL     1      -1.074  -5.949  -3.926  0.00  0.00    +0.173 A 
ATOM     30  N   UNL     1      -1.278  -7.088  -3.312  0.00  0.00    -0.111 NA
ATOM     31  N   UNL     1      -2.341  -7.623  -3.807  0.00  0.00    -0.023 NA
ATOM     32  N   UNL     1      -2.819  -6.854  -4.722  0.00  0.00    -0.044 NA
ATOM     33  N   UNL     1      -2.069  -5.809  -4.822  0.00  0.00    -0.224 N 
BRANCH  33  34
ATOM     34  C   UNL     1      -2.262  -4.683  -5.739  0.00  0.00    +0.111 C 
ATOM     35  C   UNL     1      -3.653  -4.053  -5.517  0.00  0.00    +0.027 C 
ATOM     36  C   UNL     1      -4.123  -3.660  -6.939  0.00  0.00    +0.002 C 
ATOM     37  C   UNL     1      -3.605  -4.833  -7.808  0.00  0.00    +0.002 C 
ATOM     38  C   UNL     1      -2.232  -5.179  -7.196  0.00  0.00    +0.027 C 
ENDBRANCH  33  34
ENDBRANCH   1  29
TORSDOF 5
