REMARK  Name = ZINC34787934
REMARK  6 active torsions:
REMARK  status: ('A' for Active; 'I' for Inactive)
REMARK    1  A    between atoms: C_1  and  C_2
REMARK    2  A    between atoms: C_7  and  C_8
REMARK    3  A    between atoms: N_17  and  C_18
REMARK    4  A    between atoms: C_18  and  C_19
REMARK    5  A    between atoms: C_28  and  C_30
REMARK    6  A    between atoms: C_33  and  N_36
REMARK                            x       y       z     vdW  Elec       q    Type
REMARK                         _______ _______ _______ _____ _____    ______ ____
ROOT
ATOM      1  C   UNL     1      -1.219  -2.690   3.543  0.00  0.00    +0.199 C 
ATOM      2  O   UNL     1      -0.253  -2.929   4.236  0.00  0.00    -0.278 OA
ATOM      3  N   UNL     1      -2.441  -3.116   3.919  0.00  0.00    -0.301 N 
ATOM      4  C   UNL     1      -2.634  -3.843   5.124  0.00  0.00    +0.109 C 
ATOM      5  C   UNL     1      -2.367  -5.379   5.008  0.00  0.00    +0.038 C 
ATOM      6  C   UNL     1      -2.899  -5.839   3.612  0.00  0.00    +0.109 C 
ATOM      7  N   UNL     1      -4.103  -5.206   3.199  0.00  0.00    -0.296 N 
ATOM      8  C   UNL     1      -3.973  -4.028   2.303  0.00  0.00    +0.127 C 
ATOM      9  C   UNL     1      -3.646  -2.841   3.095  0.00  0.00    +0.126 C 
ATOM     10  C   UNL     1      -5.308  -5.654   3.602  0.00  0.00    +0.247 C 
ATOM     11  O   UNL     1      -5.381  -6.556   4.413  0.00  0.00    -0.270 OA
ENDROOT
BRANCH  10  12
ATOM     12  C   UNL     1      -6.542  -5.049   3.057  0.00  0.00    +0.037 A 
ATOM     13  C   UNL     1      -7.558  -5.863   2.552  0.00  0.00    +0.015 A 
ATOM     14  C   UNL     1      -8.707  -5.292   2.045  0.00  0.00    +0.033 A 
ATOM     15  C   UNL     1      -8.854  -3.916   2.036  0.00  0.00    +0.126 A 
ATOM     16  C   UNL     1      -7.850  -3.104   2.534  0.00  0.00    +0.033 A 
ATOM     17  C   UNL     1      -6.699  -3.663   3.049  0.00  0.00    +0.015 A 
BRANCH  15  18
ATOM     18  N   UNL     1     -10.089  -3.311   1.490  0.00  0.00    +0.056 N 
ATOM     19  O   UNL     1     -10.967  -4.018   1.053  0.00  0.00    -0.126 OA
ATOM     20  O   UNL     1     -10.220  -2.109   1.480  0.00  0.00    -0.126 OA
ENDBRANCH  15  18
ENDBRANCH  10  12
BRANCH   1  21
ATOM     21  C   UNL     1      -1.052  -1.915   2.261  0.00  0.00    +0.020 C 
BRANCH  21  30
ATOM     22  C   UNL     1       0.538  -0.921   0.772  0.00  0.00    -0.005 C 
ATOM     23  C   UNL     1       1.989  -0.472   0.634  0.00  0.00    -0.047 A 
ATOM     24  C   UNL     1       2.603  -0.184  -0.582  0.00  0.00    +0.010 A 
ATOM     25  C   UNL     1       3.899   0.206  -0.610  0.00  0.00    +0.045 A 
ATOM     26  S   UNL     1       4.329   0.186   1.125  0.00  0.00    -0.101 S 
ATOM     27  C   UNL     1       2.758  -0.336   1.751  0.00  0.00    -0.010 A 
ATOM     28  C   UNL     1       2.326  -0.580   3.160  0.00  0.00    +0.024 C 
ATOM     29  C   UNL     1       0.790  -0.676   3.165  0.00  0.00    -0.072 C 
ATOM     30  N   UNL     1       0.364  -1.569   2.078  0.00  0.00    +0.393 N 
ATOM     31  H   UNL     1       0.917  -2.412   2.107  0.00  0.00    -0.080 HD
BRANCH  22  38
ATOM     32  C   UNL     1      -0.500   0.036  -1.748  0.00  0.00    +0.044 C 
ATOM     33  C   UNL     1      -0.292  -1.440  -1.531  0.00  0.00    -0.049 A 
ATOM     34  C   UNL     1      -0.592  -2.336  -2.540  0.00  0.00    +0.003 A 
ATOM     35  C   UNL     1      -0.402  -3.691  -2.341  0.00  0.00    +0.000 A 
ATOM     36  C   UNL     1       0.089  -4.149  -1.133  0.00  0.00    +0.000 A 
ATOM     37  C   UNL     1       0.391  -3.253  -0.124  0.00  0.00    +0.002 A 
ATOM     38  C   UNL     1       0.204  -1.898  -0.325  0.00  0.00    -0.054 A 
ENDBRANCH  22  38
ENDBRANCH  21  30
ENDBRANCH   1  21
TORSDOF 5
