REMARK  Name = ZINC27100144
REMARK  10 active torsions:
REMARK  status: ('A' for Active; 'I' for Inactive)
REMARK    1  A    between atoms: C_1  and  C_2
REMARK    2  A    between atoms: C_2  and  O_3
REMARK    3  A    between atoms: O_3  and  C_4
REMARK    4  A    between atoms: C_4  and  C_6
REMARK    5  A    between atoms: C_9  and  O_12
REMARK    6  A    between atoms: O_12  and  C_13
REMARK    7  A    between atoms: C_22  and  O_39
REMARK    8  A    between atoms: C_23  and  C_24
REMARK    9  A    between atoms: C_24  and  N_25
REMARK   10  A    between atoms: C_30  and  C_32
REMARK                            x       y       z     vdW  Elec       q    Type
REMARK                         _______ _______ _______ _____ _____    ______ ____
ROOT
ATOM      1  C   UNL     1      -1.184   5.623  -2.911  0.00  0.00    +0.210 A 
ATOM      2  C   UNL     1      -0.768   4.524  -2.251  0.00  0.00    +0.245 A 
ATOM      3  O   UNL     1       0.494   4.079  -2.307  0.00  0.00    -0.459 OA
ATOM      4  C   UNL     1       1.446   4.695  -3.037  0.00  0.00    +0.143 A 
ATOM      5  C   UNL     1       1.126   5.856  -3.763  0.00  0.00    +0.068 A 
ATOM      6  C   UNL     1      -0.259   6.355  -3.708  0.00  0.00    +0.235 A 
ATOM      7  O   UNL     1      -0.598   7.354  -4.320  0.00  0.00    -0.283 OA
ATOM      8  C   UNL     1       2.105   6.506  -4.516  0.00  0.00    +0.019 A 
ATOM      9  C   UNL     1       3.378   6.014  -4.541  0.00  0.00    +0.046 A 
ATOM     10  C   UNL     1       3.705   4.867  -3.820  0.00  0.00    +0.122 A 
ATOM     11  C   UNL     1       2.746   4.211  -3.068  0.00  0.00    +0.020 A 
ENDROOT
BRANCH  10  12
ATOM     12  O   UNL     1       4.976   4.391  -3.854  0.00  0.00    -0.506 OA
ATOM     13  H   UNL     1       5.239   3.486  -3.287  0.00  0.00    +0.292 HD
ENDBRANCH  10  12
BRANCH   1  14
ATOM     14  O   UNL     1      -2.479   6.030  -2.817  0.00  0.00    -0.449 OA
BRANCH  14  18
ATOM     15  C   UNL     1      -5.053   5.030  -5.884  0.00  0.00    +0.059 A 
ATOM     16  C   UNL     1      -5.488   5.862  -4.848  0.00  0.00    +0.018 A 
ATOM     17  C   UNL     1      -4.626   6.193  -3.827  0.00  0.00    +0.047 A 
ATOM     18  C   UNL     1      -3.325   5.701  -3.825  0.00  0.00    +0.129 A 
ATOM     19  C   UNL     1      -2.888   4.878  -4.856  0.00  0.00    +0.047 A 
ATOM     20  C   UNL     1      -3.745   4.537  -5.878  0.00  0.00    +0.018 A 
BRANCH  15  21
ATOM     21  C   UNL     1      -5.973   4.671  -6.979  0.00  0.00    +0.339 C 
ATOM     22  O   UNL     1      -7.111   5.100  -6.982  0.00  0.00    -0.245 OA
BRANCH  21  23
ATOM     23  O   UNL     1      -5.553   3.869  -7.977  0.00  0.00    -0.461 OA
BRANCH  23  25
ATOM     24  C   UNL     1      -5.859   2.643 -10.059  0.00  0.00    +0.048 C 
ATOM     25  C   UNL     1      -6.512   3.559  -9.022  0.00  0.00    +0.229 C 
ENDBRANCH  23  25
ENDBRANCH  21  23
ENDBRANCH  15  21
ENDBRANCH  14  18
ENDBRANCH   1  14
BRANCH  11  26
ATOM     26  C   UNL     1       3.110   2.972  -2.291  0.00  0.00    -0.035 C 
BRANCH  26  27
ATOM     27  N   UNL     1       3.553   3.351  -0.943  0.00  0.00    +0.387 N 
ATOM     28  C   UNL     1       4.804   4.118  -0.996  0.00  0.00    -0.078 C 
ATOM     29  C   UNL     1       5.156   4.619   0.406  0.00  0.00    -0.019 C 
ATOM     30  C   UNL     1       5.309   3.421   1.348  0.00  0.00    -0.003 C 
ATOM     31  C   UNL     1       4.009   2.613   1.348  0.00  0.00    -0.011 C 
ATOM     32  C   UNL     1       3.690   2.170  -0.082  0.00  0.00    -0.037 C 
ATOM     33  H   UNL     1       2.781   3.999  -0.502  0.00  0.00    -0.080 HD
BRANCH  32  34
ATOM     34  C   UNL     1       2.400   1.390  -0.090  0.00  0.00    -0.061 A 
ATOM     35  C   UNL     1       1.190   2.057  -0.065  0.00  0.00    +0.005 A 
ATOM     36  C   UNL     1       0.006   1.344  -0.072  0.00  0.00    +0.038 A 
ATOM     37  C   UNL     1       0.033  -0.040  -0.105  0.00  0.00    +0.123 A 
ATOM     38  C   UNL     1       1.246  -0.708  -0.131  0.00  0.00    +0.038 A 
ATOM     39  C   UNL     1       2.428   0.008  -0.123  0.00  0.00    +0.005 A 
ATOM     40  F   UNL     1      -1.123  -0.739  -0.113  0.00  0.00    -0.205 F 
ENDBRANCH  32  34
ENDBRANCH  26  27
ENDBRANCH  11  26
TORSDOF 9
