REMARK  Name = ZINC63479980
REMARK  5 active torsions:
REMARK  status: ('A' for Active; 'I' for Inactive)
REMARK    1  A    between atoms: C_1  and  C_2
REMARK    2  A    between atoms: C_7  and  C_8
REMARK    3  A    between atoms: C_17  and  C_20
REMARK    4  A    between atoms: C_20  and  C_21
REMARK    5  A    between atoms: N_32  and  C_35
REMARK                            x       y       z     vdW  Elec       q    Type
REMARK                         _______ _______ _______ _____ _____    ______ ____
ROOT
ATOM      1  C   UNL     1      -0.836   1.391  -0.982  0.00  0.00    +0.044 C 
ATOM      2  C   UNL     1      -0.656  -0.094  -0.797  0.00  0.00    -0.046 A 
ATOM      3  C   UNL     1      -0.426  -0.902  -1.896  0.00  0.00    +0.004 A 
ATOM      4  C   UNL     1      -0.262  -2.265  -1.726  0.00  0.00    +0.008 A 
ATOM      5  C   UNL     1      -0.328  -2.815  -0.465  0.00  0.00    +0.004 A 
ATOM      6  C   UNL     1      -0.557  -2.012   0.648  0.00  0.00    +0.042 A 
ATOM      7  C   UNL     1      -0.716  -0.640   0.468  0.00  0.00    -0.026 A 
ATOM      8  C   UNL     1      -0.961   0.250   1.660  0.00  0.00    +0.046 C 
ATOM      9  N   UNL     1      -0.579  -2.789   1.808  0.00  0.00    -0.283 N 
ATOM     10  C   UNL     1      -0.377  -4.095   1.548  0.00  0.00    +0.243 C 
ATOM     11  O   UNL     1      -0.345  -4.998   2.358  0.00  0.00    -0.273 OA
ATOM     12  C   UNL     1      -0.200  -4.217   0.060  0.00  0.00    +0.136 C 
ATOM     13  C   UNL     1       1.160  -4.830  -0.295  0.00  0.00    +0.123 C 
ATOM     14  C   UNL     1       0.880  -5.710  -1.545  0.00  0.00    +0.107 C 
ATOM     15  C   UNL     1      -0.628  -5.532  -1.824  0.00  0.00    +0.072 C 
ATOM     16  N   UNL     1      -1.214  -5.111  -0.531  0.00  0.00    -0.295 NA
ATOM     17  C   UNL     1       1.683  -5.033  -2.633  0.00  0.00    +0.232 C 
ATOM     18  O   UNL     1       1.751  -5.402  -3.786  0.00  0.00    -0.274 OA
ATOM     19  N   UNL     1       2.307  -3.963  -2.126  0.00  0.00    -0.210 N 
ATOM     20  C   UNL     1       2.088  -3.753  -0.808  0.00  0.00    +0.233 C 
ATOM     21  O   UNL     1       2.552  -2.852  -0.142  0.00  0.00    -0.274 OA
ATOM     22  H   UNL     1      -0.723  -2.430   2.698  0.00  0.00    +0.155 HD
ATOM     23  H   UNL     1      -1.377  -5.912   0.059  0.00  0.00    +0.124 HD
ENDROOT
BRANCH  19  24
ATOM     24  C   UNL     1       3.128  -3.128  -2.897  0.00  0.00    +0.044 A 
ATOM     25  C   UNL     1       4.493  -3.078  -2.652  0.00  0.00    +0.024 A 
ATOM     26  C   UNL     1       5.300  -2.254  -3.413  0.00  0.00    +0.002 A 
ATOM     27  C   UNL     1       4.748  -1.480  -4.417  0.00  0.00    +0.000 A 
ATOM     28  C   UNL     1       3.389  -1.528  -4.663  0.00  0.00    +0.002 A 
ATOM     29  C   UNL     1       2.578  -2.354  -3.909  0.00  0.00    +0.024 A 
ENDBRANCH  19  24
BRANCH  15  30
ATOM     30  C   UNL     1      -1.240  -6.851  -2.302  0.00  0.00    +0.052 C 
BRANCH  30  31
ATOM     31  C   UNL     1      -2.680  -6.627  -2.684  0.00  0.00    -0.040 C 
ATOM     32  C   UNL     1      -3.163  -6.378  -3.923  0.00  0.00    -0.001 A 
ATOM     33  C   UNL     1      -2.517  -6.244  -5.234  0.00  0.00    +0.010 A 
ATOM     34  C   UNL     1      -3.281  -5.986  -6.319  0.00  0.00    +0.001 A 
ATOM     35  C   UNL     1      -4.672  -5.843  -6.223  0.00  0.00    +0.002 A 
ATOM     36  C   UNL     1      -5.338  -5.952  -5.054  0.00  0.00    +0.026 A 
ATOM     37  C   UNL     1      -4.633  -6.222  -3.849  0.00  0.00    +0.043 A 
ATOM     38  N   UNL     1      -5.043  -6.370  -2.612  0.00  0.00    -0.380 N 
ATOM     39  C   UNL     1      -3.878  -6.642  -1.762  0.00  0.00    +0.144 C 
ATOM     40  H   UNL     1      -5.963  -6.313  -2.310  0.00  0.00    +0.160 HD
ENDBRANCH  30  31
ENDBRANCH  15  30
TORSDOF 3
