REMARK  Name = ZINC27365248
REMARK  10 active torsions:
REMARK  status: ('A' for Active; 'I' for Inactive)
REMARK    1  A    between atoms: C_1  and  C_2
REMARK    2  A    between atoms: C_7  and  S_31
REMARK    3  A    between atoms: C_12  and  C_14
REMARK    4  A    between atoms: C_14  and  N_15
REMARK    5  A    between atoms: N_15  and  C_16
REMARK    6  A    between atoms: N_15  and  C_17
REMARK    7  A    between atoms: C_17  and  C_19
REMARK    8  A    between atoms: C_17  and  C_20
REMARK    9  A    between atoms: C_23  and  N_26
REMARK   10  A    between atoms: S_31  and  N_34
REMARK                            x       y       z     vdW  Elec       q    Type
REMARK                         _______ _______ _______ _____ _____    ______ ____
ROOT
ATOM      1  C   UNL     1      -1.562  -0.648   2.176  0.00  0.00    +0.029 C 
ATOM      2  C   UNL     1      -0.813  -1.000   0.889  0.00  0.00    +0.083 C 
ATOM      3  C   UNL     1      -0.157  -2.385   1.013  0.00  0.00    +0.059 C 
ATOM      4  C   UNL     1       1.324  -2.120   0.854  0.00  0.00    -0.022 A 
ATOM      5  C   UNL     1       2.405  -2.979   0.875  0.00  0.00    +0.034 A 
ATOM      6  C   UNL     1       3.686  -2.488   0.704  0.00  0.00    +0.105 A 
ATOM      7  C   UNL     1       3.883  -1.133   0.512  0.00  0.00    +0.030 A 
ATOM      8  C   UNL     1       2.807  -0.272   0.490  0.00  0.00    +0.026 A 
ATOM      9  C   UNL     1       1.510  -0.761   0.657  0.00  0.00    +0.040 A 
ATOM     10  N   UNL     1       0.296  -0.067   0.675  0.00  0.00    -0.270 N 
ATOM     11  C   UNL     1       0.165   1.265   0.514  0.00  0.00    +0.203 C 
ATOM     12  O   UNL     1      -0.936   1.773   0.536  0.00  0.00    -0.277 OA
ENDROOT
BRANCH   6  13
ATOM     13  S   UNL     1       5.064  -3.586   0.729  0.00  0.00    +0.056 S 
ATOM     14  O   UNL     1       6.197  -2.808   1.091  0.00  0.00    -0.153 OA
ATOM     15  O   UNL     1       4.658  -4.730   1.468  0.00  0.00    -0.153 OA
BRANCH  13  16
ATOM     16  N   UNL     1       5.315  -4.093  -0.827  0.00  0.00    -0.204 NA
ATOM     17  H   UNL     1       6.171  -4.783  -0.854  0.00  0.00    +0.144 HD
ATOM     18  H   UNL     1       5.526  -3.223  -1.467  0.00  0.00    +0.144 HD
ENDBRANCH  13  16
ENDBRANCH   6  13
BRANCH  11  19
ATOM     19  C   UNL     1       1.386   2.122   0.301  0.00  0.00    +0.020 C 
BRANCH  19  20
ATOM     20  N   UNL     1       0.980   3.526   0.153  0.00  0.00    +0.388 N 
ATOM     21  C   UNL     1       0.197   3.721  -1.074  0.00  0.00    -0.095 C 
ATOM     22  H   UNL     1       0.337   3.783   1.008  0.00  0.00    -0.081 HD
BRANCH  20  23
ATOM     23  C   UNL     1       2.147   4.417   0.181  0.00  0.00    -0.041 C 
ATOM     24  C   UNL     1       2.968   4.223  -1.095  0.00  0.00    -0.008 C 
BRANCH  23  25
ATOM     25  C   UNL     1       1.683   5.849   0.266  0.00  0.00    -0.061 A 
ATOM     26  C   UNL     1       2.408   6.847  -0.359  0.00  0.00    +0.004 A 
ATOM     27  C   UNL     1       1.983   8.159  -0.287  0.00  0.00    +0.028 A 
ATOM     28  C   UNL     1       0.833   8.477   0.423  0.00  0.00    +0.067 A 
ATOM     29  C   UNL     1       0.111   7.473   1.055  0.00  0.00    +0.028 A 
ATOM     30  C   UNL     1       0.538   6.162   0.975  0.00  0.00    +0.004 A 
BRANCH  28  31
ATOM     31  N   UNL     1       0.402   9.809   0.502  0.00  0.00    -0.220 N 
ATOM     32  C   UNL     1       0.993  10.884  -0.054  0.00  0.00    +0.225 A 
ATOM     33  N   UNL     1       0.283  11.940   0.251  0.00  0.00    -0.222 NA
ATOM     34  C   UNL     1      -0.762  11.582   0.997  0.00  0.00    +0.245 A 
ATOM     35  N   UNL     1      -0.736  10.287   1.173  0.00  0.00    -0.154 NA
ENDBRANCH  28  31
ENDBRANCH  23  25
ENDBRANCH  20  23
ENDBRANCH  19  20
ENDBRANCH  11  19
TORSDOF 7
