REMARK  Name = ZINC39697958
REMARK  5 active torsions:
REMARK  status: ('A' for Active; 'I' for Inactive)
REMARK    1  A    between atoms: C_4  and  C_7
REMARK    2  A    between atoms: C_7  and  C_25
REMARK    3  A    between atoms: C_9  and  C_11
REMARK    4  A    between atoms: N_13  and  N_14
REMARK    5  A    between atoms: C_15  and  C_16
REMARK                            x       y       z     vdW  Elec       q    Type
REMARK                         _______ _______ _______ _____ _____    ______ ____
ROOT
ATOM      1  C   UNL     1       5.238  -3.152  -0.314  0.00  0.00    +0.236 C 
ATOM      2  O   UNL     1       6.024  -2.627   0.448  0.00  0.00    -0.274 OA
ATOM      3  N   UNL     1       5.243  -4.490  -0.470  0.00  0.00    -0.207 N 
ATOM      4  H   UNL     1       4.615  -4.910  -1.079  0.00  0.00    +0.177 HD
ENDROOT
BRANCH   1   7
ATOM      5  C   UNL     1       3.650  -1.099  -0.369  0.00  0.00    +0.033 C 
ATOM      6  C   UNL     1       4.694  -0.890  -1.468  0.00  0.00    +0.031 C 
ATOM      7  C   UNL     1       4.258  -2.306  -1.085  0.00  0.00    +0.093 C 
BRANCH   5  11
ATOM      8  C   UNL     1      -0.401  -0.097  -1.284  0.00  0.00    +0.000 A 
ATOM      9  C   UNL     1       0.359   0.747  -0.496  0.00  0.00    +0.000 A 
ATOM     10  C   UNL     1       1.669   0.423  -0.200  0.00  0.00    +0.004 A 
ATOM     11  C   UNL     1       2.220  -0.746  -0.691  0.00  0.00    -0.036 A 
ATOM     12  C   UNL     1       1.461  -1.590  -1.479  0.00  0.00    +0.004 A 
ATOM     13  C   UNL     1       0.150  -1.265  -1.776  0.00  0.00    +0.000 A 
ENDBRANCH   5  11
BRANCH   5  14
ATOM     14  C   UNL     1       4.076  -0.847   1.054  0.00  0.00    -0.036 A 
ATOM     15  C   UNL     1       5.183  -0.060   1.315  0.00  0.00    +0.004 A 
ATOM     16  C   UNL     1       5.574   0.172   2.620  0.00  0.00    +0.000 A 
ATOM     17  C   UNL     1       4.859  -0.383   3.665  0.00  0.00    +0.000 A 
ATOM     18  C   UNL     1       3.752  -1.169   3.404  0.00  0.00    +0.000 A 
ATOM     19  C   UNL     1       3.358  -1.397   2.099  0.00  0.00    +0.004 A 
ENDBRANCH   5  14
ENDBRANCH   1   7
BRANCH   3  20
ATOM     20  N   UNL     1       6.154  -5.277   0.247  0.00  0.00    -0.189 NA
ATOM     21  C   UNL     1       6.103  -6.553   0.163  0.00  0.00    +0.149 C 
BRANCH  21  22
ATOM     22  C   UNL     1       4.979  -7.214  -0.592  0.00  0.00    +0.219 C 
ATOM     23  N   UNL     1       4.823  -8.605  -0.147  0.00  0.00    -0.359 N 
ATOM     24  C   UNL     1       5.024  -9.370  -1.181  0.00  0.00    +0.060 A 
ATOM     25  C   UNL     1       5.005 -10.828  -1.363  0.00  0.00    +0.027 A 
ATOM     26  C   UNL     1       5.258 -11.349  -2.580  0.00  0.00    +0.002 A 
ATOM     27  C   UNL     1       5.542 -10.551  -3.703  0.00  0.00    +0.002 A 
ATOM     28  C   UNL     1       5.584  -9.205  -3.646  0.00  0.00    +0.027 A 
ATOM     29  C   UNL     1       5.324  -8.525  -2.369  0.00  0.00    +0.060 A 
ATOM     30  N   UNL     1       5.298  -7.271  -2.024  0.00  0.00    -0.359 N 
ATOM     31  H   UNL     1       4.609  -8.899   0.752  0.00  0.00    +0.162 HD
ATOM     32  H   UNL     1       5.459  -6.512  -2.606  0.00  0.00    +0.162 HD
ENDBRANCH  21  22
ENDBRANCH   3  20
TORSDOF 5
