REMARK  Name = ZINC02733071
REMARK  5 active torsions:
REMARK  status: ('A' for Active; 'I' for Inactive)
REMARK    1  A    between atoms: C_1  and  C_2
REMARK    2  A    between atoms: C_2  and  N_3
REMARK    3  A    between atoms: C_6  and  C_11
REMARK    4  A    between atoms: N_19  and  C_21
REMARK    5  A    between atoms: C_24  and  C_27
REMARK                            x       y       z     vdW  Elec       q    Type
REMARK                         _______ _______ _______ _____ _____    ______ ____
ROOT
ATOM      1  N   UNL     1       3.404  -3.790   0.569  0.00  0.00    -0.257 N 
ATOM      2  C   UNL     1       2.581  -3.436   1.600  0.00  0.00    +0.043 C 
ATOM      3  C   UNL     1       1.500  -2.656   1.394  0.00  0.00    +0.058 C 
ATOM      4  C   UNL     1       1.229  -2.186  -0.021  0.00  0.00    +0.142 C 
ATOM      5  N   UNL     1       2.176  -2.622  -1.061  0.00  0.00    -0.288 N 
ATOM      6  C   UNL     1       3.212  -3.403  -0.699  0.00  0.00    +0.307 C 
ATOM      7  O   UNL     1       3.999  -3.768  -1.550  0.00  0.00    -0.252 OA
ATOM      8  C   UNL     1       0.817  -2.435   2.608  0.00  0.00    +0.251 C 
ATOM      9  O   UNL     1      -0.194  -1.765   2.716  0.00  0.00    -0.270 OA
ATOM     10  N   UNL     1       1.429  -3.059   3.630  0.00  0.00    -0.262 N 
ATOM     11  C   UNL     1       2.604  -3.750   3.079  0.00  0.00    +0.165 C 
ATOM     12  H   UNL     1       2.056  -2.353  -1.985  0.00  0.00    +0.151 HD
ENDROOT
BRANCH   4  13
ATOM     13  C   UNL     1       1.208  -0.679  -0.013  0.00  0.00    -0.023 A 
ATOM     14  C   UNL     1       0.002  -0.004   0.002  0.00  0.00    +0.006 A 
ATOM     15  C   UNL     1      -0.017   1.378   0.010  0.00  0.00    +0.000 A 
ATOM     16  C   UNL     1       1.171   2.086   0.002  0.00  0.00    +0.000 A 
ATOM     17  C   UNL     1       2.377   1.411  -0.015  0.00  0.00    +0.000 A 
ATOM     18  C   UNL     1       2.396   0.029  -0.021  0.00  0.00    +0.006 A 
ENDBRANCH   4  13
BRANCH  10  19
ATOM     19  C   UNL     1       1.023  -3.052   4.969  0.00  0.00    +0.037 A 
ATOM     20  C   UNL     1       1.754  -3.750   5.921  0.00  0.00    +0.024 A 
ATOM     21  C   UNL     1       1.354  -3.736   7.243  0.00  0.00    +0.014 A 
ATOM     22  C   UNL     1       0.221  -3.038   7.617  0.00  0.00    +0.055 A 
ATOM     23  C   UNL     1      -0.512  -2.346   6.670  0.00  0.00    +0.014 A 
ATOM     24  C   UNL     1      -0.115  -2.351   5.347  0.00  0.00    +0.024 A 
BRANCH  22  25
ATOM     25  C   UNL     1      -0.217  -3.030   9.059  0.00  0.00    +0.417 C 
ATOM     26  F   UNL     1      -1.086  -4.102   9.289  0.00  0.00    -0.166 F 
ATOM     27  F   UNL     1       0.905  -3.153   9.886  0.00  0.00    -0.166 F 
ATOM     28  F   UNL     1      -0.874  -1.827   9.340  0.00  0.00    -0.166 F 
ENDBRANCH  22  25
ENDBRANCH  10  19
BRANCH   1  30
ATOM     29  C   UNL     1       4.160  -6.110   0.733  0.00  0.00    +0.025 C 
ATOM     30  C   UNL     1       4.560  -4.640   0.867  0.00  0.00    +0.111 C 
ENDBRANCH   1  30
TORSDOF 4
