REMARK  Name = ZINC43666351
REMARK  4 active torsions:
REMARK  status: ('A' for Active; 'I' for Inactive)
REMARK    1  A    between atoms: C_1  and  C_2
REMARK    2  A    between atoms: C_2  and  C_4
REMARK    3  A    between atoms: C_2  and  N_13
REMARK    4  A    between atoms: C_14  and  N_19
REMARK                            x       y       z     vdW  Elec       q    Type
REMARK                         _______ _______ _______ _____ _____    ______ ____
ROOT
ATOM      1  C   UNL     1      -0.019   1.526   0.010  0.00  0.00    +0.041 C 
ATOM      2  C   UNL     1       0.002  -0.004   0.002  0.00  0.00    +0.172 C 
ENDROOT
BRANCH   2   3
ATOM      3  C   UNL     1       0.707  -0.490  -1.238  0.00  0.00    +0.130 A 
ATOM      4  C   UNL     1       1.809  -1.253  -1.244  0.00  0.00    +0.055 A 
ATOM      5  C   UNL     1       2.141  -1.481  -2.656  0.00  0.00    +0.020 A 
ATOM      6  C   UNL     1       3.149  -2.177  -3.321  0.00  0.00    +0.011 A 
ATOM      7  C   UNL     1       3.175  -2.192  -4.688  0.00  0.00    +0.001 A 
ATOM      8  C   UNL     1       2.205  -1.519  -5.416  0.00  0.00    +0.004 A 
ATOM      9  C   UNL     1       1.200  -0.824  -4.776  0.00  0.00    +0.047 A 
ATOM     10  C   UNL     1       1.155  -0.797  -3.388  0.00  0.00    +0.135 A 
ATOM     11  O   UNL     1       0.320  -0.226  -2.498  0.00  0.00    -0.458 OA
ENDBRANCH   2   3
BRANCH   2  12
ATOM     12  N   UNL     1      -1.372  -0.511   0.012  0.00  0.00    -0.240 N 
ATOM     13  C   UNL     1      -1.925  -1.304   0.967  0.00  0.00    +0.129 A 
ATOM     14  C   UNL     1      -3.215  -1.546   0.600  0.00  0.00    +0.077 A 
ATOM     15  C   UNL     1      -3.448  -0.883  -0.608  0.00  0.00    +0.151 A 
ATOM     16  N   UNL     1      -2.352  -0.260  -0.957  0.00  0.00    -0.176 NA
ATOM     17 BR   UNL     1      -4.466  -2.594   1.555  0.00  0.00    -0.045 Br
BRANCH  13  18
ATOM     18  N   UNL     1      -1.290  -1.782   2.111  0.00  0.00    -0.342 N 
ATOM     19  H   UNL     1      -0.364  -1.552   2.283  0.00  0.00    +0.144 HD
ATOM     20  H   UNL     1      -1.775  -2.344   2.735  0.00  0.00    +0.144 HD
ENDBRANCH  13  18
ENDBRANCH   2  12
TORSDOF 3
