REMARK  Name = ZINC61795659
REMARK  10 active torsions:
REMARK  status: ('A' for Active; 'I' for Inactive)
REMARK    1  A    between atoms: C_1  and  C_2
REMARK    2  A    between atoms: C_2  and  C_3
REMARK    3  A    between atoms: C_6  and  C_9
REMARK    4  A    between atoms: C_9  and  C_10
REMARK    5  A    between atoms: C_9  and  N_23
REMARK    6  A    between atoms: C_10  and  N_11
REMARK    7  A    between atoms: N_14  and  N_15
REMARK    8  A    between atoms: C_16  and  C_18
REMARK    9  A    between atoms: N_23  and  C_24
REMARK   10  A    between atoms: N_23  and  C_25
REMARK                            x       y       z     vdW  Elec       q    Type
REMARK                         _______ _______ _______ _____ _____    ______ ____
ROOT
ATOM      1  N   UNL     1       3.397  -3.976   3.550  0.00  0.00    -0.299 N 
ATOM      2  C   UNL     1       3.409  -5.310   3.359  0.00  0.00    +0.316 C 
ATOM      3  O   UNL     1       2.935  -6.049   4.200  0.00  0.00    -0.251 OA
ATOM      4  N   UNL     1       3.945  -5.825   2.235  0.00  0.00    -0.218 N 
ATOM      5  H   UNL     1       3.774  -3.387   2.878  0.00  0.00    +0.150 HD
ATOM      6  H   UNL     1       3.954  -6.785   2.097  0.00  0.00    +0.174 HD
ENDROOT
BRANCH   4   7
ATOM      7  N   UNL     1       4.491  -4.974   1.265  0.00  0.00    -0.229 N 
ATOM      8  C   UNL     1       5.027  -5.489   0.141  0.00  0.00    +0.263 C 
ATOM      9  O   UNL     1       5.038  -6.692  -0.031  0.00  0.00    -0.269 OA
ATOM     10  H   UNL     1       4.482  -4.014   1.403  0.00  0.00    +0.173 HD
BRANCH   8  11
ATOM     11  C   UNL     1       5.601  -4.593  -0.879  0.00  0.00    +0.076 A 
ATOM     12  C   UNL     1       6.217  -4.980  -2.156  0.00  0.00    +0.054 A 
ATOM     13  C   UNL     1       6.592  -3.835  -2.747  0.00  0.00    +0.195 A 
ATOM     14  O   UNL     1       6.263  -2.803  -1.954  0.00  0.00    -0.470 OA
ATOM     15  C   UNL     1       5.666  -3.231  -0.838  0.00  0.00    +0.208 A 
ENDBRANCH   8  11
ENDBRANCH   4   7
BRANCH   1  16
ATOM     16  C   UNL     1       2.813  -3.416   4.771  0.00  0.00    +0.095 C 
BRANCH  16  17
ATOM     17  C   UNL     1       2.807  -1.889   4.680  0.00  0.00    -0.021 C 
BRANCH  17  21
ATOM     18  C   UNL     1       0.203  -0.664   1.523  0.00  0.00    -0.048 A 
ATOM     19  C   UNL     1       1.569  -0.704   1.316  0.00  0.00    +0.004 A 
ATOM     20  C   UNL     1       2.412  -1.100   2.338  0.00  0.00    +0.002 A 
ATOM     21  C   UNL     1       1.888  -1.456   3.567  0.00  0.00    -0.059 A 
ATOM     22  C   UNL     1       0.522  -1.415   3.774  0.00  0.00    +0.002 A 
ATOM     23  C   UNL     1      -0.320  -1.015   2.754  0.00  0.00    +0.004 A 
BRANCH  18  25
ATOM     24  C   UNL     1      -0.914   1.284   0.471  0.00  0.00    +0.009 C 
ATOM     25  C   UNL     1      -0.715  -0.232   0.409  0.00  0.00    +0.032 C 
ENDBRANCH  18  25
ENDBRANCH  17  21
BRANCH  17  26
ATOM     26  N   UNL     1       2.335  -1.325   5.952  0.00  0.00    +0.382 N 
ATOM     27  C   UNL     1       3.240  -1.732   7.034  0.00  0.00    -0.096 C 
ATOM     28  C   UNL     1       2.312   0.141   5.858  0.00  0.00    -0.096 C 
ATOM     29  H   UNL     1       1.405  -1.664   6.146  0.00  0.00    -0.082 HD
ENDBRANCH  17  26
ENDBRANCH  16  17
ENDBRANCH   1  16
TORSDOF 7
