REMARK  Name = ZINC14472840
REMARK  7 active torsions:
REMARK  status: ('A' for Active; 'I' for Inactive)
REMARK    1  A    between atoms: C_1  and  C_2
REMARK    2  A    between atoms: C_5  and  N_9
REMARK    3  A    between atoms: C_6  and  C_8
REMARK    4  A    between atoms: N_9  and  S_10
REMARK    5  A    between atoms: S_10  and  C_13
REMARK    6  A    between atoms: C_26  and  C_29
REMARK    7  A    between atoms: C_31  and  N_36
REMARK                            x       y       z     vdW  Elec       q    Type
REMARK                         _______ _______ _______ _____ _____    ______ ____
ROOT
ATOM      1  C   UNL     1      -4.798   6.511  -1.917  0.00  0.00    +0.109 A 
ATOM      2  C   UNL     1      -4.933   6.811  -0.573  0.00  0.00    +0.030 A 
ATOM      3  C   UNL     1      -3.844   6.722   0.269  0.00  0.00    +0.025 A 
ATOM      4  C   UNL     1      -2.605   6.333  -0.224  0.00  0.00    +0.031 A 
ATOM      5  C   UNL     1      -2.478   6.018  -1.581  0.00  0.00    -0.018 A 
ATOM      6  C   UNL     1      -3.571   6.115  -2.416  0.00  0.00    +0.034 A 
ATOM      7  C   UNL     1      -1.148   5.584  -2.061  0.00  0.00    +0.049 C 
ATOM      8  C   UNL     1      -0.725   5.760  -3.474  0.00  0.00    -0.023 C 
ATOM      9  C   UNL     1       0.590   5.940  -3.503  0.00  0.00    -0.030 C 
ATOM     10  C   UNL     1       1.151   5.932  -2.080  0.00  0.00    +0.033 C 
ATOM     11  C   UNL     1      -0.070   6.378  -1.264  0.00  0.00    +0.029 C 
ATOM     12  C   UNL     1      -0.169   5.872   0.165  0.00  0.00    +0.106 C 
ATOM     13  N   UNL     1      -1.506   6.287   0.643  0.00  0.00    -0.336 N 
ATOM     14  H   UNL     1      -1.624   6.532   1.574  0.00  0.00    +0.147 HD
ENDROOT
BRANCH  12  15
ATOM     15  C   UNL     1      -0.049   4.370   0.195  0.00  0.00    -0.007 A 
ATOM     16  C   UNL     1      -1.186   3.585   0.195  0.00  0.00    +0.039 A 
ATOM     17  C   UNL     1      -1.076   2.208   0.217  0.00  0.00    +0.127 A 
ATOM     18  C   UNL     1       0.173   1.614   0.249  0.00  0.00    +0.034 A 
ATOM     19  C   UNL     1       1.311   2.398   0.249  0.00  0.00    +0.022 A 
ATOM     20  C   UNL     1       1.201   3.777   0.222  0.00  0.00    +0.046 A 
ATOM     21 CL   UNL     1       2.630   4.762   0.220  0.00  0.00    -0.083 Cl
BRANCH  17  22
ATOM     22  N   UNL     1      -2.294   1.368   0.212  0.00  0.00    +0.056 N 
ATOM     23  O   UNL     1      -2.197   0.154   0.235  0.00  0.00    -0.126 OA
ATOM     24  O   UNL     1      -3.394   1.890   0.183  0.00  0.00    -0.126 OA
ENDBRANCH  17  22
ENDBRANCH  12  15
BRANCH   1  25
ATOM     25  S   UNL     1      -6.189   6.633  -2.991  0.00  0.00    +0.072 S 
ATOM     26  O   UNL     1      -7.091   7.549  -2.386  0.00  0.00    -0.150 OA
ATOM     27  O   UNL     1      -5.674   6.824  -4.302  0.00  0.00    -0.150 OA
BRANCH  25  28
ATOM     28  N   UNL     1      -6.940   5.157  -2.989  0.00  0.00    -0.216 N 
ATOM     29  H   UNL     1      -7.028   4.656  -3.815  0.00  0.00    +0.174 HD
BRANCH  28  34
ATOM     30  C   UNL     1      -9.002   3.031   1.847  0.00  0.00    +0.044 C 
ATOM     31  C   UNL     1      -8.453   3.596   0.562  0.00  0.00    -0.050 A 
ATOM     32  C   UNL     1      -8.507   4.958   0.329  0.00  0.00    +0.005 A 
ATOM     33  C   UNL     1      -8.006   5.479  -0.848  0.00  0.00    +0.025 A 
ATOM     34  C   UNL     1      -7.447   4.633  -1.798  0.00  0.00    +0.051 A 
ATOM     35  C   UNL     1      -7.399   3.265  -1.563  0.00  0.00    -0.028 A 
ATOM     36  C   UNL     1      -7.898   2.751  -0.381  0.00  0.00    +0.008 A 
ATOM     37  C   UNL     1      -6.800   2.343  -2.593  0.00  0.00    +0.046 C 
ENDBRANCH  28  34
ENDBRANCH  25  28
ENDBRANCH   1  25
TORSDOF 5
