REMARK  Name = ZINC60065844
REMARK  12 active torsions:
REMARK  status: ('A' for Active; 'I' for Inactive)
REMARK    1  A    between atoms: C_1  and  C_2
REMARK    2  A    between atoms: C_2  and  C_3
REMARK    3  A    between atoms: C_2  and  C_4
REMARK    4  A    between atoms: C_2  and  C_5
REMARK    5  A    between atoms: C_7  and  C_13
REMARK    6  A    between atoms: C_8  and  O_12
REMARK    7  A    between atoms: C_9  and  O_11
REMARK    8  A    between atoms: C_13  and  N_14
REMARK    9  A    between atoms: N_14  and  C_15
REMARK   10  A    between atoms: N_14  and  C_16
REMARK   11  A    between atoms: C_16  and  C_17
REMARK   12  A    between atoms: N_19  and  C_20
REMARK                            x       y       z     vdW  Elec       q    Type
REMARK                         _______ _______ _______ _____ _____    ______ ____
ROOT
ATOM      1  C   UNL     1       1.645  -3.786  -2.849  0.00  0.00    -0.039 C 
ENDROOT
BRANCH   1   4
ATOM      2  C   UNL     1       2.461  -0.109  -3.125  0.00  0.00    -0.038 A 
ATOM      3  C   UNL     1       2.523  -1.482  -3.278  0.00  0.00    +0.009 A 
ATOM      4  C   UNL     1       1.575  -2.290  -2.680  0.00  0.00    -0.019 A 
ATOM      5  C   UNL     1       0.559  -1.725  -1.926  0.00  0.00    +0.160 A 
ATOM      6  C   UNL     1       0.497  -0.344  -1.772  0.00  0.00    +0.159 A 
ATOM      7  C   UNL     1       1.454   0.461  -2.370  0.00  0.00    +0.053 A 
BRANCH   2   9
ATOM      8  C   UNL     1       3.207   2.234  -3.451  0.00  0.00    +0.015 C 
ATOM      9  C   UNL     1       3.498   0.768  -3.779  0.00  0.00    -0.013 C 
ATOM     10  C   UNL     1       3.454   0.566  -5.295  0.00  0.00    +0.015 C 
ATOM     11  C   UNL     1       4.886   0.394  -3.255  0.00  0.00    +0.015 C 
ENDBRANCH   2   9
BRANCH   6  12
ATOM     12  O   UNL     1      -0.498   0.215  -1.033  0.00  0.00    -0.503 OA
ATOM     13  H   UNL     1      -0.282   0.319  -0.096  0.00  0.00    +0.292 HD
ENDBRANCH   6  12
BRANCH   5  14
ATOM     14  O   UNL     1      -0.375  -2.519  -1.338  0.00  0.00    -0.503 OA
ATOM     15  H   UNL     1      -0.177  -2.745  -0.418  0.00  0.00    +0.292 HD
ENDBRANCH   5  14
ENDBRANCH   1   4
BRANCH   1  16
ATOM     16  N   UNL     1       0.617  -4.220  -3.805  0.00  0.00    +0.386 N 
ATOM     17  C   UNL     1       0.926  -3.679  -5.136  0.00  0.00    -0.095 C 
ATOM     18  H   UNL     1      -0.285  -3.880  -3.506  0.00  0.00    -0.081 HD
BRANCH  16  19
ATOM     19  C   UNL     1       0.593  -5.687  -3.866  0.00  0.00    +0.019 C 
BRANCH  19  20
ATOM     20  C   UNL     1      -0.542  -6.135  -4.751  0.00  0.00    +0.197 C 
ATOM     21  O   UNL     1      -1.259  -5.312  -5.280  0.00  0.00    -0.278 OA
ATOM     22  N   UNL     1      -0.759  -7.449  -4.956  0.00  0.00    -0.312 N 
ATOM     23  H   UNL     1      -0.185  -8.107  -4.533  0.00  0.00    +0.149 HD
BRANCH  22  24
ATOM     24  C   UNL     1      -1.861  -7.884  -5.817  0.00  0.00    +0.095 C 
ATOM     25  C   UNL     1      -3.156  -7.983  -4.992  0.00  0.00    +0.046 C 
ATOM     26  C   UNL     1      -4.239  -8.739  -5.800  0.00  0.00    +0.168 C 
ATOM     27  S   UNL     1      -3.241  -9.839  -6.884  0.00  0.00    -0.029 S 
ATOM     28  O   UNL     1      -3.426 -11.186  -6.472  0.00  0.00    -0.174 OA
ATOM     29  O   UNL     1      -3.472  -9.484  -8.240  0.00  0.00    -0.174 OA
ATOM     30  C   UNL     1      -1.550  -9.292  -6.399  0.00  0.00    +0.188 C 
ENDBRANCH  22  24
ENDBRANCH  19  20
ENDBRANCH  16  19
ENDBRANCH   1  16
TORSDOF 8
