REMARK  Name = ZINC21595337
REMARK  9 active torsions:
REMARK  status: ('A' for Active; 'I' for Inactive)
REMARK    1  A    between atoms: C_1  and  C_2
REMARK    2  A    between atoms: C_2  and  C_3
REMARK    3  A    between atoms: C_2  and  C_4
REMARK    4  A    between atoms: C_2  and  N_5
REMARK    5  A    between atoms: C_6  and  C_8
REMARK    6  A    between atoms: C_14  and  N_17
REMARK    7  A    between atoms: C_18  and  C_20
REMARK    8  A    between atoms: C_23  and  C_25
REMARK    9  A    between atoms: C_30  and  N_31
REMARK                            x       y       z     vdW  Elec       q    Type
REMARK                         _______ _______ _______ _____ _____    ______ ____
ROOT
ATOM      1  C   UNL     1       6.494   6.789   5.723  0.00  0.00    +0.093 A 
ATOM      2  C   UNL     1       6.284   8.113   5.487  0.00  0.00    +0.068 A 
ATOM      3  C   UNL     1       5.337   8.513   4.525  0.00  0.00    +0.010 A 
ATOM      4  C   UNL     1       4.979   9.832   4.140  0.00  0.00    +0.010 A 
ATOM      5  C   UNL     1       4.037  10.049   3.187  0.00  0.00    +0.002 A 
ATOM      6  C   UNL     1       3.392   8.999   2.546  0.00  0.00    +0.024 A 
ATOM      7  C   UNL     1       3.704   7.694   2.893  0.00  0.00    +0.048 A 
ATOM      8  C   UNL     1       4.663   7.460   3.865  0.00  0.00    +0.043 A 
ATOM      9  S   UNL     1       5.360   6.000   4.594  0.00  0.00    -0.080 S 
ATOM     10 CL   UNL     1       7.181   9.307   6.372  0.00  0.00    -0.082 Cl
ENDROOT
BRANCH   1  12
ATOM     11  N   UNL     1       7.492   4.822   6.765  0.00  0.00    -0.306 N 
ATOM     12  C   UNL     1       7.424   6.165   6.672  0.00  0.00    +0.253 C 
ATOM     13  O   UNL     1       8.133   6.860   7.376  0.00  0.00    -0.270 OA
ATOM     14  H   UNL     1       6.851   4.194   6.129  0.00  0.00    +0.150 HD
BRANCH  11  16
ATOM     15  C   UNL     1       8.076   4.651   9.133  0.00  0.00    +0.031 C 
ATOM     16  C   UNL     1       8.419   4.199   7.712  0.00  0.00    +0.026 C 
ATOM     17  C   UNL     1       8.299   2.677   7.618  0.00  0.00    +0.031 C 
ATOM     18  C   UNL     1       9.851   4.620   7.375  0.00  0.00    +0.031 C 
ENDBRANCH  11  16
ENDBRANCH   1  12
BRANCH   7  19
ATOM     19  N   UNL     1       3.061   6.623   2.264  0.00  0.00    -0.278 N 
ATOM     20  C   UNL     1       2.713   6.715   0.965  0.00  0.00    +0.284 C 
ATOM     21  O   UNL     1       2.885   7.757   0.361  0.00  0.00    -0.266 OA
ATOM     22  H   UNL     1       2.840   5.705   2.829  0.00  0.00    +0.155 HD
BRANCH  20  23
ATOM     23  C   UNL     1       2.127   5.559   0.281  0.00  0.00    +0.190 A 
ATOM     24  C   UNL     1       1.728   5.517  -1.037  0.00  0.00    +0.055 A 
ATOM     25  C   UNL     1       1.232   4.230  -1.268  0.00  0.00    +0.051 A 
ATOM     26  C   UNL     1       1.345   3.541  -0.094  0.00  0.00    +0.138 A 
ATOM     27  O   UNL     1       1.880   4.353   0.833  0.00  0.00    -0.450 OA
BRANCH  26  28
ATOM     28  C   UNL     1       0.939   2.137   0.122  0.00  0.00    +0.047 A 
ATOM     29  C   UNL     1      -0.331   1.706  -0.268  0.00  0.00    +0.014 A 
ATOM     30  C   UNL     1      -0.703   0.394  -0.063  0.00  0.00    +0.001 A 
ATOM     31  C   UNL     1       0.179  -0.495   0.526  0.00  0.00    +0.002 A 
ATOM     32  C   UNL     1       1.438  -0.075   0.915  0.00  0.00    +0.033 A 
ATOM     33  C   UNL     1       1.823   1.235   0.717  0.00  0.00    +0.137 A 
BRANCH  33  34
ATOM     34  N   UNL     1       3.171   1.684   1.135  0.00  0.00    +0.057 N 
ATOM     35  O   UNL     1       3.941   0.896   1.654  0.00  0.00    -0.126 OA
ATOM     36  O   UNL     1       3.509   2.841   0.960  0.00  0.00    -0.126 OA
ENDBRANCH  33  34
ENDBRANCH  26  28
ENDBRANCH  20  23
ENDBRANCH   7  19
TORSDOF 6
