REMARK  6 active torsions:
REMARK  status: ('A' for Active; 'I' for Inactive)
REMARK    1  A    between atoms: N3_2  and  C24_4 
REMARK    2  A    between atoms: C24_4  and  C23_5 
REMARK    3  A    between atoms: C23_5  and  C22_6 
REMARK    4  A    between atoms: C22_6  and  O4_7 
REMARK    5  A    between atoms: O4_7  and  C20_8 
REMARK    6  A    between atoms: C2_28  and  C7_29 
ROOT
HETATM    1  C20 61E A 576       5.641  54.733  21.295  1.00 32.07     0.120 A 
HETATM    2  C18 61E A 576       4.319  54.337  21.671  1.00 26.54     0.071 A 
HETATM    3  C19 61E A 576       6.647  54.981  22.258  1.00 29.50     0.206 A 
HETATM    4  O3  61E A 576       7.806  55.281  21.876  1.00 24.00    -0.285 OA
HETATM    5  C17 61E A 576       6.332  54.773  23.635  1.00 22.98     0.072 A 
HETATM    6  C15 61E A 576       5.013  54.444  24.023  1.00 26.42     0.008 A 
HETATM    7  C16 61E A 576       4.009  54.199  23.041  1.00 31.54     0.048 A 
HETATM    8  N2  61E A 576       2.885  53.859  23.686  1.00 28.65    -0.350 N 
HETATM    9  C21 61E A 576       1.533  53.503  23.080  1.00 22.66     0.156 C 
HETATM   10  C14 61E A 576       3.074  53.898  24.991  1.00 28.72     0.047 A 
HETATM   11  C1  61E A 576       2.170  53.541  26.018  1.00 25.62     0.044 A 
HETATM   12  C13 61E A 576       4.405  54.254  25.255  1.00 27.65     0.020 A 
HETATM   13  C4  61E A 576       4.862  54.312  26.611  1.00 26.39     0.062 A 
HETATM   14  C5  61E A 576       6.068  54.606  27.280  1.00 25.75     0.260 A 
HETATM   15  O1  61E A 576       7.098  55.005  26.746  1.00 25.22    -0.267 OA
HETATM   16  N1  61E A 576       5.960  54.515  28.638  1.00 24.79    -0.289 N 
ATOM     17  H1  61E A 576       6.686  54.709  29.327  1.00  0.00     0.172 HD
HETATM   18  C6  61E A 576       4.728  54.126  28.874  1.00 28.93     0.260 A 
HETATM   19  O2  61E A 576       4.317  53.928  30.015  1.00 29.25    -0.267 OA
HETATM   20  C3  61E A 576       3.948  53.993  27.643  1.00 27.67     0.060 A 
HETATM   21  C2  61E A 576       2.596  53.638  27.342  1.00 26.98    -0.005 A 
ENDROOT
BRANCH   1  22
HETATM   22  O4  61E A 576       6.020  54.923  19.978  1.00 33.30    -0.347 OA
BRANCH  22  23
HETATM   23  C22 61E A 576       4.999  54.779  18.903  1.00 32.96     0.177 C 
BRANCH  23  24
HETATM   24  C23 61E A 576       5.736  54.923  17.525  1.00 38.91     0.057 C 
BRANCH  24  25
HETATM   25  C24 61E A 576       7.225  54.376  17.488  1.00 48.85     0.273 C 
BRANCH  25  26
HETATM   26  N3  61E A 576       7.391  53.105  16.658  1.00 55.87     0.080 N 
HETATM   27  C26 61E A 576       8.818  52.804  16.363  1.00 52.95     0.309 C 
HETATM   28  C25 61E A 576       6.660  53.031  15.330  1.00 57.58     0.309 C 
ENDBRANCH  25  26
ENDBRANCH  24  25
ENDBRANCH  23  24
ENDBRANCH  22  23
ENDBRANCH   1  22
BRANCH  21  29
HETATM   29  C7  61E A 576       1.638  53.376  28.358  1.00 25.42    -0.003 A 
HETATM   30  C8  61E A 576       1.264  54.418  29.303  1.00 22.78     0.045 A 
HETATM   31 CL1  61E A 576       1.898  56.029  29.367  1.00 24.77    -0.083 Cl
HETATM   32  C9  61E A 576       0.350  54.151  30.378  1.00 20.98     0.024 A 
HETATM   33  C10 61E A 576      -0.261  52.874  30.430  1.00 20.36     0.002 A 
HETATM   34  C11 61E A 576       0.027  51.903  29.441  1.00 28.21     0.001 A 
HETATM   35  C12 61E A 576       0.986  52.103  28.420  1.00 24.33     0.014 A 
ENDBRANCH  21  29
TORSDOF 6
