REMARK  Name = CHEMBL400289
REMARK  3 active torsions:
REMARK  status: ('A' for Active; 'I' for Inactive)
REMARK    1  A    between atoms: N_11  and  C_12
REMARK    2  A    between atoms: C_16  and  C_25
REMARK    3  A    between atoms: C_21  and  C_22
REMARK                            x       y       z     vdW  Elec       q    Type
REMARK                         _______ _______ _______ _____ _____    ______ ____
ROOT
ATOM      1  C   UNL     1       1.239  -4.462   0.066  0.00  0.00    +0.055 A 
ATOM      2  C   UNL     1       0.437  -5.587  -0.245  0.00  0.00    +0.020 A 
ATOM      3  C   UNL     1      -0.893  -5.433  -0.663  0.00  0.00    +0.012 A 
ATOM      4  C   UNL     1      -1.644  -6.528  -0.957  0.00  0.00    +0.009 A 
ATOM      5  C   UNL     1      -1.103  -7.817  -0.848  0.00  0.00    -0.016 A 
ATOM      6  C   UNL     1       0.207  -7.998  -0.438  0.00  0.00    +0.034 A 
ATOM      7  C   UNL     1       0.998  -6.882  -0.130  0.00  0.00    +0.049 A 
ATOM      8  N   UNL     1       2.270  -7.035   0.268  0.00  0.00    -0.360 N 
ATOM      9  C   UNL     1       3.033  -6.014   0.561  0.00  0.00    +0.098 A 
ATOM     10  C   UNL     1       2.562  -4.694   0.471  0.00  0.00    +0.074 A 
ATOM     11  H   UNL     1       2.635  -7.931   0.341  0.00  0.00    +0.165 HD
ENDROOT
BRANCH   1  22
ATOM     12  C   UNL     1      -1.379   0.868   0.542  0.00  0.00    +0.001 A 
ATOM     13  C   UNL     1      -2.474   0.767   1.392  0.00  0.00    +0.002 A 
ATOM     14  C   UNL     1      -2.816  -0.430   1.953  0.00  0.00    +0.028 A 
ATOM     15  C   UNL     1      -2.062  -1.568   1.673  0.00  0.00    +0.068 A 
ATOM     16  C   UNL     1      -0.954  -1.468   0.811  0.00  0.00    +0.041 A 
ATOM     17  C   UNL     1      -0.623  -0.231   0.250  0.00  0.00    +0.013 A 
ATOM     18  C   UNL     1      -0.381  -2.812   0.720  0.00  0.00    +0.152 A 
ATOM     19  N   UNL     1      -1.106  -3.603   1.466  0.00  0.00    -0.158 NA
ATOM     20  N   UNL     1      -2.143  -2.879   2.064  0.00  0.00    -0.275 N 
ATOM     21  H   UNL     1      -2.813  -3.247   2.662  0.00  0.00    +0.189 HD
ATOM     22  N   UNL     1       0.738  -3.183  -0.031  0.00  0.00    -0.296 N 
ATOM     23  H   UNL     1       1.162  -2.539  -0.620  0.00  0.00    +0.154 HD
ENDBRANCH   1  22
BRANCH   5  24
ATOM     24  C   UNL     1      -1.941  -8.997  -1.173  0.00  0.00    -0.015 A 
ATOM     25  C   UNL     1      -1.429 -10.293  -1.067  0.00  0.00    +0.028 A 
ATOM     26  C   UNL     1      -2.243 -11.362  -1.380  0.00  0.00    +0.111 A 
ATOM     27  N   UNL     1      -3.487 -11.173  -1.774  0.00  0.00    -0.263 NA
ATOM     28  C   UNL     1      -4.009  -9.967  -1.888  0.00  0.00    +0.111 A 
ATOM     29  C   UNL     1      -3.267  -8.843  -1.589  0.00  0.00    +0.028 A 
ENDBRANCH   5  24
BRANCH  10  30
ATOM     30  C   UNL     1       3.447  -3.565   0.802  0.00  0.00    +0.245 C 
ATOM     31  O   UNL     1       3.007  -2.431   0.818  0.00  0.00    -0.270 OA
ATOM     32  N   UNL     1       4.745  -3.787   1.088  0.00  0.00    -0.325 N 
ATOM     33  H   UNL     1       5.097  -4.691   1.075  0.00  0.00    +0.145 HD
ATOM     34  H   UNL     1       5.328  -3.043   1.306  0.00  0.00    +0.145 HD
ENDBRANCH  10  30
TORSDOF 3
