REMARK  Name = CHEMBL479446
REMARK  9 active torsions:
REMARK  status: ('A' for Active; 'I' for Inactive)
REMARK    1  A    between atoms: C_1  and  O_2
REMARK    2  A    between atoms: O_2  and  C_3
REMARK    3  A    between atoms: C_8  and  N_9
REMARK    4  A    between atoms: N_9  and  C_10
REMARK    5  A    between atoms: C_10  and  C_11
REMARK    6  A    between atoms: C_11  and  N_12
REMARK    7  A    between atoms: C_18  and  N_25
REMARK    8  A    between atoms: C_19  and  C_22
REMARK    9  A    between atoms: N_25  and  C_26
REMARK                            x       y       z     vdW  Elec       q    Type
REMARK                         _______ _______ _______ _____ _____    ______ ____
ROOT
ATOM      1  C   UNL     1      -1.284  -0.434  -3.556  0.00  0.00    +0.143 A 
ATOM      2  C   UNL     1      -0.090   0.244  -3.633  0.00  0.00    +0.073 A 
ATOM      3  C   UNL     1       1.103  -0.461  -3.851  0.00  0.00    +0.052 A 
ATOM      4  C   UNL     1       1.059  -1.869  -3.988  0.00  0.00    +0.022 A 
ATOM      5  C   UNL     1      -0.167  -2.544  -3.906  0.00  0.00    +0.038 A 
ATOM      6  C   UNL     1      -1.325  -1.831  -3.687  0.00  0.00    +0.070 A 
ATOM      7  C   UNL     1       2.266  -2.575  -4.208  0.00  0.00    +0.054 A 
ATOM      8  C   UNL     1       3.455  -1.834  -4.279  0.00  0.00    +0.074 A 
ATOM      9  C   UNL     1       3.404  -0.438  -4.131  0.00  0.00    +0.098 A 
ATOM     10  N   UNL     1       2.274   0.189  -3.929  0.00  0.00    -0.360 N 
ATOM     11  H   UNL     1       2.283   1.154  -3.832  0.00  0.00    +0.165 HD
ENDROOT
BRANCH   8  12
ATOM     12  C   UNL     1       4.742  -2.511  -4.504  0.00  0.00    +0.245 C 
ATOM     13  O   UNL     1       4.769  -3.706  -4.729  0.00  0.00    -0.270 OA
ATOM     14  N   UNL     1       5.890  -1.807  -4.462  0.00  0.00    -0.325 N 
ATOM     15  H   UNL     1       5.869  -0.854  -4.283  0.00  0.00    +0.145 HD
ATOM     16  H   UNL     1       6.738  -2.254  -4.611  0.00  0.00    +0.145 HD
ENDBRANCH   8  12
BRANCH   1  18
ATOM     17  C   UNL     1      -2.330   1.674  -3.219  0.00  0.00    +0.277 C 
ATOM     18  O   UNL     1      -2.436   0.254  -3.344  0.00  0.00    -0.493 OA
ENDBRANCH   1  18
BRANCH   6  19
ATOM     19  N   UNL     1      -2.549  -2.503  -3.599  0.00  0.00    -0.343 N 
ATOM     20  H   UNL     1      -3.366  -2.003  -3.448  0.00  0.00    +0.146 HD
BRANCH  19  21
ATOM     21  C   UNL     1      -2.596  -3.961  -3.735  0.00  0.00    +0.083 C 
BRANCH  21  22
ATOM     22  C   UNL     1      -4.043  -4.439  -3.600  0.00  0.00    -0.060 C 
BRANCH  22  23
ATOM     23  N   UNL     1      -4.090  -5.901  -3.737  0.00  0.00    +0.384 N 
ATOM     24  C   UNL     1      -3.681  -6.279  -5.097  0.00  0.00    -0.050 C 
ATOM     25  C   UNL     1      -3.731  -7.803  -5.236  0.00  0.00    +0.141 C 
ATOM     26  O   UNL     1      -5.053  -8.261  -4.938  0.00  0.00    -0.383 OA
ATOM     27  C   UNL     1      -5.506  -7.896  -3.632  0.00  0.00    +0.141 C 
ATOM     28  C   UNL     1      -5.459  -6.372  -3.489  0.00  0.00    -0.050 C 
ATOM     29  H   UNL     1      -3.463  -6.322  -3.068  0.00  0.00    -0.082 HD
ENDBRANCH  22  23
ENDBRANCH  21  22
ENDBRANCH  19  21
ENDBRANCH   6  19
BRANCH   7  30
ATOM     30  N   UNL     1       2.272  -3.947  -4.347  0.00  0.00    -0.311 N 
ATOM     31  H   UNL     1       2.205  -4.514  -3.563  0.00  0.00    +0.152 HD
BRANCH  30  32
ATOM     32  C   UNL     1       2.378  -4.521  -5.620  0.00  0.00    +0.067 A 
ATOM     33  C   UNL     1       2.617  -3.718  -6.727  0.00  0.00    +0.029 A 
ATOM     34  C   UNL     1       2.721  -4.286  -7.982  0.00  0.00    +0.040 A 
ATOM     35  C   UNL     1       2.585  -5.655  -8.137  0.00  0.00    +0.126 A 
ATOM     36  C   UNL     1       2.346  -6.460  -7.036  0.00  0.00    +0.078 A 
ATOM     37  C   UNL     1       2.248  -5.896  -5.776  0.00  0.00    +0.147 A 
ATOM     38  F   UNL     1       2.020  -6.681  -4.700  0.00  0.00    -0.203 F 
ATOM     39  F   UNL     1       2.686  -6.208  -9.366  0.00  0.00    -0.205 F 
ENDBRANCH  30  32
ENDBRANCH   7  30
TORSDOF 8
