REMARK  Name = CHEMBL136011
REMARK  3 active torsions:
REMARK  status: ('A' for Active; 'I' for Inactive)
REMARK    1  A    between atoms: C_1  and  C_2
REMARK    2  A    between atoms: C_6  and  N_8
REMARK    3  A    between atoms: N_8  and  C_9
REMARK                            x       y       z     vdW  Elec       q    Type
REMARK                         _______ _______ _______ _____ _____    ______ ____
ROOT
ATOM      1  N   UNL     1       0.052  -2.797   2.391  0.00  0.00    -0.288 N 
ATOM      2  C   UNL     1       0.158  -2.084   3.666  0.00  0.00    +0.137 C 
ATOM      3  C   UNL     1      -0.020  -4.173   2.376  0.00  0.00    +0.139 A 
ATOM      4  C   UNL     1       1.187  -4.996   2.408  0.00  0.00    +0.078 A 
ATOM      5  C   UNL     1       2.543  -4.767   2.456  0.00  0.00    +0.118 A 
ATOM      6  N   UNL     1       3.159  -5.956   2.465  0.00  0.00    -0.282 N 
ATOM      7  N   UNL     1       2.211  -6.985   2.423  0.00  0.00    -0.154 NA
ATOM      8  C   UNL     1       1.007  -6.459   2.388  0.00  0.00    +0.186 A 
ATOM      9  N   UNL     1      -0.253  -6.933   2.341  0.00  0.00    -0.214 NA
ATOM     10  C   UNL     1      -1.277  -6.121   2.314  0.00  0.00    +0.225 A 
ATOM     11  N   UNL     1      -1.189  -4.801   2.336  0.00  0.00    -0.220 NA
ATOM     12  H   UNL     1       4.120  -6.085   2.496  0.00  0.00    +0.188 HD
ENDROOT
BRANCH   1  18
ATOM     13  C   UNL     1      -0.102   1.516   0.038  0.00  0.00    +0.044 C 
ATOM     14  C   UNL     1      -0.050   0.010   0.020  0.00  0.00    -0.049 A 
ATOM     15  C   UNL     1      -0.029  -0.666  -1.187  0.00  0.00    +0.003 A 
ATOM     16  C   UNL     1       0.019  -2.048  -1.207  0.00  0.00    +0.002 A 
ATOM     17  C   UNL     1       0.046  -2.758  -0.023  0.00  0.00    +0.023 A 
ATOM     18  C   UNL     1       0.025  -2.082   1.190  0.00  0.00    +0.035 A 
ATOM     19  C   UNL     1      -0.018  -0.693   1.208  0.00  0.00    +0.026 A 
ENDBRANCH   1  18
TORSDOF 1
