REMARK  Name = CHEMBL250156
REMARK  7 active torsions:
REMARK  status: ('A' for Active; 'I' for Inactive)
REMARK    1  A    between atoms: C_1  and  N_2
REMARK    2  A    between atoms: N_5  and  C_8
REMARK    3  A    between atoms: C_8  and  C_9
REMARK    4  A    between atoms: C_12  and  N_25
REMARK    5  A    between atoms: C_13  and  N_15
REMARK    6  A    between atoms: C_16  and  C_18
REMARK    7  A    between atoms: C_21  and  C_23
REMARK                            x       y       z     vdW  Elec       q    Type
REMARK                         _______ _______ _______ _____ _____    ______ ____
ROOT
ATOM      1  C   UNL     1       0.009  -4.604   2.267  0.00  0.00    -0.062 A 
ATOM      2  C   UNL     1       1.375  -4.791   2.366  0.00  0.00    +0.004 A 
ATOM      3  C   UNL     1       1.929  -5.275   3.536  0.00  0.00    +0.025 A 
ATOM      4  C   UNL     1       1.112  -5.574   4.617  0.00  0.00    +0.051 A 
ATOM      5  C   UNL     1      -0.266  -5.386   4.518  0.00  0.00    +0.055 A 
ATOM      6  C   UNL     1      -0.812  -4.895   3.341  0.00  0.00    +0.027 A 
ENDROOT
BRANCH   4   7
ATOM      7  N   UNL     1       1.670  -6.064   5.803  0.00  0.00    -0.328 N 
ATOM      8  C   UNL     1       1.842  -7.509   6.008  0.00  0.00    +0.105 C 
ATOM      9  C   UNL     1       3.304  -7.784   6.377  0.00  0.00    +0.019 C 
ATOM     10  C   UNL     1       3.690  -6.927   7.585  0.00  0.00    +0.003 C 
ATOM     11  C   UNL     1       3.552  -5.445   7.227  0.00  0.00    +0.019 C 
ATOM     12  C   UNL     1       2.100  -5.144   6.864  0.00  0.00    +0.105 C 
ENDBRANCH   4   7
BRANCH   5  13
ATOM     13  N   UNL     1      -1.096  -5.686   5.605  0.00  0.00    -0.277 N 
ATOM     14  C   UNL     1      -2.191  -4.937   5.844  0.00  0.00    +0.284 C 
ATOM     15  O   UNL     1      -2.503  -4.051   5.071  0.00  0.00    -0.266 OA
ATOM     16  H   UNL     1      -0.883  -6.433   6.186  0.00  0.00    +0.155 HD
BRANCH  14  17
ATOM     17  C   UNL     1      -3.007  -5.190   7.040  0.00  0.00    +0.191 A 
ATOM     18  C   UNL     1      -4.138  -4.508   7.392  0.00  0.00    +0.056 A 
ATOM     19  C   UNL     1      -4.597  -5.067   8.590  0.00  0.00    +0.061 A 
ATOM     20  C   UNL     1      -3.718  -6.076   8.921  0.00  0.00    +0.205 A 
ATOM     21  O   UNL     1      -2.769  -6.136   7.969  0.00  0.00    -0.440 OA
BRANCH  20  22
ATOM     22  C   UNL     1      -3.803  -6.918  10.076  0.00  0.00    +0.138 C 
ATOM     23  N   UNL     1      -3.870  -7.587  10.992  0.00  0.00    -0.188 NA
ENDBRANCH  20  22
ENDBRANCH  14  17
ENDBRANCH   5  13
BRANCH   1  24
ATOM     24  C   UNL     1      -0.587  -4.076   0.988  0.00  0.00    -0.043 C 
BRANCH  24  29
ATOM     25  C   UNL     1      -0.033   1.439  -0.026  0.00  0.00    +0.104 C 
ATOM     26  N   UNL     1      -0.018  -0.030  -0.028  0.00  0.00    -0.309 NA
ATOM     27  C   UNL     1      -1.383  -0.571  -0.095  0.00  0.00    +0.065 C 
ATOM     28  C   UNL     1      -1.320  -2.099  -0.156  0.00  0.00    -0.063 C 
ATOM     29  N   UNL     1      -0.631  -2.608   1.037  0.00  0.00    +0.384 N 
ATOM     30  C   UNL     1       0.739  -2.079   1.078  0.00  0.00    -0.063 C 
ATOM     31  C   UNL     1       0.693  -0.551   1.149  0.00  0.00    +0.065 C 
ATOM     32  H   UNL     1      -1.129  -2.315   1.864  0.00  0.00    -0.081 HD
ENDBRANCH  24  29
ENDBRANCH   1  24
TORSDOF 6
