REMARK  Name = CHEMBL254496
REMARK  6 active torsions:
REMARK  status: ('A' for Active; 'I' for Inactive)
REMARK    1  A    between atoms: C_1  and  C_2
REMARK    2  A    between atoms: N_5  and  C_8
REMARK    3  A    between atoms: C_10  and  N_24
REMARK    4  A    between atoms: C_13  and  N_14
REMARK    5  A    between atoms: C_15  and  C_17
REMARK    6  A    between atoms: C_20  and  C_22
REMARK                            x       y       z     vdW  Elec       q    Type
REMARK                         _______ _______ _______ _____ _____    ______ ____
ROOT
ATOM      1  C   UNL     1      -1.158  -3.581   2.053  0.00  0.00    +0.053 A 
ATOM      2  C   UNL     1      -1.044  -4.951   1.869  0.00  0.00    +0.048 A 
ATOM      3  C   UNL     1      -1.558  -5.823   2.820  0.00  0.00    +0.032 A 
ATOM      4  C   UNL     1      -2.186  -5.324   3.954  0.00  0.00    +0.025 A 
ATOM      5  C   UNL     1      -2.301  -3.959   4.140  0.00  0.00    +0.027 A 
ATOM      6  C   UNL     1      -1.784  -3.084   3.196  0.00  0.00    +0.055 A 
ENDROOT
BRANCH   1  11
ATOM      7  C   UNL     1       0.026   1.309  -0.162  0.00  0.00    +0.007 C 
ATOM      8  C   UNL     1       0.000  -0.220  -0.100  0.00  0.00    -0.011 C 
ATOM      9  C   UNL     1      -1.451  -0.703  -0.046  0.00  0.00    +0.022 C 
ATOM     10  C   UNL     1      -1.474  -2.235  -0.019  0.00  0.00    +0.105 C 
ATOM     11  N   UNL     1      -0.641  -2.701   1.098  0.00  0.00    -0.328 N 
ATOM     12  C   UNL     1       0.745  -2.223   1.192  0.00  0.00    +0.105 C 
ATOM     13  C   UNL     1       0.744  -0.692   1.152  0.00  0.00    +0.022 C 
ENDBRANCH   1  11
BRANCH   3  14
ATOM     14  N   UNL     1      -1.444  -7.204   2.635  0.00  0.00    -0.325 N 
ATOM     15  C   UNL     1      -1.881  -8.147   3.677  0.00  0.00    +0.133 C 
ATOM     16  C   UNL     1      -2.800  -9.190   3.032  0.00  0.00    +0.178 C 
ATOM     17  O   UNL     1      -2.142  -9.759   1.897  0.00  0.00    -0.377 OA
ATOM     18  C   UNL     1      -1.853  -8.821   0.858  0.00  0.00    +0.178 C 
ATOM     19  C   UNL     1      -0.890  -7.759   1.389  0.00  0.00    +0.133 C 
ENDBRANCH   3  14
BRANCH   6  20
ATOM     20  N   UNL     1      -1.896  -1.699   3.389  0.00  0.00    -0.277 N 
ATOM     21  C   UNL     1      -2.892  -1.202   4.149  0.00  0.00    +0.284 C 
ATOM     22  O   UNL     1      -3.651  -1.958   4.726  0.00  0.00    -0.266 OA
ATOM     23  H   UNL     1      -1.256  -1.099   2.974  0.00  0.00    +0.155 HD
BRANCH  21  24
ATOM     24  C   UNL     1      -3.061   0.252   4.280  0.00  0.00    +0.191 A 
ATOM     25  C   UNL     1      -4.023   0.879   5.021  0.00  0.00    +0.056 A 
ATOM     26  C   UNL     1      -3.824   2.256   4.869  0.00  0.00    +0.061 A 
ATOM     27  C   UNL     1      -2.739   2.411   4.034  0.00  0.00    +0.205 A 
ATOM     28  O   UNL     1      -2.291   1.189   3.695  0.00  0.00    -0.440 OA
BRANCH  27  29
ATOM     29  C   UNL     1      -2.181   3.659   3.606  0.00  0.00    +0.138 C 
ATOM     30  N   UNL     1      -1.739   4.648   3.266  0.00  0.00    -0.188 NA
ENDBRANCH  27  29
ENDBRANCH  21  24
ENDBRANCH   6  20
TORSDOF 5
