REMARK  Name = CHEMBL1079545
REMARK  7 active torsions:
REMARK  status: ('A' for Active; 'I' for Inactive)
REMARK    1  A    between atoms: C_1  and  C_2
REMARK    2  A    between atoms: C_2  and  C_3
REMARK    3  A    between atoms: C_2  and  C_4
REMARK    4  A    between atoms: C_2  and  C_5
REMARK    5  A    between atoms: N_13  and  C_14
REMARK    6  A    between atoms: C_17  and  N_20
REMARK    7  A    between atoms: C_21  and  C_23
REMARK                            x       y       z     vdW  Elec       q    Type
REMARK                         _______ _______ _______ _____ _____    ______ ____
ROOT
ATOM      1  C   UNL     1       6.753   0.666  -3.233  0.00  0.00    +0.035 A 
ATOM      2  C   UNL     1       6.686   1.356  -2.030  0.00  0.00    +0.025 A 
ATOM      3  C   UNL     1       7.763   2.109  -1.605  0.00  0.00    +0.025 A 
ATOM      4  C   UNL     1       8.912   2.177  -2.382  0.00  0.00    +0.034 A 
ATOM      5  C   UNL     1       8.978   1.487  -3.586  0.00  0.00    +0.025 A 
ATOM      6  C   UNL     1       7.904   0.730  -4.007  0.00  0.00    +0.025 A 
ENDROOT
BRANCH   1  15
ATOM      7  C   UNL     1       0.349   1.274  -2.854  0.00  0.00    +0.144 A 
ATOM      8  C   UNL     1       1.692   1.196  -2.874  0.00  0.00    +0.092 A 
ATOM      9  C   UNL     1       2.054   0.065  -3.639  0.00  0.00    +0.169 A 
ATOM     10  N   UNL     1       0.953  -0.506  -4.057  0.00  0.00    -0.063 NA
ATOM     11  O   UNL     1      -0.141   0.246  -3.563  0.00  0.00    -0.357 OA
ATOM     12  N   UNL     1       3.354  -0.366  -3.903  0.00  0.00    -0.251 N 
ATOM     13  C   UNL     1       4.404   0.319  -3.409  0.00  0.00    +0.309 C 
ATOM     14  O   UNL     1       4.218   1.313  -2.734  0.00  0.00    -0.252 OA
ATOM     15  N   UNL     1       5.660  -0.098  -3.663  0.00  0.00    -0.269 N 
ATOM     16  H   UNL     1       3.502  -1.159  -4.441  0.00  0.00    +0.158 HD
ATOM     17  H   UNL     1       5.808  -0.927  -4.145  0.00  0.00    +0.156 HD
BRANCH   7  19
ATOM     18  C   UNL     1      -0.112   3.707  -2.718  0.00  0.00    +0.019 C 
ATOM     19  C   UNL     1      -0.464   2.330  -2.151  0.00  0.00    +0.023 C 
ATOM     20  C   UNL     1      -0.153   2.301  -0.653  0.00  0.00    +0.019 C 
ATOM     21  C   UNL     1      -1.954   2.055  -2.367  0.00  0.00    +0.019 C 
ENDBRANCH   7  19
ENDBRANCH   1  15
BRANCH   4  22
ATOM     22  N   UNL     1      10.003   2.941  -1.952  0.00  0.00    -0.280 N 
ATOM     23  C   UNL     1      10.294   3.021  -0.638  0.00  0.00    +0.268 C 
ATOM     24  O   UNL     1       9.561   2.500   0.179  0.00  0.00    -0.268 OA
ATOM     25  H   UNL     1      10.550   3.413  -2.599  0.00  0.00    +0.155 HD
BRANCH  23  26
ATOM     26  C   UNL     1      11.504   3.743  -0.192  0.00  0.00    +0.149 A 
ATOM     27  C   UNL     1      11.802   3.823   1.172  0.00  0.00    +0.207 A 
ATOM     28  C   UNL     1      12.947   4.508   1.573  0.00  0.00    +0.054 A 
ATOM     29  C   UNL     1      13.746   5.082   0.600  0.00  0.00    +0.021 A 
ATOM     30  C   UNL     1      13.388   4.961  -0.735  0.00  0.00    +0.083 A 
ATOM     31  N   UNL     1      12.306   4.306  -1.090  0.00  0.00    -0.354 N 
ATOM     32  O   UNL     1      10.988   3.245   2.091  0.00  0.00    -0.286 OA
ATOM     33  H   UNL     1      12.084   4.236  -2.032  0.00  0.00    +0.166 HD
ENDBRANCH  23  26
ENDBRANCH   4  22
TORSDOF 4
