REMARK  Name = CHEMBL490080
REMARK  8 active torsions:
REMARK  status: ('A' for Active; 'I' for Inactive)
REMARK    1  A    between atoms: C_1  and  O_2
REMARK    2  A    between atoms: O_2  and  N_3
REMARK    3  A    between atoms: C_4  and  C_6
REMARK    4  A    between atoms: N_8  and  C_31
REMARK    5  A    between atoms: N_17  and  C_18
REMARK    6  A    between atoms: C_21  and  C_24
REMARK    7  A    between atoms: C_24  and  C_25
REMARK    8  A    between atoms: C_25  and  N_26
REMARK                            x       y       z     vdW  Elec       q    Type
REMARK                         _______ _______ _______ _____ _____    ______ ____
ROOT
ATOM      1  C   UNL     1       2.108  -2.428   1.999  0.00  0.00    +0.102 A 
ATOM      2  C   UNL     1       2.135  -3.797   2.147  0.00  0.00    +0.104 A 
ATOM      3  N   UNL     1       2.706  -4.394   3.206  0.00  0.00    -0.328 N 
ATOM      4  C   UNL     1       3.304  -3.691   4.219  0.00  0.00    +0.150 A 
ATOM      5  C   UNL     1       3.341  -2.282   4.180  0.00  0.00    +0.083 A 
ATOM      6  C   UNL     1       2.733  -1.588   3.036  0.00  0.00    +0.205 A 
ATOM      7  O   UNL     1       2.741  -0.372   2.951  0.00  0.00    -0.286 OA
ATOM      8  C   UNL     1       3.957  -1.589   5.223  0.00  0.00    +0.129 A 
ATOM      9  N   UNL     1       4.486  -2.285   6.215  0.00  0.00    -0.222 NA
ATOM     10  C   UNL     1       4.436  -3.613   6.223  0.00  0.00    +0.221 A 
ATOM     11  N   UNL     1       3.861  -4.309   5.254  0.00  0.00    -0.196 NA
ATOM     12  N   UNL     1       5.005  -4.293   7.282  0.00  0.00    -0.284 N 
ATOM     13  H   UNL     1       5.046  -5.262   7.271  0.00  0.00    +0.155 HD
ENDROOT
BRANCH  12  14
ATOM     14  C   UNL     1       5.521  -3.584   8.371  0.00  0.00    +0.034 A 
ATOM     15  C   UNL     1       4.925  -2.396   8.774  0.00  0.00    +0.023 A 
ATOM     16  C   UNL     1       5.437  -1.698   9.851  0.00  0.00    +0.005 A 
ATOM     17  C   UNL     1       6.543  -2.181  10.526  0.00  0.00    -0.049 A 
ATOM     18  C   UNL     1       7.139  -3.364  10.127  0.00  0.00    +0.005 A 
ATOM     19  C   UNL     1       6.628  -4.069   9.056  0.00  0.00    +0.023 A 
BRANCH  17  20
ATOM     20  C   UNL     1       7.100  -1.417  11.699  0.00  0.00    +0.016 C 
BRANCH  20  21
ATOM     21  C   UNL     1       6.424  -1.894  12.986  0.00  0.00    -0.074 C 
BRANCH  21  22
ATOM     22  N   UNL     1       6.967  -1.149  14.130  0.00  0.00    +0.380 N 
ATOM     23  C   UNL     1       6.540   0.272  14.065  0.00  0.00    -0.079 C 
ATOM     24  C   UNL     1       6.681   0.752  15.531  0.00  0.00    -0.020 C 
ATOM     25  C   UNL     1       6.228  -0.482  16.345  0.00  0.00    -0.020 C 
ATOM     26  C   UNL     1       6.412  -1.679  15.394  0.00  0.00    -0.079 C 
ATOM     27  H   UNL     1       7.974  -1.210  14.139  0.00  0.00    -0.082 HD
ENDBRANCH  21  22
ENDBRANCH  20  21
ENDBRANCH  17  20
ENDBRANCH  12  14
BRANCH   3  28
ATOM     28  C   UNL     1       2.688  -5.857   3.282  0.00  0.00    +0.089 C 
ATOM     29  C   UNL     1       3.416  -6.440   2.068  0.00  0.00    +0.025 C 
ATOM     30  C   UNL     1       3.397  -7.967   2.148  0.00  0.00    +0.002 C 
ATOM     31  C   UNL     1       1.948  -8.460   2.159  0.00  0.00    +0.000 C 
ATOM     32  C   UNL     1       1.221  -7.877   3.372  0.00  0.00    +0.002 C 
ATOM     33  C   UNL     1       1.240  -6.349   3.292  0.00  0.00    +0.025 C 
ENDBRANCH   3  28
BRANCH   1  35
ATOM     34  N   UNL     1       1.551  -0.483   0.630  0.00  0.00    -0.191 N 
ATOM     35  C   UNL     1       1.472  -1.815   0.822  0.00  0.00    +0.272 C 
ATOM     36  O   UNL     1       0.875  -2.510   0.022  0.00  0.00    -0.268 OA
ATOM     37  H   UNL     1       1.964   0.080   1.304  0.00  0.00    +0.183 HD
BRANCH  34  39
ATOM     38  C   UNL     1       1.182   1.513  -0.623  0.00  0.00    +0.226 C 
ATOM     39  O   UNL     1       1.031   0.094  -0.553  0.00  0.00    -0.283 OA
ENDBRANCH  34  39
ENDBRANCH   1  35
TORSDOF 7
