REMARK  Name = CHEMBL480815
REMARK  10 active torsions:
REMARK  status: ('A' for Active; 'I' for Inactive)
REMARK    1  A    between atoms: C_1  and  C_2
REMARK    2  A    between atoms: C_2  and  O_3
REMARK    3  A    between atoms: O_3  and  C_4
REMARK    4  A    between atoms: C_9  and  N_10
REMARK    5  A    between atoms: N_10  and  C_11
REMARK    6  A    between atoms: C_11  and  C_12
REMARK    7  A    between atoms: C_12  and  N_13
REMARK    8  A    between atoms: C_19  and  N_26
REMARK    9  A    between atoms: C_20  and  C_23
REMARK   10  A    between atoms: N_26  and  C_27
REMARK                            x       y       z     vdW  Elec       q    Type
REMARK                         _______ _______ _______ _____ _____    ______ ____
ROOT
ATOM      1  C   UNL     1      -1.952  -2.974   2.245  0.00  0.00    +0.143 A 
ATOM      2  C   UNL     1      -1.507  -3.368   1.004  0.00  0.00    +0.076 A 
ATOM      3  C   UNL     1      -0.483  -4.321   0.898  0.00  0.00    +0.076 A 
ATOM      4  C   UNL     1       0.081  -4.865   2.077  0.00  0.00    +0.024 A 
ATOM      5  C   UNL     1      -0.385  -4.451   3.333  0.00  0.00    +0.038 A 
ATOM      6  C   UNL     1      -1.388  -3.511   3.412  0.00  0.00    +0.070 A 
ATOM      7  C   UNL     1       1.114  -5.826   1.964  0.00  0.00    +0.054 A 
ATOM      8  C   UNL     1       1.529  -6.191   0.674  0.00  0.00    +0.076 A 
ATOM      9  C   UNL     1       0.913  -5.599  -0.440  0.00  0.00    +0.126 A 
ATOM     10  N   UNL     1      -0.040  -4.713  -0.306  0.00  0.00    -0.254 NA
ENDROOT
BRANCH   8  11
ATOM     11  C   UNL     1       2.599  -7.185   0.491  0.00  0.00    +0.245 C 
ATOM     12  O   UNL     1       3.060  -7.767   1.455  0.00  0.00    -0.270 OA
ATOM     13  N   UNL     1       3.069  -7.450  -0.744  0.00  0.00    -0.325 N 
ATOM     14  H   UNL     1       2.701  -6.986  -1.512  0.00  0.00    +0.145 HD
ATOM     15  H   UNL     1       3.774  -8.105  -0.864  0.00  0.00    +0.145 HD
ENDBRANCH   8  11
BRANCH   6  16
ATOM     16  N   UNL     1      -1.851  -3.093   4.665  0.00  0.00    -0.343 N 
ATOM     17  H   UNL     1      -2.560  -2.434   4.724  0.00  0.00    +0.146 HD
BRANCH  16  18
ATOM     18  C   UNL     1      -1.266  -3.651   5.886  0.00  0.00    +0.083 C 
BRANCH  18  19
ATOM     19  C   UNL     1      -1.946  -3.030   7.108  0.00  0.00    -0.060 C 
BRANCH  19  20
ATOM     20  N   UNL     1      -1.359  -3.590   8.332  0.00  0.00    +0.381 N 
ATOM     21  C   UNL     1      -1.653  -5.027   8.402  0.00  0.00    -0.079 C 
ATOM     22  C   UNL     1      -0.975  -5.630   9.634  0.00  0.00    -0.019 C 
ATOM     23  C   UNL     1      -1.506  -4.938  10.892  0.00  0.00    -0.004 C 
ATOM     24  C   UNL     1      -1.260  -3.431  10.776  0.00  0.00    -0.019 C 
ATOM     25  C   UNL     1      -1.928  -2.908   9.502  0.00  0.00    -0.079 C 
ATOM     26  H   UNL     1      -0.360  -3.454   8.318  0.00  0.00    -0.082 HD
ENDBRANCH  19  20
ENDBRANCH  18  19
ENDBRANCH  16  18
ENDBRANCH   6  16
BRANCH   7  27
ATOM     27  N   UNL     1       1.693  -6.383   3.084  0.00  0.00    -0.312 N 
ATOM     28  H   UNL     1       2.355  -5.884   3.587  0.00  0.00    +0.152 HD
BRANCH  27  29
ATOM     29  C   UNL     1       1.326  -7.669   3.494  0.00  0.00    +0.051 A 
ATOM     30  C   UNL     1       0.487  -8.440   2.700  0.00  0.00    +0.025 A 
ATOM     31  C   UNL     1       0.127  -9.710   3.107  0.00  0.00    +0.003 A 
ATOM     32  C   UNL     1       0.600 -10.214   4.304  0.00  0.00    +0.021 A 
ATOM     33  C   UNL     1       1.436  -9.450   5.099  0.00  0.00    +0.061 A 
ATOM     34  C   UNL     1       1.805  -8.180   4.695  0.00  0.00    +0.080 A 
ATOM     35 CL   UNL     1       2.860  -7.223   5.688  0.00  0.00    -0.080 Cl
ATOM     36 CL   UNL     1       2.026 -10.087   6.602  0.00  0.00    -0.082 Cl
ENDBRANCH  27  29
ENDBRANCH   7  27
BRANCH   1  37
ATOM     37  O   UNL     1      -2.944  -2.050   2.341  0.00  0.00    -0.490 OA
BRANCH  37  39
ATOM     38  C   UNL     1      -4.576  -0.521   1.425  0.00  0.00    +0.048 C 
ATOM     39  C   UNL     1      -3.478  -1.541   1.117  0.00  0.00    +0.226 C 
ENDBRANCH  37  39
ENDBRANCH   1  37
TORSDOF 9
