REMARK  Name = CHEMBL1087662
REMARK  13 active torsions:
REMARK  status: ('A' for Active; 'I' for Inactive)
REMARK    1  A    between atoms: C_1  and  N_2
REMARK    2  A    between atoms: C_4  and  C_7
REMARK    3  A    between atoms: C_10  and  N_33
REMARK    4  A    between atoms: C_11  and  O_13
REMARK    5  A    between atoms: O_13  and  C_14
REMARK    6  A    between atoms: C_14  and  C_15
REMARK    7  A    between atoms: C_17  and  O_31
REMARK    8  A    between atoms: C_18  and  O_21
REMARK    9  A    between atoms: O_21  and  C_22
REMARK   10  A    between atoms: C_22  and  C_23
REMARK   11  A    between atoms: C_26  and  O_29
REMARK   12  A    between atoms: O_29  and  C_30
REMARK   13  A    between atoms: O_31  and  C_32
REMARK                            x       y       z     vdW  Elec       q    Type
REMARK                         _______ _______ _______ _____ _____    ______ ____
ROOT
ATOM      1  C   UNL     1       0.025  -2.811  -7.015  0.00  0.00    +0.058 A 
ATOM      2  C   UNL     1       0.032  -4.034  -7.657  0.00  0.00    +0.074 A 
ATOM      3  C   UNL     1       0.030  -4.069  -9.047  0.00  0.00    +0.165 A 
ATOM      4  C   UNL     1       0.021  -2.857  -9.740  0.00  0.00    +0.178 A 
ATOM      5  C   UNL     1       0.015  -1.674  -9.022  0.00  0.00    +0.132 A 
ATOM      6  N   UNL     1       0.012  -1.685  -7.702  0.00  0.00    -0.359 N 
ATOM      7  H   UNL     1       0.003  -0.842  -7.223  0.00  0.00    +0.165 HD
ENDROOT
BRANCH   3   8
ATOM      8  O   UNL     1       0.036  -5.253  -9.714  0.00  0.00    -0.491 OA
ATOM      9  C   UNL     1       0.045  -6.443  -8.923  0.00  0.00    +0.277 C 
ENDBRANCH   3   8
BRANCH   1  10
ATOM     10  C   UNL     1       0.027  -2.763  -5.509  0.00  0.00    +0.284 C 
BRANCH  10  11
ATOM     11  O   UNL     1       0.042  -4.094  -4.989  0.00  0.00    -0.468 OA
BRANCH  11  16
ATOM     12  C   UNL     1       0.039  -3.290  -1.541  0.00  0.00    +0.096 A 
ATOM     13  C   UNL     1       0.053  -4.558  -0.971  0.00  0.00    +0.141 A 
ATOM     14  N   UNL     1       0.064  -5.632  -1.742  0.00  0.00    -0.234 NA
ATOM     15  C   UNL     1       0.060  -5.503  -3.061  0.00  0.00    +0.179 A 
ATOM     16  C   UNL     1       0.045  -4.228  -3.638  0.00  0.00    +0.257 A 
ATOM     17  N   UNL     1       0.030  -3.155  -2.866  0.00  0.00    -0.208 NA
BRANCH  12  21
ATOM     18  C   UNL     1      -0.018   1.461   0.010  0.00  0.00    +0.172 C 
ATOM     19  N   UNL     1       0.002  -0.004   0.002  0.00  0.00    -0.274 N 
ATOM     20  C   UNL     1       0.008  -0.788  -1.094  0.00  0.00    +0.118 A 
ATOM     21  C   UNL     1       0.027  -2.086  -0.673  0.00  0.00    +0.039 A 
ATOM     22  C   UNL     1       0.034  -2.076   0.736  0.00  0.00    +0.144 A 
ATOM     23  N   UNL     1       0.025  -0.831   1.132  0.00  0.00    -0.179 NA
ENDBRANCH  12  21
BRANCH  15  24
ATOM     24  N   UNL     1       0.071  -6.635  -3.872  0.00  0.00    -0.339 N 
ATOM     25  H   UNL     1       0.082  -7.518  -3.472  0.00  0.00    +0.144 HD
ATOM     26  H   UNL     1       0.069  -6.540  -4.837  0.00  0.00    +0.144 HD
ENDBRANCH  15  24
ENDBRANCH  11  16
ENDBRANCH  10  11
ENDBRANCH   1  10
BRANCH   4  27
ATOM     27  O   UNL     1       0.020  -2.838 -11.100  0.00  0.00    -0.482 OA
BRANCH  27  28
ATOM     28  C   UNL     1       0.011  -1.557 -11.732  0.00  0.00    +0.264 C 
BRANCH  28  29
ATOM     29  C   UNL     1       0.011  -1.734 -13.228  0.00  0.00    -0.010 A 
ATOM     30  C   UNL     1       1.209  -1.814 -13.914  0.00  0.00    +0.010 A 
ATOM     31  C   UNL     1       1.211  -1.976 -15.286  0.00  0.00    +0.046 A 
ATOM     32  C   UNL     1       0.010  -2.060 -15.975  0.00  0.00    +0.120 A 
ATOM     33  C   UNL     1      -1.191  -1.980 -15.285  0.00  0.00    +0.046 A 
ATOM     34  C   UNL     1      -1.188  -1.823 -13.912  0.00  0.00    +0.010 A 
BRANCH  32  35
ATOM     35  O   UNL     1       0.010  -2.220 -17.325  0.00  0.00    -0.495 OA
ATOM     36  C   UNL     1      -1.264  -2.298 -17.968  0.00  0.00    +0.277 C 
ENDBRANCH  32  35
ENDBRANCH  28  29
ENDBRANCH  27  28
ENDBRANCH   4  27
TORSDOF 10
