REMARK  Name = CHEMBL272738
REMARK  5 active torsions:
REMARK  status: ('A' for Active; 'I' for Inactive)
REMARK    1  A    between atoms: C_1  and  N_2
REMARK    2  A    between atoms: N_5  and  C_8
REMARK    3  A    between atoms: C_11  and  N_14
REMARK    4  A    between atoms: C_23  and  C_35
REMARK    5  A    between atoms: N_25  and  C_26
REMARK                            x       y       z     vdW  Elec       q    Type
REMARK                         _______ _______ _______ _____ _____    ______ ____
ROOT
ATOM      1  N   UNL     1      -2.257  -6.931   4.090  0.00  0.00    -0.299 N 
ATOM      2  C   UNL     1      -1.460  -7.365   5.139  0.00  0.00    +0.125 A 
ATOM      3  C   UNL     1      -0.280  -6.689   5.421  0.00  0.00    +0.070 A 
ATOM      4  C   UNL     1       0.510  -7.133   6.474  0.00  0.00    +0.062 A 
ATOM      5  C   UNL     1       0.070  -8.255   7.207  0.00  0.00    +0.064 A 
ATOM      6  C   UNL     1      -1.126  -8.878   6.859  0.00  0.00    +0.126 A 
ATOM      7  N   UNL     1      -1.843  -8.416   5.855  0.00  0.00    -0.239 NA
ATOM      8  C   UNL     1       0.898  -8.735   8.325  0.00  0.00    +0.203 A 
ATOM      9  O   UNL     1       0.568  -9.700   8.992  0.00  0.00    -0.286 OA
ATOM     10  C   UNL     1       2.144  -8.000   8.602  0.00  0.00    +0.100 A 
ATOM     11  C   UNL     1       2.470  -6.915   7.816  0.00  0.00    +0.108 A 
ATOM     12  N   UNL     1       1.690  -6.504   6.802  0.00  0.00    -0.315 N 
ATOM     13  H   UNL     1      -1.943  -6.226   3.502  0.00  0.00    +0.154 HD
ENDROOT
BRANCH  12  14
ATOM     14  C   UNL     1       2.092  -5.394   6.051  0.00  0.00    +0.047 A 
ATOM     15  C   UNL     1       1.377  -4.205   6.128  0.00  0.00    +0.026 A 
ATOM     16  C   UNL     1       1.779  -3.114   5.385  0.00  0.00    +0.006 A 
ATOM     17  C   UNL     1       2.891  -3.198   4.563  0.00  0.00    -0.044 A 
ATOM     18  C   UNL     1       3.604  -4.380   4.484  0.00  0.00    -0.042 A 
ATOM     19  C   UNL     1       3.209  -5.475   5.232  0.00  0.00    +0.030 A 
ATOM     20  C   UNL     1       4.764  -4.215   3.526  0.00  0.00    +0.036 C 
ATOM     21  C   UNL     1       4.429  -2.955   2.700  0.00  0.00    +0.009 C 
ATOM     22  C   UNL     1       3.524  -2.158   3.663  0.00  0.00    +0.036 C 
ENDBRANCH  12  14
BRANCH   1  26
ATOM     23  C   UNL     1      -6.002  -8.654   3.465  0.00  0.00    +0.030 A 
ATOM     24  C   UNL     1      -5.235  -8.248   2.381  0.00  0.00    +0.025 A 
ATOM     25  C   UNL     1      -3.995  -7.677   2.588  0.00  0.00    +0.025 A 
ATOM     26  C   UNL     1      -3.514  -7.510   3.880  0.00  0.00    +0.032 A 
ATOM     27  C   UNL     1      -4.281  -7.917   4.964  0.00  0.00    +0.025 A 
ATOM     28  C   UNL     1      -5.524  -8.482   4.757  0.00  0.00    +0.025 A 
BRANCH  23  33
ATOM     29  C   UNL     1      -9.730 -12.509   2.441  0.00  0.00    -0.096 C 
ATOM     30  N   UNL     1      -9.206 -11.169   2.735  0.00  0.00    +0.380 N 
ATOM     31  C   UNL     1      -8.296 -10.754   1.659  0.00  0.00    -0.060 C 
ATOM     32  C   UNL     1      -7.839  -9.313   1.905  0.00  0.00    +0.086 C 
ATOM     33  N   UNL     1      -7.259  -9.232   3.255  0.00  0.00    -0.333 N 
ATOM     34  C   UNL     1      -8.038  -9.777   4.378  0.00  0.00    +0.086 C 
ATOM     35  C   UNL     1      -8.486 -11.197   4.014  0.00  0.00    -0.060 C 
ATOM     36  H   UNL     1      -9.972 -10.515   2.795  0.00  0.00    -0.082 HD
ENDBRANCH  23  33
ENDBRANCH   1  26
BRANCH  10  37
ATOM     37  C   UNL     1       3.027  -8.416   9.703  0.00  0.00    +0.247 C 
ATOM     38  O   UNL     1       4.103  -7.870   9.859  0.00  0.00    -0.270 OA
ATOM     39  N   UNL     1       2.644  -9.402  10.538  0.00  0.00    -0.325 N 
ATOM     40  H   UNL     1       1.820  -9.886  10.371  0.00  0.00    +0.145 HD
ATOM     41  H   UNL     1       3.192  -9.627  11.306  0.00  0.00    +0.145 HD
ENDBRANCH  10  37
TORSDOF 4
