REMARK  Name = CHEMBL941
REMARK  8 active torsions:
REMARK  status: ('A' for Active; 'I' for Inactive)
REMARK    1  A    between atoms: C_1  and  C_2
REMARK    2  A    between atoms: C_5  and  N_21
REMARK    3  A    between atoms: C_7  and  N_8
REMARK    4  A    between atoms: C_13  and  C_15
REMARK    5  A    between atoms: C_22  and  C_24
REMARK    6  A    between atoms: C_27  and  C_30
REMARK    7  A    between atoms: C_30  and  N_31
REMARK    8  A    between atoms: N_34  and  C_37
REMARK                            x       y       z     vdW  Elec       q    Type
REMARK                         _______ _______ _______ _____ _____    ______ ____
ROOT
ATOM      1  C   UNL     1      -0.164   1.537   0.277  0.00  0.00    +0.045 C 
ATOM      2  C   UNL     1       0.071   0.128  -0.202  0.00  0.00    -0.029 A 
ATOM      3  C   UNL     1      -0.619  -0.352  -1.299  0.00  0.00    +0.007 A 
ATOM      4  C   UNL     1      -0.407  -1.643  -1.741  0.00  0.00    +0.024 A 
ATOM      5  C   UNL     1       0.502  -2.464  -1.084  0.00  0.00    +0.035 A 
ATOM      6  C   UNL     1       1.196  -1.985   0.018  0.00  0.00    +0.047 A 
ATOM      7  C   UNL     1       0.985  -0.685   0.456  0.00  0.00    +0.038 A 
ENDROOT
BRANCH   7   8
ATOM      8  N   UNL     1       1.687  -0.197   1.562  0.00  0.00    -0.283 N 
ATOM      9  C   UNL     1       2.128  -1.069   2.543  0.00  0.00    +0.220 A 
ATOM     10  N   UNL     1       1.776  -2.346   2.478  0.00  0.00    -0.223 NA
ATOM     11  C   UNL     1       2.178  -3.211   3.395  0.00  0.00    +0.116 A 
ATOM     12  C   UNL     1       2.976  -2.771   4.436  0.00  0.00    +0.048 A 
ATOM     13  C   UNL     1       3.331  -1.421   4.479  0.00  0.00    +0.077 A 
ATOM     14  N   UNL     1       2.895  -0.609   3.518  0.00  0.00    -0.214 NA
ATOM     15  H   UNL     1       1.866   0.753   1.642  0.00  0.00    +0.155 HD
BRANCH  13  16
ATOM     16  C   UNL     1       4.186  -0.901   5.574  0.00  0.00    +0.019 A 
ATOM     17  C   UNL     1       4.451   0.468   5.679  0.00  0.00    +0.013 A 
ATOM     18  C   UNL     1       5.254   0.903   6.719  0.00  0.00    +0.020 A 
ATOM     19  C   UNL     1       5.764  -0.022   7.613  0.00  0.00    +0.111 A 
ATOM     20  N   UNL     1       5.496  -1.308   7.488  0.00  0.00    -0.263 NA
ATOM     21  C   UNL     1       4.732  -1.768   6.518  0.00  0.00    +0.120 A 
ENDBRANCH  13  16
ENDBRANCH   7   8
BRANCH   5  22
ATOM     22  N   UNL     1       0.715  -3.772  -1.532  0.00  0.00    -0.281 N 
ATOM     23  C   UNL     1       0.740  -4.036  -2.853  0.00  0.00    +0.248 C 
ATOM     24  O   UNL     1       0.491  -3.155  -3.654  0.00  0.00    -0.270 OA
ATOM     25  H   UNL     1       0.845  -4.488  -0.891  0.00  0.00    +0.155 HD
BRANCH  23  26
ATOM     26  C   UNL     1       1.071  -5.396  -3.329  0.00  0.00    +0.037 A 
ATOM     27  C   UNL     1       1.352  -6.410  -2.412  0.00  0.00    +0.013 A 
ATOM     28  C   UNL     1       1.659  -7.677  -2.863  0.00  0.00    +0.002 A 
ATOM     29  C   UNL     1       1.689  -7.944  -4.220  0.00  0.00    -0.064 A 
ATOM     30  C   UNL     1       1.412  -6.942  -5.134  0.00  0.00    +0.002 A 
ATOM     31  C   UNL     1       1.098  -5.672  -4.697  0.00  0.00    +0.013 A 
BRANCH  29  32
ATOM     32  C   UNL     1       2.026  -9.330  -4.705  0.00  0.00    -0.043 C 
BRANCH  32  33
ATOM     33  N   UNL     1       0.793 -10.120  -4.826  0.00  0.00    +0.384 N 
ATOM     34  C   UNL     1       0.199 -10.305  -3.495  0.00  0.00    -0.063 C 
ATOM     35  C   UNL     1      -1.095 -11.112  -3.623  0.00  0.00    +0.065 C 
ATOM     36  N   UNL     1      -0.799 -12.416  -4.232  0.00  0.00    -0.309 NA
ATOM     37  C   UNL     1      -0.180 -12.246  -5.555  0.00  0.00    +0.065 C 
ATOM     38  C   UNL     1       1.107 -11.430  -5.411  0.00  0.00    -0.063 C 
ATOM     39  C   UNL     1      -2.009 -13.244  -4.320  0.00  0.00    +0.104 C 
ATOM     40  H   UNL     1       0.140  -9.633  -5.421  0.00  0.00    -0.081 HD
ENDBRANCH  32  33
ENDBRANCH  29  32
ENDBRANCH  23  26
ENDBRANCH   5  22
TORSDOF 6
