REMARK  Name = CHEMBL448339
REMARK  9 active torsions:
REMARK  status: ('A' for Active; 'I' for Inactive)
REMARK    1  A    between atoms: C_1  and  C_2
REMARK    2  A    between atoms: C_2  and  N_3
REMARK    3  A    between atoms: C_7  and  C_9
REMARK    4  A    between atoms: C_7  and  O_41
REMARK    5  A    between atoms: C_13  and  N_15
REMARK    6  A    between atoms: C_22  and  C_36
REMARK    7  A    between atoms: N_24  and  C_27
REMARK    8  A    between atoms: N_38  and  O_39
REMARK    9  A    between atoms: O_39  and  C_40
REMARK                            x       y       z     vdW  Elec       q    Type
REMARK                         _______ _______ _______ _____ _____    ______ ____
ROOT
ATOM      1  N   UNL     1       1.378  -6.487   5.187  0.00  0.00    -0.284 N 
ATOM      2  C   UNL     1       1.101  -7.840   5.166  0.00  0.00    +0.221 A 
ATOM      3  N   UNL     1       1.081  -8.470   3.997  0.00  0.00    -0.222 NA
ATOM      4  C   UNL     1       0.823  -9.764   3.924  0.00  0.00    +0.129 A 
ATOM      5  C   UNL     1       0.568 -10.458   5.108  0.00  0.00    +0.083 A 
ATOM      6  C   UNL     1       0.272 -11.898   5.120  0.00  0.00    +0.205 A 
ATOM      7  O   UNL     1       0.236 -12.548   4.090  0.00  0.00    -0.286 OA
ATOM      8  C   UNL     1       0.021 -12.520   6.432  0.00  0.00    +0.102 A 
ATOM      9  C   UNL     1       0.076 -11.735   7.563  0.00  0.00    +0.110 A 
ATOM     10  N   UNL     1       0.351 -10.420   7.511  0.00  0.00    -0.300 N 
ATOM     11  C   UNL     1       0.597  -9.760   6.332  0.00  0.00    +0.154 A 
ATOM     12  N   UNL     1       0.871  -8.460   6.313  0.00  0.00    -0.196 NA
ATOM     13  H   UNL     1       1.474  -6.024   6.034  0.00  0.00    +0.155 HD
ENDROOT
BRANCH  10  14
ATOM     14  C   UNL     1       0.387  -9.694   8.707  0.00  0.00    +0.048 A 
ATOM     15  C   UNL     1       1.288 -10.040   9.706  0.00  0.00    +0.026 A 
ATOM     16  C   UNL     1       1.319  -9.321  10.883  0.00  0.00    +0.006 A 
ATOM     17  C   UNL     1       0.456  -8.254  11.073  0.00  0.00    -0.044 A 
ATOM     18  C   UNL     1      -0.443  -7.906  10.081  0.00  0.00    -0.042 A 
ATOM     19  C   UNL     1      -0.474  -8.622   8.897  0.00  0.00    +0.030 A 
ATOM     20  C   UNL     1      -1.266  -6.718  10.530  0.00  0.00    +0.036 C 
ATOM     21  C   UNL     1      -1.080  -6.653  12.061  0.00  0.00    +0.009 C 
ATOM     22  C   UNL     1       0.297  -7.322  12.256  0.00  0.00    +0.036 C 
ENDBRANCH  10  14
BRANCH   1  27
ATOM     23  C   UNL     1       2.554  -4.035   2.713  0.00  0.00    -0.016 A 
ATOM     24  C   UNL     1       1.798  -4.391   1.612  0.00  0.00    +0.006 A 
ATOM     25  C   UNL     1       0.902  -5.441   1.695  0.00  0.00    +0.002 A 
ATOM     26  C   UNL     1       0.760  -6.138   2.879  0.00  0.00    +0.023 A 
ATOM     27  C   UNL     1       1.519  -5.783   3.986  0.00  0.00    +0.034 A 
ATOM     28  C   UNL     1       2.422  -4.731   3.898  0.00  0.00    +0.029 A 
BRANCH  23  33
ATOM     29  N   UNL     1       3.967  -0.751   1.505  0.00  0.00    +0.382 N 
ATOM     30  C   UNL     1       5.257  -1.237   1.001  0.00  0.00    -0.079 C 
ATOM     31  C   UNL     1       5.854  -2.235   1.995  0.00  0.00    -0.016 C 
ATOM     32  C   UNL     1       4.894  -3.416   2.164  0.00  0.00    +0.036 C 
ATOM     33  C   UNL     1       3.529  -2.890   2.618  0.00  0.00    +0.076 C 
ATOM     34  C   UNL     1       3.018  -1.867   1.601  0.00  0.00    -0.039 C 
ATOM     35  H   UNL     1       4.097  -0.342   2.418  0.00  0.00    -0.082 HD
BRANCH  29  37
ATOM     36  C   UNL     1       4.361   1.482   0.580  0.00  0.00    -0.017 C 
ATOM     37  C   UNL     1       3.435   0.264   0.586  0.00  0.00    -0.082 C 
ENDBRANCH  29  37
BRANCH  33  38
ATOM     38  O   UNL     1       3.660  -2.266   3.897  0.00  0.00    -0.386 OA
ATOM     39  H   UNL     1       3.983  -2.856   4.591  0.00  0.00    +0.211 HD
ENDBRANCH  33  38
ENDBRANCH  23  33
ENDBRANCH   1  27
BRANCH   8  40
ATOM     40  C   UNL     1      -0.283 -13.956   6.533  0.00  0.00    +0.272 C 
ATOM     41  O   UNL     1      -0.591 -14.439   7.606  0.00  0.00    -0.268 OA
ATOM     42  N   UNL     1      -0.221 -14.737   5.436  0.00  0.00    -0.191 N 
ATOM     43  H   UNL     1       0.100 -14.370   4.597  0.00  0.00    +0.183 HD
BRANCH  42  44
ATOM     44  O   UNL     1      -0.625 -16.092   5.508  0.00  0.00    -0.283 OA
ATOM     45  C   UNL     1      -0.506 -16.800   4.272  0.00  0.00    +0.226 C 
ENDBRANCH  42  44
ENDBRANCH   8  40
TORSDOF 7
