REMARK  Name = CHEMBL261849
REMARK  10 active torsions:
REMARK  status: ('A' for Active; 'I' for Inactive)
REMARK    1  A    between atoms: C_1  and  O_2
REMARK    2  A    between atoms: O_2  and  C_3
REMARK    3  A    between atoms: C_6  and  C_9
REMARK    4  A    between atoms: C_9  and  O_10
REMARK    5  A    between atoms: O_10  and  C_11
REMARK    6  A    between atoms: C_14  and  C_19
REMARK    7  A    between atoms: C_16  and  O_17
REMARK    8  A    between atoms: O_17  and  C_18
REMARK    9  A    between atoms: C_19  and  C_20
REMARK   10  A    between atoms: C_25  and  N_26
REMARK                            x       y       z     vdW  Elec       q    Type
REMARK                         _______ _______ _______ _____ _____    ______ ____
ROOT
ATOM      1  C   UNL     1       4.642  -3.306  -5.048  0.00  0.00    +0.162 A 
ATOM      2  C   UNL     1       4.064  -3.681  -6.251  0.00  0.00    +0.050 A 
ATOM      3  C   UNL     1       4.832  -4.288  -7.227  0.00  0.00    +0.008 A 
ATOM      4  C   UNL     1       6.176  -4.522  -7.007  0.00  0.00    -0.039 A 
ATOM      5  C   UNL     1       6.759  -4.150  -5.810  0.00  0.00    +0.053 A 
ATOM      6  C   UNL     1       5.997  -3.536  -4.829  0.00  0.00    +0.162 A 
ENDROOT
BRANCH   6   7
ATOM      7  O   UNL     1       6.569  -3.165  -3.653  0.00  0.00    -0.491 OA
ATOM      8  C   UNL     1       7.965  -3.433  -3.498  0.00  0.00    +0.277 C 
ENDBRANCH   6   7
BRANCH   1   9
ATOM      9  O   UNL     1       3.888  -2.708  -4.087  0.00  0.00    -0.484 OA
BRANCH   9  10
ATOM     10  C   UNL     1       2.505  -2.503  -4.381  0.00  0.00    +0.264 C 
BRANCH  10  14
ATOM     11  C   UNL     1       0.606  -0.607  -1.056  0.00  0.00    +0.120 A 
ATOM     12  C   UNL     1       1.173   0.161  -2.062  0.00  0.00    +0.046 A 
ATOM     13  C   UNL     1       1.786  -0.455  -3.136  0.00  0.00    +0.010 A 
ATOM     14  C   UNL     1       1.835  -1.835  -3.209  0.00  0.00    -0.010 A 
ATOM     15  C   UNL     1       1.270  -2.602  -2.207  0.00  0.00    +0.010 A 
ATOM     16  C   UNL     1       0.661  -1.992  -1.128  0.00  0.00    +0.046 A 
BRANCH  11  18
ATOM     17  C   UNL     1      -0.017   1.425   0.010  0.00  0.00    +0.277 C 
ATOM     18  O   UNL     1       0.002  -0.004   0.002  0.00  0.00    -0.495 OA
ENDBRANCH  11  18
ENDBRANCH  10  14
ENDBRANCH   9  10
ENDBRANCH   1   9
BRANCH   4  19
ATOM     19  C   UNL     1       7.009  -5.184  -8.075  0.00  0.00    +0.075 C 
BRANCH  19  20
ATOM     20  C   UNL     1       7.598  -4.131  -8.978  0.00  0.00    +0.015 A 
ATOM     21  C   UNL     1       6.966  -3.775 -10.153  0.00  0.00    +0.121 A 
ATOM     22  N   UNL     1       7.509  -2.845 -10.925  0.00  0.00    -0.223 NA
ATOM     23  C   UNL     1       8.646  -2.256 -10.585  0.00  0.00    +0.214 A 
ATOM     24  N   UNL     1       9.283  -2.569  -9.466  0.00  0.00    -0.200 NA
ATOM     25  C   UNL     1       8.791  -3.489  -8.642  0.00  0.00    +0.125 A 
ATOM     26  N   UNL     1       9.181  -1.290 -11.418  0.00  0.00    -0.327 N 
ATOM     27  H   UNL     1       8.725  -1.051 -12.240  0.00  0.00    +0.145 HD
ATOM     28  H   UNL     1      10.012  -0.850 -11.180  0.00  0.00    +0.145 HD
BRANCH  25  29
ATOM     29  N   UNL     1       9.457  -3.810  -7.470  0.00  0.00    -0.343 N 
ATOM     30  H   UNL     1       9.094  -4.485  -6.876  0.00  0.00    +0.144 HD
ATOM     31  H   UNL     1      10.286  -3.360  -7.244  0.00  0.00    +0.144 HD
ENDBRANCH  25  29
ENDBRANCH  19  20
ENDBRANCH   4  19
TORSDOF 8
