REMARK  Name = CHEMBL452664
REMARK  11 active torsions:
REMARK  status: ('A' for Active; 'I' for Inactive)
REMARK    1  A    between atoms: C_1  and  N_2
REMARK    2  A    between atoms: N_2  and  C_3
REMARK    3  A    between atoms: N_2  and  C_4
REMARK    4  A    between atoms: C_4  and  C_5
REMARK    5  A    between atoms: C_5  and  N_6
REMARK    6  A    between atoms: N_6  and  C_7
REMARK    7  A    between atoms: C_12  and  O_13
REMARK    8  A    between atoms: O_13  and  C_14
REMARK    9  A    between atoms: C_17  and  C_28
REMARK   10  A    between atoms: C_18  and  N_19
REMARK   11  A    between atoms: N_19  and  C_20
REMARK                            x       y       z     vdW  Elec       q    Type
REMARK                         _______ _______ _______ _____ _____    ______ ____
ROOT
ATOM      1  C   UNL     1      -3.852  -6.359   2.756  0.00  0.00    +0.070 A 
ATOM      2  C   UNL     1      -2.735  -6.244   1.959  0.00  0.00    +0.038 A 
ATOM      3  C   UNL     1      -2.753  -6.767   0.658  0.00  0.00    +0.022 A 
ATOM      4  C   UNL     1      -3.915  -7.411   0.171  0.00  0.00    +0.052 A 
ATOM      5  C   UNL     1      -5.041  -7.516   1.001  0.00  0.00    +0.073 A 
ATOM      6  C   UNL     1      -5.004  -7.002   2.277  0.00  0.00    +0.143 A 
ATOM      7  N   UNL     1      -3.937  -7.915  -1.073  0.00  0.00    -0.360 N 
ATOM      8  C   UNL     1      -2.905  -7.834  -1.872  0.00  0.00    +0.098 A 
ATOM      9  C   UNL     1      -1.711  -7.213  -1.472  0.00  0.00    +0.074 A 
ATOM     10  C   UNL     1      -1.621  -6.664  -0.184  0.00  0.00    +0.054 A 
ATOM     11  H   UNL     1      -4.743  -8.353  -1.389  0.00  0.00    +0.165 HD
ENDROOT
BRANCH   9  12
ATOM     12  C   UNL     1      -0.566  -7.138  -2.394  0.00  0.00    +0.245 C 
ATOM     13  O   UNL     1       0.497  -6.691  -2.008  0.00  0.00    -0.270 OA
ATOM     14  N   UNL     1      -0.697  -7.563  -3.666  0.00  0.00    -0.325 N 
ATOM     15  H   UNL     1      -1.545  -7.919  -3.974  0.00  0.00    +0.145 HD
ATOM     16  H   UNL     1       0.057  -7.513  -4.274  0.00  0.00    +0.145 HD
ENDBRANCH   9  12
BRANCH   1  17
ATOM     17  N   UNL     1      -3.836  -5.838   4.054  0.00  0.00    -0.343 N 
ATOM     18  H   UNL     1      -4.620  -5.921   4.620  0.00  0.00    +0.146 HD
BRANCH  17  19
ATOM     19  C   UNL     1      -2.636  -5.166   4.560  0.00  0.00    +0.083 C 
BRANCH  19  20
ATOM     20  C   UNL     1      -2.882  -4.693   5.994  0.00  0.00    -0.061 C 
BRANCH  20  22
ATOM     21  C   UNL     1      -1.954  -3.461   7.831  0.00  0.00    -0.097 C 
ATOM     22  N   UNL     1      -1.679  -4.020   6.500  0.00  0.00    +0.377 N 
ATOM     23  C   UNL     1      -0.578  -4.988   6.594  0.00  0.00    -0.097 C 
ATOM     24  H   UNL     1      -1.420  -3.275   5.870  0.00  0.00    -0.083 HD
ENDBRANCH  20  22
ENDBRANCH  19  20
ENDBRANCH  17  19
ENDBRANCH   1  17
BRANCH   6  25
ATOM     25  O   UNL     1      -6.095  -7.112   3.078  0.00  0.00    -0.493 OA
ATOM     26  C   UNL     1      -7.236  -7.777   2.533  0.00  0.00    +0.277 C 
ENDBRANCH   6  25
BRANCH  10  27
ATOM     27  N   UNL     1      -0.466  -6.045   0.248  0.00  0.00    -0.312 N 
ATOM     28  H   UNL     1      -0.356  -5.089   0.131  0.00  0.00    +0.152 HD
BRANCH  27  29
ATOM     29  C   UNL     1       0.545  -6.797   0.853  0.00  0.00    +0.051 A 
ATOM     30  C   UNL     1       0.444  -8.181   0.912  0.00  0.00    +0.025 A 
ATOM     31  C   UNL     1       1.445  -8.921   1.510  0.00  0.00    +0.003 A 
ATOM     32  C   UNL     1       2.548  -8.286   2.051  0.00  0.00    +0.021 A 
ATOM     33  C   UNL     1       2.653  -6.908   1.996  0.00  0.00    +0.061 A 
ATOM     34  C   UNL     1       1.657  -6.161   1.393  0.00  0.00    +0.080 A 
ATOM     35 CL   UNL     1       1.792  -4.432   1.317  0.00  0.00    -0.080 Cl
ATOM     36 CL   UNL     1       4.039  -6.115   2.678  0.00  0.00    -0.082 Cl
ENDBRANCH  27  29
ENDBRANCH  10  27
TORSDOF 8
