REMARK  Name = CHEMBL576982
REMARK  10 active torsions:
REMARK  status: ('A' for Active; 'I' for Inactive)
REMARK    1  A    between atoms: C_1  and  C_2
REMARK    2  A    between atoms: C_2  and  C_3
REMARK    3  A    between atoms: C_2  and  C_4
REMARK    4  A    between atoms: C_2  and  C_5
REMARK    5  A    between atoms: N_13  and  C_14
REMARK    6  A    between atoms: C_17  and  C_20
REMARK    7  A    between atoms: C_26  and  O_32
REMARK    8  A    between atoms: O_32  and  C_33
REMARK    9  A    between atoms: C_33  and  C_34
REMARK   10  A    between atoms: C_34  and  N_35
REMARK                            x       y       z     vdW  Elec       q    Type
REMARK                         _______ _______ _______ _____ _____    ______ ____
ROOT
ATOM      1  C   UNL     1       9.948   3.557  -1.196  0.00  0.00    +0.090 A 
ATOM      2  C   UNL     1      11.059   3.676  -1.961  0.00  0.00    +0.122 A 
ATOM      3  N   UNL     1      11.986   4.419  -1.236  0.00  0.00    -0.293 N 
ATOM      4  C   UNL     1      13.293   4.889  -1.438  0.00  0.00    +0.063 A 
ATOM      5  C   UNL     1      14.086   4.692  -2.580  0.00  0.00    +0.031 A 
ATOM      6  C   UNL     1      15.357   5.208  -2.653  0.00  0.00    +0.048 A 
ATOM      7  C   UNL     1      15.899   5.939  -1.602  0.00  0.00    +0.122 A 
ATOM      8  C   UNL     1      15.135   6.147  -0.462  0.00  0.00    +0.062 A 
ATOM      9  C   UNL     1      13.862   5.628  -0.396  0.00  0.00    +0.043 A 
ATOM     10  S   UNL     1      12.582   5.657   0.835  0.00  0.00    -0.049 S 
ATOM     11  C   UNL     1      11.368   4.711  -0.056  0.00  0.00    +0.179 A 
ATOM     12  N   UNL     1      10.167   4.208  -0.034  0.00  0.00    -0.221 NA
ENDROOT
BRANCH   1  16
ATOM     13  C   UNL     1       6.380   1.506  -2.276  0.00  0.00    +0.035 A 
ATOM     14  C   UNL     1       6.471   2.136  -1.041  0.00  0.00    +0.024 A 
ATOM     15  C   UNL     1       7.627   2.801  -0.688  0.00  0.00    +0.012 A 
ATOM     16  C   UNL     1       8.704   2.841  -1.573  0.00  0.00    +0.002 A 
ATOM     17  C   UNL     1       8.610   2.209  -2.811  0.00  0.00    +0.012 A 
ATOM     18  C   UNL     1       7.454   1.541  -3.157  0.00  0.00    +0.024 A 
BRANCH  13  27
ATOM     19  C   UNL     1       0.095   2.480  -1.256  0.00  0.00    +0.144 A 
ATOM     20  C   UNL     1       1.421   2.323  -1.409  0.00  0.00    +0.092 A 
ATOM     21  C   UNL     1       1.636   1.210  -2.253  0.00  0.00    +0.169 A 
ATOM     22  N   UNL     1       0.467   0.728  -2.587  0.00  0.00    -0.063 NA
ATOM     23  O   UNL     1      -0.525   1.518  -1.958  0.00  0.00    -0.357 OA
ATOM     24  N   UNL     1       2.875   0.715  -2.659  0.00  0.00    -0.251 N 
ATOM     25  C   UNL     1       4.009   1.311  -2.239  0.00  0.00    +0.309 C 
ATOM     26  O   UNL     1       3.952   2.280  -1.507  0.00  0.00    -0.252 OA
ATOM     27  N   UNL     1       5.207   0.832  -2.631  0.00  0.00    -0.269 N 
ATOM     28  H   UNL     1       2.921  -0.058  -3.243  0.00  0.00    +0.158 HD
ATOM     29  H   UNL     1       5.255   0.020  -3.160  0.00  0.00    +0.156 HD
BRANCH  19  31
ATOM     30  C   UNL     1      -0.195   4.927  -0.973  0.00  0.00    +0.019 C 
ATOM     31  C   UNL     1      -0.580   3.548  -0.433  0.00  0.00    +0.023 C 
ATOM     32  C   UNL     1      -0.132   3.428   1.025  0.00  0.00    +0.019 C 
ATOM     33  C   UNL     1      -2.098   3.373  -0.517  0.00  0.00    +0.019 C 
ENDBRANCH  19  31
ENDBRANCH  13  27
ENDBRANCH   1  16
BRANCH   7  34
ATOM     34  O   UNL     1      17.159   6.442  -1.689  0.00  0.00    -0.494 OA
BRANCH  34  35
ATOM     35  C   UNL     1      17.879   6.182  -2.896  0.00  0.00    +0.210 C 
BRANCH  35  36
ATOM     36  C   UNL     1      19.266   6.822  -2.809  0.00  0.00    -0.037 C 
BRANCH  36  37
ATOM     37  N   UNL     1      20.029   6.192  -1.724  0.00  0.00    +0.385 N 
ATOM     38  C   UNL     1      21.304   6.900  -1.546  0.00  0.00    -0.050 C 
ATOM     39  C   UNL     1      22.097   6.242  -0.415  0.00  0.00    +0.141 C 
ATOM     40  O   UNL     1      22.302   4.861  -0.724  0.00  0.00    -0.383 OA
ATOM     41  C   UNL     1      21.088   4.133  -0.930  0.00  0.00    +0.141 C 
ATOM     42  C   UNL     1      20.293   4.787  -2.062  0.00  0.00    -0.050 C 
ATOM     43  H   UNL     1      19.497   6.238  -0.868  0.00  0.00    -0.081 HD
ENDBRANCH  36  37
ENDBRANCH  35  36
ENDBRANCH  34  35
ENDBRANCH   7  34
TORSDOF 7
