REMARK  Name = CHEMBL479446
REMARK  9 active torsions:
REMARK  status: ('A' for Active; 'I' for Inactive)
REMARK    1  A    between atoms: C_1  and  O_2
REMARK    2  A    between atoms: O_2  and  C_3
REMARK    3  A    between atoms: C_8  and  N_9
REMARK    4  A    between atoms: N_9  and  C_10
REMARK    5  A    between atoms: C_10  and  C_11
REMARK    6  A    between atoms: C_11  and  N_12
REMARK    7  A    between atoms: C_18  and  N_25
REMARK    8  A    between atoms: C_19  and  C_22
REMARK    9  A    between atoms: N_25  and  C_26
REMARK                            x       y       z     vdW  Elec       q    Type
REMARK                         _______ _______ _______ _____ _____    ______ ____
ROOT
ATOM      1  C   UNL     1      -2.425  -0.485   2.897  0.00  0.00    +0.143 A 
ATOM      2  C   UNL     1      -3.106   0.173   1.899  0.00  0.00    +0.076 A 
ATOM      3  C   UNL     1      -3.873  -0.555   0.977  0.00  0.00    +0.076 A 
ATOM      4  C   UNL     1      -3.934  -1.965   1.088  0.00  0.00    +0.024 A 
ATOM      5  C   UNL     1      -3.233  -2.619   2.111  0.00  0.00    +0.038 A 
ATOM      6  C   UNL     1      -2.483  -1.883   3.002  0.00  0.00    +0.070 A 
ATOM      7  C   UNL     1      -4.710  -2.694   0.155  0.00  0.00    +0.054 A 
ATOM      8  C   UNL     1      -5.384  -1.972  -0.842  0.00  0.00    +0.076 A 
ATOM      9  C   UNL     1      -5.265  -0.573  -0.876  0.00  0.00    +0.126 A 
ATOM     10  N   UNL     1      -4.541   0.075  -0.001  0.00  0.00    -0.254 NA
ENDROOT
BRANCH   8  11
ATOM     11  C   UNL     1      -6.205  -2.674  -1.841  0.00  0.00    +0.245 C 
ATOM     12  O   UNL     1      -6.383  -3.874  -1.748  0.00  0.00    -0.270 OA
ATOM     13  N   UNL     1      -6.760  -1.988  -2.859  0.00  0.00    -0.325 N 
ATOM     14  H   UNL     1      -6.618  -1.031  -2.934  0.00  0.00    +0.145 HD
ATOM     15  H   UNL     1      -7.302  -2.450  -3.518  0.00  0.00    +0.145 HD
ENDBRANCH   8  11
BRANCH   1  17
ATOM     16  C   UNL     1      -1.664   1.645   3.626  0.00  0.00    +0.277 C 
ATOM     17  O   UNL     1      -1.683   0.225   3.786  0.00  0.00    -0.493 OA
ENDBRANCH   1  17
BRANCH   6  18
ATOM     18  N   UNL     1      -1.778  -2.534   4.020  0.00  0.00    -0.340 N 
ATOM     19  H   UNL     1      -1.251  -2.019   4.651  0.00  0.00    +0.146 HD
BRANCH  18  20
ATOM     20  C   UNL     1      -1.836  -3.994   4.134  0.00  0.00    +0.117 C 
BRANCH  20  21
ATOM     21  C   UNL     1      -0.984  -4.447   5.322  0.00  0.00    +0.103 C 
BRANCH  21  22
ATOM     22  N   UNL     1      -1.042  -5.910   5.436  0.00  0.00    -0.297 NA
ATOM     23  C   UNL     1      -2.396  -6.357   5.794  0.00  0.00    +0.112 C 
ATOM     24  C   UNL     1      -2.426  -7.887   5.844  0.00  0.00    +0.175 C 
ATOM     25  O   UNL     1      -1.440  -8.348   6.772  0.00  0.00    -0.377 OA
ATOM     26  C   UNL     1      -0.110  -7.931   6.453  0.00  0.00    +0.175 C 
ATOM     27  C   UNL     1      -0.057  -6.402   6.409  0.00  0.00    +0.112 C 
ENDBRANCH  21  22
ENDBRANCH  20  21
ENDBRANCH  18  20
ENDBRANCH   6  18
BRANCH   7  28
ATOM     28  N   UNL     1      -4.799  -4.068   0.224  0.00  0.00    -0.311 N 
ATOM     29  H   UNL     1      -4.072  -4.619  -0.107  0.00  0.00    +0.152 HD
BRANCH  28  30
ATOM     30  C   UNL     1      -5.939  -4.669   0.771  0.00  0.00    +0.067 A 
ATOM     31  C   UNL     1      -7.037  -3.892   1.114  0.00  0.00    +0.029 A 
ATOM     32  C   UNL     1      -8.161  -4.487   1.654  0.00  0.00    +0.040 A 
ATOM     33  C   UNL     1      -8.194  -5.857   1.854  0.00  0.00    +0.126 A 
ATOM     34  C   UNL     1      -7.101  -6.635   1.513  0.00  0.00    +0.078 A 
ATOM     35  C   UNL     1      -5.975  -6.045   0.967  0.00  0.00    +0.147 A 
ATOM     36  F   UNL     1      -4.910  -6.805   0.629  0.00  0.00    -0.203 F 
ATOM     37  F   UNL     1      -9.294  -6.435   2.383  0.00  0.00    -0.205 F 
ENDBRANCH  28  30
ENDBRANCH   7  28
TORSDOF 8
