REMARK  Name = CHEMBL391691
REMARK  5 active torsions:
REMARK  status: ('A' for Active; 'I' for Inactive)
REMARK    1  A    between atoms: C_1  and  S_2
REMARK    2  A    between atoms: S_2  and  C_5
REMARK    3  A    between atoms: C_9  and  C_11
REMARK    4  A    between atoms: C_14  and  N_28
REMARK    5  A    between atoms: C_19  and  C_20
REMARK                            x       y       z     vdW  Elec       q    Type
REMARK                         _______ _______ _______ _____ _____    ______ ____
ROOT
ATOM      1  C   UNL     1       4.383  -0.475  -2.877  0.00  0.00    +0.015 A 
ATOM      2  C   UNL     1       5.186   0.660  -2.930  0.00  0.00    +0.122 A 
ATOM      3  N   UNL     1       6.503   0.542  -2.905  0.00  0.00    -0.239 NA
ATOM      4  C   UNL     1       7.125  -0.616  -2.831  0.00  0.00    +0.125 A 
ATOM      5  C   UNL     1       6.403  -1.837  -2.772  0.00  0.00    +0.037 A 
ATOM      6  C   UNL     1       4.999  -1.722  -2.792  0.00  0.00    +0.032 A 
ATOM      7  S   UNL     1       4.433  -3.398  -2.697  0.00  0.00    -0.095 S 
ATOM      8  C   UNL     1       6.012  -4.224  -2.625  0.00  0.00    +0.055 A 
ATOM      9  C   UNL     1       6.903  -3.206  -2.688  0.00  0.00    +0.000 A 
ENDROOT
BRANCH   9  10
ATOM     10  C   UNL     1       8.360  -3.477  -2.653  0.00  0.00    -0.015 A 
ATOM     11  C   UNL     1       9.154  -2.902  -1.662  0.00  0.00    +0.011 A 
ATOM     12  C   UNL     1      10.510  -3.156  -1.633  0.00  0.00    +0.040 A 
ATOM     13  C   UNL     1      11.083  -3.981  -2.587  0.00  0.00    +0.142 A 
ATOM     14  C   UNL     1      10.298  -4.555  -3.575  0.00  0.00    +0.077 A 
ATOM     15  C   UNL     1       8.939  -4.311  -3.608  0.00  0.00    +0.031 A 
ATOM     16 CL   UNL     1      11.023  -5.588  -4.767  0.00  0.00    -0.081 Cl
ATOM     17  F   UNL     1      12.411  -4.227  -2.554  0.00  0.00    -0.204 F 
ENDBRANCH   9  10
BRANCH   1  22
ATOM     18  C   UNL     1       0.881   0.625  -2.071  0.00  0.00    +0.088 A 
ATOM     19  C   UNL     1       0.145  -0.145  -2.954  0.00  0.00    +0.027 A 
ATOM     20  C   UNL     1       0.784  -1.022  -3.813  0.00  0.00    +0.002 A 
ATOM     21  C   UNL     1       2.159  -1.133  -3.792  0.00  0.00    +0.009 A 
ATOM     22  C   UNL     1       2.905  -0.360  -2.904  0.00  0.00    -0.014 A 
ATOM     23  C   UNL     1       2.257   0.526  -2.045  0.00  0.00    +0.035 A 
BRANCH  18  25
ATOM     24  C   UNL     1      -0.045   3.300  -1.902  0.00  0.00    +0.200 C 
ATOM     25  S   UNL     1       0.059   1.740  -0.982  0.00  0.00    -0.006 S 
ATOM     26  O   UNL     1       0.940   1.882   0.124  0.00  0.00    -0.170 OA
ATOM     27  O   UNL     1      -1.239   1.187  -0.808  0.00  0.00    -0.170 OA
ENDBRANCH  18  25
ENDBRANCH   1  22
BRANCH   4  28
ATOM     28  N   UNL     1       8.512  -0.644  -2.811  0.00  0.00    -0.343 N 
ATOM     29  H   UNL     1       9.007   0.108  -2.449  0.00  0.00    +0.144 HD
ATOM     30  H   UNL     1       8.987  -1.415  -3.159  0.00  0.00    +0.144 HD
ENDBRANCH   4  28
TORSDOF 4
