REMARK  Name = CHEMBL398238
REMARK  5 active torsions:
REMARK  status: ('A' for Active; 'I' for Inactive)
REMARK    1  A    between atoms: C_3  and  N_19
REMARK    2  A    between atoms: C_4  and  N_13
REMARK    3  A    between atoms: C_6  and  N_7
REMARK    4  A    between atoms: C_20  and  C_22
REMARK    5  A    between atoms: C_25  and  C_27
REMARK                            x       y       z     vdW  Elec       q    Type
REMARK                         _______ _______ _______ _____ _____    ______ ____
ROOT
ATOM      1  C   UNL     1       0.099   1.024   0.374  0.00  0.00    +0.025 A 
ATOM      2  C   UNL     1       1.197   1.850   0.228  0.00  0.00    +0.027 A 
ATOM      3  C   UNL     1       2.468   1.305   0.128  0.00  0.00    +0.055 A 
ATOM      4  C   UNL     1       2.638  -0.079   0.175  0.00  0.00    +0.053 A 
ATOM      5  C   UNL     1       1.535  -0.905   0.322  0.00  0.00    +0.048 A 
ATOM      6  C   UNL     1       0.264  -0.354   0.421  0.00  0.00    +0.032 A 
ENDROOT
BRANCH   6   7
ATOM      7  N   UNL     1      -0.849  -1.187   0.570  0.00  0.00    -0.330 N 
ATOM      8  C   UNL     1      -0.682  -2.635   0.753  0.00  0.00    +0.105 C 
ATOM      9  C   UNL     1      -1.438  -3.064   2.014  0.00  0.00    +0.019 C 
ATOM     10  C   UNL     1      -2.896  -2.608   1.909  0.00  0.00    +0.003 C 
ATOM     11  C   UNL     1      -2.948  -1.082   1.810  0.00  0.00    +0.019 C 
ATOM     12  C   UNL     1      -2.209  -0.630   0.552  0.00  0.00    +0.105 C 
ENDBRANCH   6   7
BRANCH   4  13
ATOM     13  N   UNL     1       3.919  -0.631   0.073  0.00  0.00    -0.328 N 
ATOM     14  C   UNL     1       4.727  -0.875   1.276  0.00  0.00    +0.105 C 
ATOM     15  C   UNL     1       5.178  -2.338   1.279  0.00  0.00    +0.019 C 
ATOM     16  C   UNL     1       5.899  -2.648  -0.035  0.00  0.00    +0.003 C 
ATOM     17  C   UNL     1       4.937  -2.442  -1.207  0.00  0.00    +0.019 C 
ATOM     18  C   UNL     1       4.480  -0.985  -1.238  0.00  0.00    +0.105 C 
ENDBRANCH   4  13
BRANCH   3  19
ATOM     19  N   UNL     1       3.582   2.144  -0.022  0.00  0.00    -0.277 N 
ATOM     20  C   UNL     1       3.475   3.285  -0.731  0.00  0.00    +0.284 C 
ATOM     21  O   UNL     1       2.395   3.627  -1.175  0.00  0.00    -0.266 OA
ATOM     22  H   UNL     1       4.428   1.904   0.386  0.00  0.00    +0.155 HD
BRANCH  20  23
ATOM     23  C   UNL     1       4.664   4.117  -0.969  0.00  0.00    +0.191 A 
ATOM     24  C   UNL     1       4.689   5.293  -1.664  0.00  0.00    +0.056 A 
ATOM     25  C   UNL     1       6.012   5.749  -1.649  0.00  0.00    +0.061 A 
ATOM     26  C   UNL     1       6.744   4.824  -0.939  0.00  0.00    +0.205 A 
ATOM     27  O   UNL     1       5.910   3.849  -0.533  0.00  0.00    -0.440 OA
BRANCH  26  28
ATOM     28  C   UNL     1       8.150   4.890  -0.674  0.00  0.00    +0.138 C 
ATOM     29  N   UNL     1       9.265   4.943  -0.463  0.00  0.00    -0.188 NA
ENDBRANCH  26  28
ENDBRANCH  20  23
ENDBRANCH   3  19
TORSDOF 5
