REMARK  Name = CHEMBL400289
REMARK  4 active torsions:
REMARK  status: ('A' for Active; 'I' for Inactive)
REMARK    1  A    between atoms: C_7  and  N_11
REMARK    2  A    between atoms: N_11  and  C_12
REMARK    3  A    between atoms: C_16  and  C_25
REMARK    4  A    between atoms: C_21  and  C_22
REMARK                            x       y       z     vdW  Elec       q    Type
REMARK                         _______ _______ _______ _____ _____    ______ ____
ROOT
ATOM      1  C   UNL     1       1.294  -4.388   0.068  0.00  0.00    +0.055 A 
ATOM      2  C   UNL     1       0.510  -5.525  -0.244  0.00  0.00    +0.020 A 
ATOM      3  C   UNL     1      -0.823  -5.391  -0.659  0.00  0.00    +0.012 A 
ATOM      4  C   UNL     1      -1.557  -6.498  -0.954  0.00  0.00    +0.009 A 
ATOM      5  C   UNL     1      -0.995  -7.778  -0.847  0.00  0.00    -0.016 A 
ATOM      6  C   UNL     1       0.318  -7.939  -0.440  0.00  0.00    +0.034 A 
ATOM      7  C   UNL     1       1.091  -6.811  -0.131  0.00  0.00    +0.049 A 
ATOM      8  N   UNL     1       2.366  -6.944   0.265  0.00  0.00    -0.360 N 
ATOM      9  C   UNL     1       3.112  -5.911   0.560  0.00  0.00    +0.098 A 
ATOM     10  C   UNL     1       2.621  -4.598   0.471  0.00  0.00    +0.074 A 
ATOM     11  H   UNL     1       2.745  -7.834   0.336  0.00  0.00    +0.165 HD
ENDROOT
BRANCH   5  12
ATOM     12  C   UNL     1      -1.814  -8.971  -1.174  0.00  0.00    -0.015 A 
ATOM     13  C   UNL     1      -1.281 -10.259  -1.071  0.00  0.00    +0.028 A 
ATOM     14  C   UNL     1      -2.078 -11.341  -1.384  0.00  0.00    +0.111 A 
ATOM     15  N   UNL     1      -3.326 -11.171  -1.776  0.00  0.00    -0.263 NA
ATOM     16  C   UNL     1      -3.868  -9.973  -1.887  0.00  0.00    +0.111 A 
ATOM     17  C   UNL     1      -3.143  -8.838  -1.588  0.00  0.00    +0.028 A 
ENDBRANCH   5  12
BRANCH  10  18
ATOM     18  C   UNL     1       3.488  -3.456   0.803  0.00  0.00    +0.245 C 
ATOM     19  O   UNL     1       3.030  -2.329   0.819  0.00  0.00    -0.270 OA
ATOM     20  N   UNL     1       4.790  -3.658   1.089  0.00  0.00    -0.325 N 
ATOM     21  H   UNL     1       5.155  -4.557   1.076  0.00  0.00    +0.145 HD
ATOM     22  H   UNL     1       5.361  -2.906   1.308  0.00  0.00    +0.145 HD
ENDBRANCH  10  18
BRANCH   1  23
ATOM     23  N   UNL     1       0.772  -3.116  -0.026  0.00  0.00    -0.298 N 
ATOM     24  H   UNL     1       1.089  -2.511  -0.715  0.00  0.00    +0.154 HD
BRANCH  23  31
ATOM     25  C   UNL     1      -1.245   0.896   0.635  0.00  0.00    +0.001 A 
ATOM     26  C   UNL     1      -2.191   0.856   1.661  0.00  0.00    +0.002 A 
ATOM     27  C   UNL     1      -2.444  -0.282   2.355  0.00  0.00    +0.030 A 
ATOM     28  C   UNL     1      -1.737  -1.463   2.040  0.00  0.00    +0.094 A 
ATOM     29  C   UNL     1      -0.741  -1.417   0.958  0.00  0.00    +0.042 A 
ATOM     30  C   UNL     1      -0.530  -0.202   0.280  0.00  0.00    +0.013 A 
ATOM     31  C   UNL     1      -0.206  -2.700   0.865  0.00  0.00    +0.126 A 
ATOM     32  N   UNL     1      -0.809  -3.462   1.793  0.00  0.00    -0.263 N 
ATOM     33  N   UNL     1      -1.741  -2.699   2.505  0.00  0.00    -0.172 NA
ATOM     34  H   UNL     1      -0.625  -4.402   1.947  0.00  0.00    +0.190 HD
ENDBRANCH  23  31
ENDBRANCH   1  23
TORSDOF 4
