REMARK  Name = CHEMBL1172117
REMARK  5 active torsions:
REMARK  status: ('A' for Active; 'I' for Inactive)
REMARK    1  A    between atoms: C_5  and  C_7
REMARK    2  A    between atoms: C_10  and  N_19
REMARK    3  A    between atoms: C_11  and  C_13
REMARK    4  A    between atoms: C_20  and  C_22
REMARK    5  A    between atoms: C_25  and  C_27
REMARK                            x       y       z     vdW  Elec       q    Type
REMARK                         _______ _______ _______ _____ _____    ______ ____
ROOT
ATOM      1  C   UNL     1       1.250  -2.147  -0.046  0.00  0.00    +0.001 A 
ATOM      2  C   UNL     1       0.061  -2.880  -0.041  0.00  0.00    +0.012 A 
ATOM      3  C   UNL     1       0.095  -4.258  -0.040  0.00  0.00    +0.024 A 
ATOM      4  C   UNL     1       1.312  -4.927  -0.044  0.00  0.00    +0.041 A 
ATOM      5  C   UNL     1       2.511  -4.199  -0.050  0.00  0.00    -0.000 A 
ATOM      6  C   UNL     1       2.475  -2.807  -0.056  0.00  0.00    +0.020 A 
ENDROOT
BRANCH   1  11
ATOM      7  C   UNL     1      -0.048   1.374  -0.036  0.00  0.00    +0.004 A 
ATOM      8  C   UNL     1       1.160   2.058  -0.047  0.00  0.00    +0.020 A 
ATOM      9  C   UNL     1       2.343   1.344  -0.057  0.00  0.00    +0.111 A 
ATOM     10  N   UNL     1       2.339   0.026  -0.057  0.00  0.00    -0.255 NA
ATOM     11  C   UNL     1       1.206  -0.665  -0.046  0.00  0.00    +0.071 A 
ATOM     12  C   UNL     1      -0.024  -0.009  -0.035  0.00  0.00    +0.028 A 
ENDBRANCH   1  11
BRANCH   5  13
ATOM     13  C   UNL     1       3.808  -4.906  -0.054  0.00  0.00    -0.042 C 
ATOM     14  C   UNL     1       4.208  -5.468   1.062  0.00  0.00    -0.023 C 
ATOM     15  C   UNL     1       5.505  -6.210   1.206  0.00  0.00    +0.027 C 
ATOM     16  C   UNL     1       6.058  -6.577  -0.173  0.00  0.00    +0.004 C 
ATOM     17  C   UNL     1       6.045  -5.322  -1.054  0.00  0.00    +0.005 C 
ATOM     18  C   UNL     1       4.587  -4.946  -1.336  0.00  0.00    +0.035 C 
ENDBRANCH   5  13
BRANCH   4  19
ATOM     19  N   UNL     1       1.342  -6.320  -0.043  0.00  0.00    -0.278 N 
ATOM     20  C   UNL     1       0.402  -7.014   0.628  0.00  0.00    +0.286 C 
ATOM     21  O   UNL     1      -0.520  -6.428   1.163  0.00  0.00    -0.266 OA
ATOM     22  H   UNL     1       2.040  -6.791  -0.524  0.00  0.00    +0.155 HD
BRANCH  20  23
ATOM     23  C   UNL     1       0.489  -8.484   0.714  0.00  0.00    +0.217 A 
ATOM     24  N   UNL     1       1.476  -9.255   0.163  0.00  0.00    -0.229 NA
ATOM     25  C   UNL     1       1.200 -10.542   0.461  0.00  0.00    +0.152 A 
ATOM     26  C   UNL     1       0.033 -10.540   1.201  0.00  0.00    +0.161 A 
ATOM     27  N   UNL     1      -0.362  -9.264   1.336  0.00  0.00    -0.211 NA
BRANCH  26  28
ATOM     28  C   UNL     1      -0.631 -11.691   1.734  0.00  0.00    +0.121 C 
ATOM     29  N   UNL     1      -1.158 -12.604   2.156  0.00  0.00    -0.189 NA
ENDBRANCH  26  28
ENDBRANCH  20  23
ENDBRANCH   4  19
TORSDOF 5
