REMARK  Name = CHEMBL480618
REMARK  7 active torsions:
REMARK  status: ('A' for Active; 'I' for Inactive)
REMARK    1  A    between atoms: C_1  and  N_2
REMARK    2  A    between atoms: N_5  and  C_8
REMARK    3  A    between atoms: C_13  and  O_14
REMARK    4  A    between atoms: O_14  and  C_15
REMARK    5  A    between atoms: C_16  and  N_23
REMARK    6  A    between atoms: C_17  and  C_20
REMARK    7  A    between atoms: N_23  and  C_24
REMARK                            x       y       z     vdW  Elec       q    Type
REMARK                         _______ _______ _______ _____ _____    ______ ____
ROOT
ATOM      1  C   UNL     1      -3.425  -4.979   0.168  0.00  0.00    +0.074 A 
ATOM      2  C   UNL     1      -2.301  -5.771   0.278  0.00  0.00    +0.053 A 
ATOM      3  C   UNL     1      -1.970  -6.341   1.515  0.00  0.00    +0.050 A 
ATOM      4  C   UNL     1      -2.800  -6.092   2.635  0.00  0.00    +0.024 A 
ATOM      5  C   UNL     1      -3.938  -5.283   2.497  0.00  0.00    +0.059 A 
ATOM      6  C   UNL     1      -4.239  -4.734   1.285  0.00  0.00    +0.142 A 
ATOM      7  C   UNL     1      -2.463  -6.669   3.881  0.00  0.00    +0.054 A 
ATOM      8  C   UNL     1      -1.310  -7.467   3.943  0.00  0.00    +0.074 A 
ATOM      9  C   UNL     1      -0.545  -7.660   2.782  0.00  0.00    +0.098 A 
ATOM     10  N   UNL     1      -0.880  -7.114   1.641  0.00  0.00    -0.360 N 
ATOM     11  H   UNL     1      -0.324  -7.272   0.863  0.00  0.00    +0.165 HD
ENDROOT
BRANCH   1  16
ATOM     12  C   UNL     1      -6.193  -2.058  -3.535  0.00  0.00    +0.105 C 
ATOM     13  N   UNL     1      -5.161  -2.926  -2.952  0.00  0.00    -0.302 NA
ATOM     14  C   UNL     1      -5.747  -4.173  -2.445  0.00  0.00    +0.103 C 
ATOM     15  C   UNL     1      -4.624  -5.122  -2.012  0.00  0.00    +0.120 C 
ATOM     16  N   UNL     1      -3.752  -4.413  -1.063  0.00  0.00    -0.325 N 
ATOM     17  C   UNL     1      -3.236  -3.091  -1.447  0.00  0.00    +0.120 C 
ATOM     18  C   UNL     1      -4.414  -2.222  -1.902  0.00  0.00    +0.103 C 
ENDBRANCH   1  16
BRANCH   8  19
ATOM     19  C   UNL     1      -0.907  -8.094   5.212  0.00  0.00    +0.245 C 
ATOM     20  O   UNL     1      -1.625  -8.005   6.189  0.00  0.00    -0.270 OA
ATOM     21  N   UNL     1       0.258  -8.768   5.290  0.00  0.00    -0.325 N 
ATOM     22  H   UNL     1       0.831  -8.839   4.510  0.00  0.00    +0.145 HD
ATOM     23  H   UNL     1       0.524  -9.181   6.126  0.00  0.00    +0.145 HD
ENDBRANCH   8  19
BRANCH   6  24
ATOM     24  O   UNL     1      -5.339  -3.946   1.156  0.00  0.00    -0.493 OA
ATOM     25  C   UNL     1      -6.127  -3.734   2.329  0.00  0.00    +0.277 C 
ENDBRANCH   6  24
BRANCH   7  26
ATOM     26  N   UNL     1      -3.241  -6.455   4.999  0.00  0.00    -0.311 N 
ATOM     27  H   UNL     1      -3.172  -5.618   5.485  0.00  0.00    +0.152 HD
BRANCH  26  28
ATOM     28  C   UNL     1      -4.132  -7.444   5.432  0.00  0.00    +0.067 A 
ATOM     29  C   UNL     1      -4.132  -8.693   4.826  0.00  0.00    +0.029 A 
ATOM     30  C   UNL     1      -5.011  -9.668   5.255  0.00  0.00    +0.040 A 
ATOM     31  C   UNL     1      -5.893  -9.402   6.289  0.00  0.00    +0.126 A 
ATOM     32  C   UNL     1      -5.896  -8.157   6.896  0.00  0.00    +0.078 A 
ATOM     33  C   UNL     1      -5.014  -7.179   6.474  0.00  0.00    +0.147 A 
ATOM     34  F   UNL     1      -5.013  -5.967   7.070  0.00  0.00    -0.203 F 
ATOM     35  F   UNL     1      -6.752 -10.358   6.706  0.00  0.00    -0.205 F 
ENDBRANCH  26  28
ENDBRANCH   7  26
TORSDOF 5
