REMARK  Name = CHEMBL255584
REMARK  5 active torsions:
REMARK  status: ('A' for Active; 'I' for Inactive)
REMARK    1  A    between atoms: C_1  and  N_2
REMARK    2  A    between atoms: N_5  and  C_8
REMARK    3  A    between atoms: C_12  and  N_14
REMARK    4  A    between atoms: C_21  and  C_35
REMARK    5  A    between atoms: N_23  and  C_26
REMARK                            x       y       z     vdW  Elec       q    Type
REMARK                         _______ _______ _______ _____ _____    ______ ____
ROOT
ATOM      1  N   UNL     1       0.376  -5.796   4.588  0.00  0.00    -0.284 N 
ATOM      2  C   UNL     1      -0.148  -6.867   5.284  0.00  0.00    +0.221 A 
ATOM      3  N   UNL     1      -1.331  -7.349   4.919  0.00  0.00    -0.222 NA
ATOM      4  C   UNL     1      -1.875  -8.373   5.554  0.00  0.00    +0.129 A 
ATOM      5  C   UNL     1      -1.177  -8.941   6.621  0.00  0.00    +0.083 A 
ATOM      6  C   UNL     1      -1.708 -10.082   7.381  0.00  0.00    +0.204 A 
ATOM      7  O   UNL     1      -2.786 -10.581   7.109  0.00  0.00    -0.286 OA
ATOM      8  C   UNL     1      -0.879 -10.595   8.486  0.00  0.00    +0.100 A 
ATOM      9  C   UNL     1       0.332  -9.990   8.746  0.00  0.00    +0.110 A 
ATOM     10  N   UNL     1       0.783  -8.947   8.028  0.00  0.00    -0.300 N 
ATOM     11  C   UNL     1       0.076  -8.406   6.982  0.00  0.00    +0.154 A 
ATOM     12  N   UNL     1       0.550  -7.379   6.286  0.00  0.00    -0.196 NA
ATOM     13  H   UNL     1       1.275  -5.485   4.781  0.00  0.00    +0.155 HD
ENDROOT
BRANCH  10  14
ATOM     14  C   UNL     1       2.024  -8.390   8.358  0.00  0.00    +0.048 A 
ATOM     15  C   UNL     1       3.186  -9.133   8.198  0.00  0.00    +0.026 A 
ATOM     16  C   UNL     1       4.407  -8.579   8.525  0.00  0.00    +0.006 A 
ATOM     17  C   UNL     1       4.478  -7.285   9.014  0.00  0.00    -0.044 A 
ATOM     18  C   UNL     1       3.323  -6.542   9.175  0.00  0.00    -0.042 A 
ATOM     19  C   UNL     1       2.097  -7.092   8.842  0.00  0.00    +0.030 A 
ATOM     20  C   UNL     1       3.667  -5.172   9.719  0.00  0.00    +0.036 C 
ATOM     21  C   UNL     1       5.097  -5.308  10.282  0.00  0.00    +0.009 C 
ATOM     22  C   UNL     1       5.677  -6.463   9.438  0.00  0.00    +0.036 C 
ENDBRANCH  10  14
BRANCH   1  27
ATOM     23  C   UNL     1      -0.536  -4.013   1.500  0.00  0.00    +0.031 A 
ATOM     24  C   UNL     1      -1.912  -3.897   1.665  0.00  0.00    +0.023 A 
ATOM     25  C   UNL     1      -2.520  -4.409   2.794  0.00  0.00    +0.004 A 
ATOM     26  C   UNL     1      -1.763  -5.038   3.764  0.00  0.00    +0.023 A 
ATOM     27  C   UNL     1      -0.388  -5.158   3.606  0.00  0.00    +0.035 A 
ATOM     28  C   UNL     1       0.225  -4.650   2.470  0.00  0.00    +0.046 A 
BRANCH  23  33
ATOM     29  C   UNL     1       1.796  -0.358  -1.814  0.00  0.00    -0.096 C 
ATOM     30  N   UNL     1       1.278  -1.661  -1.377  0.00  0.00    +0.380 N 
ATOM     31  C   UNL     1      -0.156  -1.542  -1.083  0.00  0.00    -0.060 C 
ATOM     32  C   UNL     1      -0.722  -2.924  -0.737  0.00  0.00    +0.086 C 
ATOM     33  N   UNL     1       0.077  -3.495   0.358  0.00  0.00    -0.333 N 
ATOM     34  C   UNL     1       1.542  -3.504   0.216  0.00  0.00    +0.086 C 
ATOM     35  C   UNL     1       2.001  -2.095  -0.174  0.00  0.00    -0.060 C 
ATOM     36  H   UNL     1       1.413  -2.339  -2.112  0.00  0.00    -0.082 HD
ENDBRANCH  23  33
ENDBRANCH   1  27
BRANCH   8  37
ATOM     37  C   UNL     1      -1.336 -11.734   9.297  0.00  0.00    +0.247 C 
ATOM     38  O   UNL     1      -0.603 -12.212  10.142  0.00  0.00    -0.270 OA
ATOM     39  N   UNL     1      -2.567 -12.248   9.104  0.00  0.00    -0.325 N 
ATOM     40  H   UNL     1      -3.123 -11.915   8.383  0.00  0.00    +0.145 HD
ATOM     41  H   UNL     1      -2.896 -12.950   9.687  0.00  0.00    +0.145 HD
ENDBRANCH   8  37
TORSDOF 4
