REMARK  Name = CHEMBL1170784
REMARK  6 active torsions:
REMARK  status: ('A' for Active; 'I' for Inactive)
REMARK    1  A    between atoms: C_1  and  N_2
REMARK    2  A    between atoms: C_6  and  C_10
REMARK    3  A    between atoms: C_13  and  N_22
REMARK    4  A    between atoms: C_14  and  C_16
REMARK    5  A    between atoms: C_23  and  C_25
REMARK    6  A    between atoms: C_29  and  C_31
REMARK                            x       y       z     vdW  Elec       q    Type
REMARK                         _______ _______ _______ _____ _____    ______ ____
ROOT
ATOM      1  C   UNL     1      -0.497  -4.227   0.007  0.00  0.00    -0.043 A 
ATOM      2  C   UNL     1       0.755  -4.818   0.009  0.00  0.00    +0.006 A 
ATOM      3  C   UNL     1       0.878  -6.194  -0.008  0.00  0.00    +0.024 A 
ATOM      4  C   UNL     1      -0.256  -6.993  -0.026  0.00  0.00    +0.041 A 
ATOM      5  C   UNL     1      -1.525  -6.398  -0.027  0.00  0.00    -0.001 A 
ATOM      6  C   UNL     1      -1.635  -5.007  -0.005  0.00  0.00    +0.014 A 
ENDROOT
BRANCH   1  12
ATOM      7  C   UNL     1       0.024   1.460   0.070  0.00  0.00    +0.141 C 
ATOM      8  N   UNL     1       0.038  -0.005   0.053  0.00  0.00    -0.245 N 
ATOM      9  C   UNL     1       0.037  -0.636  -1.131  0.00  0.00    +0.222 C 
ATOM     10  O   UNL     1       0.015   0.017  -2.152  0.00  0.00    -0.275 OA
ATOM     11  C   UNL     1       0.063  -2.139  -1.216  0.00  0.00    +0.105 C 
ATOM     12  C   UNL     1      -0.618  -2.725   0.026  0.00  0.00    +0.036 C 
ATOM     13  C   UNL     1       0.077  -2.168   1.272  0.00  0.00    +0.105 C 
ATOM     14  C   UNL     1       0.056  -0.663   1.222  0.00  0.00    +0.222 C 
ATOM     15  O   UNL     1       0.051  -0.034   2.258  0.00  0.00    -0.275 OA
ENDBRANCH   1  12
BRANCH   5  16
ATOM     16  C   UNL     1      -2.740  -7.238  -0.046  0.00  0.00    -0.042 C 
ATOM     17  C   UNL     1      -3.066  -7.826  -1.172  0.00  0.00    -0.023 C 
ATOM     18  C   UNL     1      -4.276  -8.699  -1.340  0.00  0.00    +0.027 C 
ATOM     19  C   UNL     1      -4.800  -9.140   0.028  0.00  0.00    +0.004 C 
ATOM     20  C   UNL     1      -4.931  -7.900   0.922  0.00  0.00    +0.005 C 
ATOM     21  C   UNL     1      -3.524  -7.375   1.226  0.00  0.00    +0.035 C 
ENDBRANCH   5  16
BRANCH   4  22
ATOM     22  N   UNL     1      -0.134  -8.383  -0.043  0.00  0.00    -0.278 N 
ATOM     23  C   UNL     1       0.885  -8.961  -0.710  0.00  0.00    +0.284 C 
ATOM     24  O   UNL     1       1.743  -8.272  -1.226  0.00  0.00    -0.267 OA
ATOM     25  H   UNL     1      -0.782  -8.933   0.424  0.00  0.00    +0.155 HD
BRANCH  23  26
ATOM     26  C   UNL     1       0.959 -10.431  -0.812  0.00  0.00    +0.195 A 
ATOM     27  N   UNL     1       1.942 -11.135  -1.453  0.00  0.00    -0.340 N 
ATOM     28  H   UNL     1       2.706 -10.760  -1.917  0.00  0.00    +0.167 HD
ATOM     29  C   UNL     1       1.653 -12.447  -1.322  0.00  0.00    +0.123 A 
ATOM     30  C   UNL     1       0.483 -12.528  -0.593  0.00  0.00    +0.158 A 
ATOM     31  N   UNL     1       0.097 -11.277  -0.298  0.00  0.00    -0.213 NA
BRANCH  30  32
ATOM     32  C   UNL     1      -0.195 -13.731  -0.214  0.00  0.00    +0.121 C 
ATOM     33  N   UNL     1      -0.732 -14.686   0.087  0.00  0.00    -0.189 NA
ENDBRANCH  30  32
ENDBRANCH  23  26
ENDBRANCH   4  22
TORSDOF 5
