REMARK  Name = CHEMBL497353
REMARK  7 active torsions:
REMARK  status: ('A' for Active; 'I' for Inactive)
REMARK    1  A    between atoms: C_1  and  C_2
REMARK    2  A    between atoms: C_5  and  N_18
REMARK    3  A    between atoms: C_7  and  C_8
REMARK    4  A    between atoms: C_19  and  C_21
REMARK    5  A    between atoms: C_24  and  C_27
REMARK    6  A    between atoms: C_27  and  N_28
REMARK    7  A    between atoms: N_31  and  C_34
REMARK                            x       y       z     vdW  Elec       q    Type
REMARK                         _______ _______ _______ _____ _____    ______ ____
ROOT
ATOM      1  C   UNL     1       0.004   1.502   0.057  0.00  0.00    +0.044 C 
ATOM      2  C   UNL     1       0.020  -0.004   0.031  0.00  0.00    -0.043 A 
ATOM      3  C   UNL     1      -0.571  -0.719   1.054  0.00  0.00    +0.006 A 
ATOM      4  C   UNL     1      -0.559  -2.100   1.034  0.00  0.00    +0.023 A 
ATOM      5  C   UNL     1       0.048  -2.779  -0.016  0.00  0.00    +0.034 A 
ATOM      6  C   UNL     1       0.643  -2.069  -1.047  0.00  0.00    +0.032 A 
ATOM      7  C   UNL     1       0.626  -0.676  -1.029  0.00  0.00    -0.013 A 
ENDROOT
BRANCH   7   8
ATOM      8  C   UNL     1       1.256   0.090  -2.132  0.00  0.00    -0.014 A 
ATOM      9  C   UNL     1       0.547   1.120  -2.758  0.00  0.00    +0.009 A 
ATOM     10  C   UNL     1       1.116   1.832  -3.773  0.00  0.00    +0.016 A 
ATOM     11  C   UNL     1       2.414   1.532  -4.193  0.00  0.00    +0.063 A 
ATOM     12  C   UNL     1       3.135   0.499  -3.571  0.00  0.00    +0.170 A 
ATOM     13  C   UNL     1       2.550  -0.216  -2.536  0.00  0.00    +0.058 A 
ATOM     14  O   UNL     1       4.341   0.436  -4.172  0.00  0.00    -0.353 OA
ATOM     15  N   UNL     1       4.416   1.420  -5.184  0.00  0.00    -0.062 NA
ATOM     16  C   UNL     1       3.297   2.089  -5.228  0.00  0.00    +0.167 A 
ATOM     17  N   UNL     1       2.996   3.133  -6.092  0.00  0.00    -0.340 N 
ATOM     18  H   UNL     1       2.131   3.568  -6.044  0.00  0.00    +0.144 HD
ATOM     19  H   UNL     1       3.652   3.428  -6.743  0.00  0.00    +0.144 HD
ENDBRANCH   7   8
BRANCH   5  20
ATOM     20  N   UNL     1       0.059  -4.177  -0.032  0.00  0.00    -0.281 N 
ATOM     21  C   UNL     1      -0.040  -4.838  -1.202  0.00  0.00    +0.248 C 
ATOM     22  O   UNL     1      -0.053  -4.221  -2.250  0.00  0.00    -0.270 OA
ATOM     23  H   UNL     1       0.137  -4.671   0.799  0.00  0.00    +0.155 HD
BRANCH  21  24
ATOM     24  C   UNL     1      -0.132  -6.314  -1.212  0.00  0.00    +0.037 A 
ATOM     25  C   UNL     1      -0.122  -7.025  -0.011  0.00  0.00    +0.013 A 
ATOM     26  C   UNL     1      -0.208  -8.402  -0.028  0.00  0.00    +0.005 A 
ATOM     27  C   UNL     1      -0.303  -9.078  -1.231  0.00  0.00    -0.033 A 
ATOM     28  C   UNL     1      -0.313  -8.379  -2.425  0.00  0.00    +0.005 A 
ATOM     29  C   UNL     1      -0.234  -7.001  -2.423  0.00  0.00    +0.013 A 
BRANCH  27  30
ATOM     30  C   UNL     1      -0.397 -10.582  -1.241  0.00  0.00    +0.119 C 
BRANCH  30  31
ATOM     31  N   UNL     1      -1.808 -10.985  -1.184  0.00  0.00    -0.302 NA
ATOM     32  C   UNL     1      -2.410 -10.612   0.104  0.00  0.00    +0.066 C 
ATOM     33  C   UNL     1      -3.892 -10.995   0.101  0.00  0.00    -0.064 C 
ATOM     34  N   UNL     1      -4.023 -12.441  -0.119  0.00  0.00    +0.379 N 
ATOM     35  C   UNL     1      -3.439 -12.795  -1.420  0.00  0.00    -0.064 C 
ATOM     36  C   UNL     1      -1.954 -12.427  -1.429  0.00  0.00    +0.066 C 
ATOM     37  C   UNL     1      -5.444 -12.811  -0.104  0.00  0.00    -0.096 C 
ATOM     38  H   UNL     1      -3.539 -12.938   0.613  0.00  0.00    -0.082 HD
ENDBRANCH  30  31
ENDBRANCH  27  30
ENDBRANCH  21  24
ENDBRANCH   5  20
TORSDOF 5
