REMARK  Name = CHEMBL1171604
REMARK  9 active torsions:
REMARK  status: ('A' for Active; 'I' for Inactive)
REMARK    1  A    between atoms: C_1  and  C_2
REMARK    2  A    between atoms: C_2  and  C_34
REMARK    3  A    between atoms: C_5  and  C_8
REMARK    4  A    between atoms: C_10  and  C_25
REMARK    5  A    between atoms: C_13  and  N_14
REMARK    6  A    between atoms: C_15  and  C_17
REMARK    7  A    between atoms: C_21  and  C_23
REMARK    8  A    between atoms: N_27  and  C_33
REMARK    9  A    between atoms: N_30  and  C_32
REMARK                            x       y       z     vdW  Elec       q    Type
REMARK                         _______ _______ _______ _____ _____    ______ ____
ROOT
ATOM      1  C   UNL     1       4.268   0.365   0.024  0.00  0.00    -0.001 A 
ATOM      2  C   UNL     1       5.167  -0.575  -0.479  0.00  0.00    +0.014 A 
ATOM      3  C   UNL     1       6.522  -0.317  -0.447  0.00  0.00    -0.041 A 
ATOM      4  C   UNL     1       6.995   0.872   0.084  0.00  0.00    +0.006 A 
ATOM      5  C   UNL     1       6.115   1.811   0.585  0.00  0.00    +0.024 A 
ATOM      6  C   UNL     1       4.749   1.570   0.555  0.00  0.00    +0.041 A 
ENDROOT
BRANCH   3   7
ATOM      7  C   UNL     1       7.492  -1.334  -0.990  0.00  0.00    +0.054 C 
ATOM      8  C   UNL     1       8.463  -1.761   0.116  0.00  0.00    +0.118 C 
ATOM      9  N   UNL     1       9.470  -2.660  -0.451  0.00  0.00    -0.288 N 
ATOM     10  C   UNL     1       9.843  -2.570  -1.736  0.00  0.00    +0.304 C 
ATOM     11  O   UNL     1      10.691  -3.334  -2.154  0.00  0.00    -0.252 OA
ATOM     12  N   UNL     1       9.316  -1.669  -2.579  0.00  0.00    -0.288 N 
ATOM     13  C   UNL     1       8.300  -0.713  -2.135  0.00  0.00    +0.118 C 
ATOM     14  C   UNL     1       9.767  -1.642  -3.973  0.00  0.00    +0.133 C 
ATOM     15  C   UNL     1      10.084  -3.679   0.404  0.00  0.00    +0.133 C 
ENDBRANCH   3   7
BRANCH   1  20
ATOM     16  C   UNL     1      -0.015   1.511   0.012  0.00  0.00    +0.011 C 
ATOM     17  C   UNL     1       0.013  -0.019  -0.004  0.00  0.00    -0.031 C 
ATOM     18  C   UNL     1       0.753  -0.507  -1.256  0.00  0.00    +0.011 C 
ATOM     19  C   UNL     1       2.107   0.202  -1.327  0.00  0.00    +0.036 C 
ATOM     20  C   UNL     1       2.816   0.096  -0.009  0.00  0.00    -0.042 C 
ATOM     21  C   UNL     1       2.222  -0.223   1.117  0.00  0.00    -0.022 C 
ATOM     22  C   UNL     1       0.757  -0.532   1.230  0.00  0.00    +0.034 C 
ATOM     23  C   UNL     1      -1.418  -0.560  -0.004  0.00  0.00    +0.011 C 
ENDBRANCH   1  20
BRANCH   6  24
ATOM     24  N   UNL     1       3.858   2.521   1.055  0.00  0.00    -0.278 N 
ATOM     25  C   UNL     1       4.201   3.269   2.123  0.00  0.00    +0.284 C 
ATOM     26  O   UNL     1       5.316   3.175   2.598  0.00  0.00    -0.267 OA
ATOM     27  H   UNL     1       2.992   2.643   0.635  0.00  0.00    +0.155 HD
BRANCH  25  28
ATOM     28  C   UNL     1       3.223   4.203   2.713  0.00  0.00    +0.195 A 
ATOM     29  N   UNL     1       3.450   5.018   3.789  0.00  0.00    -0.340 N 
ATOM     30  H   UNL     1       4.276   5.083   4.294  0.00  0.00    +0.167 HD
ATOM     31  C   UNL     1       2.317   5.713   4.018  0.00  0.00    +0.123 A 
ATOM     32  C   UNL     1       1.400   5.308   3.068  0.00  0.00    +0.158 A 
ATOM     33  N   UNL     1       1.995   4.392   2.289  0.00  0.00    -0.213 NA
BRANCH  32  34
ATOM     34  C   UNL     1       0.057   5.786   2.933  0.00  0.00    +0.121 C 
ATOM     35  N   UNL     1      -1.009   6.165   2.826  0.00  0.00    -0.189 NA
ENDBRANCH  32  34
ENDBRANCH  25  28
ENDBRANCH   6  24
TORSDOF 5
