REMARK  Name = CHEMBL454616
REMARK  9 active torsions:
REMARK  status: ('A' for Active; 'I' for Inactive)
REMARK    1  A    between atoms: C_1  and  C_2
REMARK    2  A    between atoms: C_5  and  N_21
REMARK    3  A    between atoms: C_7  and  N_8
REMARK    4  A    between atoms: C_9  and  C_11
REMARK    5  A    between atoms: C_22  and  C_24
REMARK    6  A    between atoms: C_28  and  N_30
REMARK    7  A    between atoms: N_30  and  C_31
REMARK    8  A    between atoms: N_30  and  S_32
REMARK    9  A    between atoms: S_32  and  C_35
REMARK                            x       y       z     vdW  Elec       q    Type
REMARK                         _______ _______ _______ _____ _____    ______ ____
ROOT
ATOM      1  C   UNL     1      -0.394   1.322   0.287  0.00  0.00    +0.045 C 
ATOM      2  C   UNL     1      -0.188  -0.159   0.100  0.00  0.00    -0.029 A 
ATOM      3  C   UNL     1      -0.327  -0.722  -1.155  0.00  0.00    +0.007 A 
ATOM      4  C   UNL     1      -0.139  -2.079  -1.331  0.00  0.00    +0.024 A 
ATOM      5  C   UNL     1       0.192  -2.882  -0.246  0.00  0.00    +0.035 A 
ATOM      6  C   UNL     1       0.332  -2.320   1.014  0.00  0.00    +0.047 A 
ATOM      7  C   UNL     1       0.147  -0.956   1.187  0.00  0.00    +0.038 A 
ENDROOT
BRANCH   7   8
ATOM      8  N   UNL     1       0.294  -0.384   2.455  0.00  0.00    -0.281 N 
ATOM      9  C   UNL     1       0.053  -1.121   3.558  0.00  0.00    +0.248 C 
ATOM     10  O   UNL     1      -0.215  -2.302   3.454  0.00  0.00    -0.270 OA
ATOM     11  H   UNL     1       0.569   0.542   2.541  0.00  0.00    +0.155 HD
BRANCH   9  12
ATOM     12  C   UNL     1       0.114  -0.492   4.893  0.00  0.00    +0.038 A 
ATOM     13  C   UNL     1       0.418   0.876   5.009  0.00  0.00    +0.015 A 
ATOM     14  C   UNL     1       0.481   1.476   6.224  0.00  0.00    +0.029 A 
ATOM     15  C   UNL     1       0.240   0.731   7.394  0.00  0.00    +0.071 A 
ATOM     16  C   UNL     1      -0.069  -0.649   7.288  0.00  0.00    +0.001 A 
ATOM     17  C   UNL     1      -0.135  -1.253   6.024  0.00  0.00    +0.023 A 
ATOM     18  C   UNL     1      -0.309  -1.387   8.463  0.00  0.00    +0.011 A 
ATOM     19  C   UNL     1      -0.233  -0.735   9.661  0.00  0.00    +0.020 A 
ATOM     20  C   UNL     1       0.075   0.623   9.694  0.00  0.00    +0.111 A 
ATOM     21  N   UNL     1       0.297   1.307   8.598  0.00  0.00    -0.255 NA
ENDBRANCH   9  12
ENDBRANCH   7   8
BRANCH   5  22
ATOM     22  N   UNL     1       0.382  -4.256  -0.425  0.00  0.00    -0.281 N 
ATOM     23  C   UNL     1       0.954  -4.716  -1.556  0.00  0.00    +0.248 C 
ATOM     24  O   UNL     1       1.228  -3.945  -2.455  0.00  0.00    -0.270 OA
ATOM     25  H   UNL     1       0.103  -4.878   0.264  0.00  0.00    +0.155 HD
BRANCH  23  26
ATOM     26  C   UNL     1       1.246  -6.157  -1.704  0.00  0.00    +0.039 A 
ATOM     27  C   UNL     1       0.926  -7.046  -0.675  0.00  0.00    +0.013 A 
ATOM     28  C   UNL     1       1.200  -8.391  -0.815  0.00  0.00    +0.003 A 
ATOM     29  C   UNL     1       1.792  -8.864  -1.971  0.00  0.00    +0.025 A 
ATOM     30  C   UNL     1       2.114  -7.988  -3.001  0.00  0.00    +0.051 A 
ATOM     31  C   UNL     1       1.838  -6.635  -2.873  0.00  0.00    +0.037 A 
BRANCH  30  32
ATOM     32  N   UNL     1       2.713  -8.471  -4.168  0.00  0.00    -0.211 N 
ATOM     33  C   UNL     1       2.566  -7.734  -5.425  0.00  0.00    +0.157 C 
BRANCH  32  34
ATOM     34  S   UNL     1       3.588  -9.876  -4.128  0.00  0.00    +0.042 S 
ATOM     35  O   UNL     1       4.512  -9.758  -5.201  0.00  0.00    -0.155 OA
ATOM     36  O   UNL     1       4.045  -9.981  -2.787  0.00  0.00    -0.155 OA
ATOM     37  C   UNL     1       2.384 -11.186  -4.483  0.00  0.00    +0.218 C 
ENDBRANCH  32  34
ENDBRANCH  30  32
ENDBRANCH  23  26
ENDBRANCH   5  22
TORSDOF 6
