REMARK  Name = CHEMBL1171607
REMARK  7 active torsions:
REMARK  status: ('A' for Active; 'I' for Inactive)
REMARK    1  A    between atoms: C_1  and  N_2
REMARK    2  A    between atoms: C_4  and  C_11
REMARK    3  A    between atoms: N_6  and  C_10
REMARK    4  A    between atoms: C_14  and  N_23
REMARK    5  A    between atoms: C_15  and  C_17
REMARK    6  A    between atoms: C_24  and  C_26
REMARK    7  A    between atoms: C_30  and  C_32
REMARK                            x       y       z     vdW  Elec       q    Type
REMARK                         _______ _______ _______ _____ _____    ______ ____
ROOT
ATOM      1  C   UNL     1      -2.538  -2.501   1.252  0.00  0.00    -0.041 A 
ATOM      2  C   UNL     1      -2.966  -3.278   0.189  0.00  0.00    +0.006 A 
ATOM      3  C   UNL     1      -4.182  -3.931   0.245  0.00  0.00    +0.024 A 
ATOM      4  C   UNL     1      -4.983  -3.811   1.371  0.00  0.00    +0.041 A 
ATOM      5  C   UNL     1      -4.553  -3.026   2.450  0.00  0.00    -0.001 A 
ATOM      6  C   UNL     1      -3.320  -2.377   2.382  0.00  0.00    +0.014 A 
ENDROOT
BRANCH   1  10
ATOM      7  C   UNL     1       0.024   1.414  -0.002  0.00  0.00    +0.132 C 
ATOM      8  N   UNL     1       0.033  -0.051  -0.009  0.00  0.00    -0.169 NA
ATOM      9  C   UNL     1      -1.219  -0.827  -0.005  0.00  0.00    +0.119 C 
ATOM     10  C   UNL     1      -1.209  -1.794   1.178  0.00  0.00    +0.050 C 
ATOM     11  C   UNL     1      -0.096  -2.829   1.021  0.00  0.00    +0.119 C 
ATOM     12  N   UNL     1       1.210  -2.150   1.067  0.00  0.00    -0.169 NA
ATOM     13  S   UNL     1       1.461  -0.912  -0.029  0.00  0.00    +0.099 S 
ATOM     14  O   UNL     1       2.464  -0.068   0.520  0.00  0.00    -0.141 OA
ATOM     15  O   UNL     1       1.571  -1.506  -1.315  0.00  0.00    -0.141 OA
ATOM     16  C   UNL     1       2.243  -2.543   2.028  0.00  0.00    +0.132 C 
ENDBRANCH   1  10
BRANCH   5  17
ATOM     17  C   UNL     1      -5.398  -2.892   3.654  0.00  0.00    -0.042 C 
ATOM     18  C   UNL     1      -6.460  -2.126   3.580  0.00  0.00    -0.023 C 
ATOM     19  C   UNL     1      -7.401  -1.890   4.726  0.00  0.00    +0.027 C 
ATOM     20  C   UNL     1      -7.203  -2.962   5.800  0.00  0.00    +0.004 C 
ATOM     21  C   UNL     1      -5.705  -3.065   6.114  0.00  0.00    +0.005 C 
ATOM     22  C   UNL     1      -4.994  -3.646   4.888  0.00  0.00    +0.035 C 
ENDBRANCH   5  17
BRANCH   4  23
ATOM     23  N   UNL     1      -6.212  -4.470   1.429  0.00  0.00    -0.278 N 
ATOM     24  C   UNL     1      -6.953  -4.614   0.313  0.00  0.00    +0.284 C 
ATOM     25  O   UNL     1      -6.515  -4.245  -0.760  0.00  0.00    -0.267 OA
ATOM     26  H   UNL     1      -6.534  -4.823   2.274  0.00  0.00    +0.155 HD
BRANCH  24  27
ATOM     27  C   UNL     1      -8.295  -5.221   0.391  0.00  0.00    +0.195 A 
ATOM     28  N   UNL     1      -9.139  -5.427  -0.666  0.00  0.00    -0.340 N 
ATOM     29  H   UNL     1      -8.962  -5.202  -1.593  0.00  0.00    +0.167 HD
ATOM     30  C   UNL     1     -10.261  -6.000  -0.185  0.00  0.00    +0.123 A 
ATOM     31  C   UNL     1     -10.087  -6.140   1.178  0.00  0.00    +0.158 A 
ATOM     32  N   UNL     1      -8.873  -5.656   1.486  0.00  0.00    -0.213 NA
BRANCH  31  33
ATOM     33  C   UNL     1     -11.029  -6.703   2.097  0.00  0.00    +0.121 C 
ATOM     34  N   UNL     1     -11.777  -7.151   2.826  0.00  0.00    -0.189 NA
ENDBRANCH  31  33
ENDBRANCH  24  27
ENDBRANCH   4  23
TORSDOF 5
