REMARK  Name = CHEMBL241516
REMARK  3 active torsions:
REMARK  status: ('A' for Active; 'I' for Inactive)
REMARK    1  A    between atoms: C_3  and  C_7
REMARK    2  A    between atoms: C_10  and  N_24
REMARK    3  A    between atoms: C_15  and  C_16
REMARK                            x       y       z     vdW  Elec       q    Type
REMARK                         _______ _______ _______ _____ _____    ______ ____
ROOT
ATOM      1  C   UNL     1       3.670   1.951  -0.661  0.00  0.00    +0.016 A 
ATOM      2  C   UNL     1       4.146   2.457  -1.867  0.00  0.00    +0.122 A 
ATOM      3  N   UNL     1       5.300   3.102  -1.906  0.00  0.00    -0.239 NA
ATOM      4  C   UNL     1       6.053   3.304  -0.845  0.00  0.00    +0.125 A 
ATOM      5  C   UNL     1       5.662   2.832   0.435  0.00  0.00    +0.037 A 
ATOM      6  C   UNL     1       4.431   2.148   0.489  0.00  0.00    +0.032 A 
ATOM      7  S   UNL     1       4.257   1.717   2.199  0.00  0.00    -0.095 S 
ATOM      8  C   UNL     1       5.767   2.429   2.823  0.00  0.00    +0.055 A 
ATOM      9  C   UNL     1       6.349   2.953   1.718  0.00  0.00    +0.000 A 
ENDROOT
BRANCH   9  10
ATOM     10  C   UNL     1       7.652   3.654   1.812  0.00  0.00    -0.015 A 
ATOM     11  C   UNL     1       7.767   4.977   1.387  0.00  0.00    +0.011 A 
ATOM     12  C   UNL     1       8.981   5.625   1.476  0.00  0.00    +0.040 A 
ATOM     13  C   UNL     1      10.086   4.964   1.988  0.00  0.00    +0.142 A 
ATOM     14  C   UNL     1       9.977   3.649   2.412  0.00  0.00    +0.077 A 
ATOM     15  C   UNL     1       8.764   2.994   2.332  0.00  0.00    +0.031 A 
ATOM     16 CL   UNL     1      11.366   2.827   3.053  0.00  0.00    -0.081 Cl
ATOM     17  F   UNL     1      11.274   5.603   2.072  0.00  0.00    -0.204 F 
ENDBRANCH   9  10
BRANCH   1  20
ATOM     18  C   UNL     1       0.048   1.055  -1.096  0.00  0.00    +0.020 A 
ATOM     19  C   UNL     1       1.229   1.772  -1.179  0.00  0.00    +0.011 A 
ATOM     20  C   UNL     1       2.378   1.226  -0.601  0.00  0.00    +0.003 A 
ATOM     21  C   UNL     1       2.291  -0.013   0.033  0.00  0.00    +0.119 A 
ATOM     22  N   UNL     1       1.144  -0.659   0.086  0.00  0.00    -0.263 NA
ATOM     23  C   UNL     1       0.043  -0.168  -0.450  0.00  0.00    +0.111 A 
ENDBRANCH   1  20
BRANCH   4  24
ATOM     24  N   UNL     1       7.250   3.992  -0.980  0.00  0.00    -0.343 N 
ATOM     25  H   UNL     1       7.354   4.650  -1.685  0.00  0.00    +0.144 HD
ATOM     26  H   UNL     1       7.983   3.814  -0.370  0.00  0.00    +0.144 HD
ENDBRANCH   4  24
TORSDOF 3
