REMARK  Name = CHEMBL444454
REMARK  11 active torsions:
REMARK  status: ('A' for Active; 'I' for Inactive)
REMARK    1  A    between atoms: C_1  and  C_2
REMARK    2  A    between atoms: C_2  and  O_3
REMARK    3  A    between atoms: N_4  and  S_5
REMARK    4  A    between atoms: S_5  and  C_8
REMARK    5  A    between atoms: C_8  and  C_9
REMARK    6  A    between atoms: C_9  and  C_10
REMARK    7  A    between atoms: C_13  and  N_16
REMARK    8  A    between atoms: C_23  and  C_37
REMARK    9  A    between atoms: N_25  and  C_28
REMARK   10  A    between atoms: N_39  and  O_40
REMARK   11  A    between atoms: O_40  and  C_41
REMARK                            x       y       z     vdW  Elec       q    Type
REMARK                         _______ _______ _______ _____ _____    ______ ____
ROOT
ATOM      1  N   UNL     1      -0.214  -6.061  -8.414  0.00  0.00    -0.284 N 
ATOM      2  C   UNL     1       0.993  -6.015  -9.084  0.00  0.00    +0.221 A 
ATOM      3  N   UNL     1       2.105  -5.812  -8.386  0.00  0.00    -0.222 NA
ATOM      4  C   UNL     1       3.284  -5.761  -8.982  0.00  0.00    +0.129 A 
ATOM      5  C   UNL     1       3.336  -5.926 -10.367  0.00  0.00    +0.083 A 
ATOM      6  C   UNL     1       4.604  -5.883 -11.110  0.00  0.00    +0.205 A 
ATOM      7  O   UNL     1       5.668  -5.702 -10.543  0.00  0.00    -0.286 OA
ATOM      8  C   UNL     1       4.532  -6.071 -12.569  0.00  0.00    +0.102 A 
ATOM      9  C   UNL     1       3.301  -6.272 -13.155  0.00  0.00    +0.110 A 
ATOM     10  N   UNL     1       2.163  -6.304 -12.441  0.00  0.00    -0.300 N 
ATOM     11  C   UNL     1       2.138  -6.139 -11.078  0.00  0.00    +0.154 A 
ATOM     12  N   UNL     1       0.998  -6.181 -10.398  0.00  0.00    -0.196 NA
ATOM     13  H   UNL     1      -1.027  -6.285  -8.893  0.00  0.00    +0.155 HD
ENDROOT
BRANCH  10  14
ATOM     14  C   UNL     1       0.953  -6.514 -13.114  0.00  0.00    +0.048 A 
ATOM     15  C   UNL     1       0.756  -7.678 -13.845  0.00  0.00    +0.026 A 
ATOM     16  C   UNL     1      -0.438  -7.880 -14.506  0.00  0.00    +0.006 A 
ATOM     17  C   UNL     1      -1.442  -6.926 -14.444  0.00  0.00    -0.044 A 
ATOM     18  C   UNL     1      -1.248  -5.766 -13.717  0.00  0.00    -0.042 A 
ATOM     19  C   UNL     1      -0.054  -5.562 -13.048  0.00  0.00    +0.030 A 
ATOM     20  C   UNL     1      -2.482  -4.894 -13.807  0.00  0.00    +0.036 C 
ATOM     21  C   UNL     1      -3.275  -5.439 -15.014  0.00  0.00    +0.009 C 
ATOM     22  C   UNL     1      -2.819  -6.912 -15.072  0.00  0.00    +0.036 C 
ENDBRANCH  10  14
BRANCH   1  26
ATOM     23  C   UNL     1      -0.361  -5.234  -4.334  0.00  0.00    -0.046 A 
ATOM     24  C   UNL     1       0.547  -4.572  -5.140  0.00  0.00    +0.005 A 
ATOM     25  C   UNL     1       0.599  -4.844  -6.493  0.00  0.00    +0.023 A 
ATOM     26  C   UNL     1      -0.263  -5.783  -7.044  0.00  0.00    +0.034 A 
ATOM     27  C   UNL     1      -1.174  -6.446  -6.232  0.00  0.00    +0.023 A 
ATOM     28  C   UNL     1      -1.217  -6.173  -4.879  0.00  0.00    +0.005 A 
BRANCH  23  29
ATOM     29  C   UNL     1      -0.414  -4.935  -2.858  0.00  0.00    +0.060 C 
BRANCH  29  30
ATOM     30  C   UNL     1       0.545  -5.866  -2.114  0.00  0.00    +0.197 C 
BRANCH  30  31
ATOM     31  S   UNL     1       0.481  -5.506  -0.337  0.00  0.00    +0.073 S 
ATOM     32  O   UNL     1      -0.785  -5.874   0.191  0.00  0.00    -0.151 OA
ATOM     33  O   UNL     1       1.028  -4.220  -0.078  0.00  0.00    -0.151 OA
BRANCH  31  36
ATOM     34  C   UNL     1       2.708  -7.526   2.254  0.00  0.00    +0.110 C 
ATOM     35  C   UNL     1       1.735  -6.560   1.628  0.00  0.00    +0.203 C 
ATOM     36  N   UNL     1       1.551  -6.567   0.351  0.00  0.00    -0.101 NA
BRANCH  35  37
ATOM     37  O   UNL     1       1.056  -5.689   2.403  0.00  0.00    -0.495 OA
ATOM     38  H   UNL     1       1.260  -5.759   3.345  0.00  0.00    +0.293 HD
ENDBRANCH  35  37
ENDBRANCH  31  36
ENDBRANCH  30  31
ENDBRANCH  29  30
ENDBRANCH  23  29
ENDBRANCH   1  26
BRANCH   8  39
ATOM     39  C   UNL     1       5.755  -6.042 -13.388  0.00  0.00    +0.272 C 
ATOM     40  O   UNL     1       5.675  -6.093 -14.601  0.00  0.00    -0.268 OA
ATOM     41  N   UNL     1       6.962  -5.960 -12.794  0.00  0.00    -0.191 N 
ATOM     42  H   UNL     1       7.030  -5.999 -11.828  0.00  0.00    +0.183 HD
BRANCH  41  43
ATOM     43  O   UNL     1       8.130  -5.816 -13.582  0.00  0.00    -0.283 OA
ATOM     44  C   UNL     1       9.338  -5.742 -12.822  0.00  0.00    +0.226 C 
ENDBRANCH  41  43
ENDBRANCH   8  39
TORSDOF 9
