REMARK  Name = CHEMBL402337
REMARK  6 active torsions:
REMARK  status: ('A' for Active; 'I' for Inactive)
REMARK    1  A    between atoms: C_1  and  C_2
REMARK    2  A    between atoms: C_5  and  C_8
REMARK    3  A    between atoms: C_10  and  C_24
REMARK    4  A    between atoms: C_13  and  N_14
REMARK    5  A    between atoms: C_15  and  C_17
REMARK    6  A    between atoms: C_19  and  C_22
REMARK                            x       y       z     vdW  Elec       q    Type
REMARK                         _______ _______ _______ _____ _____    ______ ____
ROOT
ATOM      1  C   UNL     1       1.217  -4.111   0.000  0.00  0.00    -0.001 A 
ATOM      2  C   UNL     1       0.179  -5.036  -0.116  0.00  0.00    +0.014 A 
ATOM      3  C   UNL     1       0.456  -6.387  -0.095  0.00  0.00    -0.044 A 
ATOM      4  C   UNL     1       1.761  -6.830   0.041  0.00  0.00    +0.006 A 
ATOM      5  C   UNL     1       2.798  -5.925   0.157  0.00  0.00    +0.024 A 
ATOM      6  C   UNL     1       2.537  -4.563   0.132  0.00  0.00    +0.041 A 
ENDROOT
BRANCH   3   7
ATOM      7  C   UNL     1      -0.666  -7.385  -0.221  0.00  0.00    +0.016 C 
ATOM      8  C   UNL     1      -0.698  -8.279   1.022  0.00  0.00    -0.011 C 
ATOM      9  C   UNL     1      -1.787  -9.340   0.853  0.00  0.00    -0.082 C 
ATOM     10  N   UNL     1      -1.500 -10.157  -0.333  0.00  0.00    +0.379 N 
ATOM     11  C   UNL     1      -1.539  -9.318  -1.537  0.00  0.00    -0.082 C 
ATOM     12  C   UNL     1      -0.440  -8.257  -1.459  0.00  0.00    -0.011 C 
ATOM     13  H   UNL     1      -0.584 -10.570  -0.241  0.00  0.00    -0.086 HD
ATOM     14  H   UNL     1      -2.191 -10.888  -0.411  0.00  0.00    -0.086 HD
ENDBRANCH   3   7
BRANCH   1  19
ATOM     15  C   UNL     1      -0.042   1.510   0.010  0.00  0.00    +0.008 C 
ATOM     16  C   UNL     1      -0.014  -0.020  -0.004  0.00  0.00    -0.010 C 
ATOM     17  C   UNL     1       0.734  -0.511  -1.250  0.00  0.00    +0.008 C 
ATOM     18  C   UNL     1       0.583  -2.031  -1.339  0.00  0.00    +0.036 C 
ATOM     19  C   UNL     1       0.926  -2.663  -0.021  0.00  0.00    -0.042 C 
ATOM     20  C   UNL     1       0.984  -2.004   1.112  0.00  0.00    -0.022 C 
ATOM     21  C   UNL     1       0.722  -0.532   1.237  0.00  0.00    +0.030 C 
ENDBRANCH   1  19
BRANCH   6  22
ATOM     22  N   UNL     1       3.584  -3.646   0.244  0.00  0.00    -0.278 N 
ATOM     23  C   UNL     1       4.646  -3.929   1.023  0.00  0.00    +0.284 C 
ATOM     24  O   UNL     1       4.732  -5.015   1.564  0.00  0.00    -0.267 OA
ATOM     25  H   UNL     1       3.546  -2.806  -0.240  0.00  0.00    +0.155 HD
BRANCH  23  26
ATOM     26  C   UNL     1       5.705  -2.921   1.220  0.00  0.00    +0.195 A 
ATOM     27  N   UNL     1       5.721  -1.718   0.696  0.00  0.00    -0.213 NA
ATOM     28  C   UNL     1       6.834  -1.082   1.093  0.00  0.00    +0.158 A 
ATOM     29  C   UNL     1       7.543  -1.944   1.907  0.00  0.00    +0.123 A 
ATOM     30  N   UNL     1       6.828  -3.086   1.984  0.00  0.00    -0.340 N 
ATOM     31  H   UNL     1       7.068  -3.879   2.488  0.00  0.00    +0.167 HD
BRANCH  28  32
ATOM     32  C   UNL     1       7.219   0.250   0.735  0.00  0.00    +0.121 C 
ATOM     33  N   UNL     1       7.524   1.307   0.452  0.00  0.00    -0.189 NA
ENDBRANCH  28  32
ENDBRANCH  23  26
ENDBRANCH   6  22
TORSDOF 5
