REMARK  Name = CHEMBL461365
REMARK  4 active torsions:
REMARK  status: ('A' for Active; 'I' for Inactive)
REMARK    1  A    between atoms: C_3  and  N_7
REMARK    2  A    between atoms: C_8  and  C_10
REMARK    3  A    between atoms: C_12  and  N_17
REMARK    4  A    between atoms: C_18  and  C_20
REMARK                            x       y       z     vdW  Elec       q    Type
REMARK                         _______ _______ _______ _____ _____    ______ ____
ROOT
ATOM      1  C   UNL     1       6.048   1.974   0.346  0.00  0.00    +0.057 A 
ATOM      2  C   UNL     1       6.097   3.369   0.362  0.00  0.00    +0.037 A 
ATOM      3  C   UNL     1       7.318   4.017   0.273  0.00  0.00    +0.034 A 
ATOM      4  C   UNL     1       8.492   3.278   0.170  0.00  0.00    +0.025 A 
ATOM      5  C   UNL     1       8.446   1.897   0.154  0.00  0.00    +0.022 A 
ATOM      6  C   UNL     1       7.233   1.241   0.248  0.00  0.00    +0.053 A 
ATOM      7 CL   UNL     1       7.182  -0.494   0.236  0.00  0.00    -0.083 Cl
ENDROOT
BRANCH   1   9
ATOM      8  N   UNL     1       3.608   1.987   0.535  0.00  0.00    -0.280 N 
ATOM      9  C   UNL     1       4.749   1.277   0.440  0.00  0.00    +0.250 C 
ATOM     10  O   UNL     1       4.710   0.061   0.432  0.00  0.00    -0.270 OA
ATOM     11  H   UNL     1       3.632   2.954   0.466  0.00  0.00    +0.155 HD
BRANCH   8  14
ATOM     12  C   UNL     1       1.106  -0.471   1.627  0.00  0.00    +0.021 A 
ATOM     13  C   UNL     1       2.336   0.143   1.458  0.00  0.00    +0.026 A 
ATOM     14  C   UNL     1       2.389   1.329   0.732  0.00  0.00    +0.052 A 
ATOM     15  C   UNL     1       1.214   1.851   0.206  0.00  0.00    +0.134 A 
ATOM     16  N   UNL     1       0.064   1.234   0.390  0.00  0.00    -0.261 NA
ATOM     17  C   UNL     1      -0.020   0.109   1.073  0.00  0.00    +0.111 A 
ENDBRANCH   8  14
ENDBRANCH   1   9
BRANCH   3  18
ATOM     18  N   UNL     1       7.372   5.415   0.288  0.00  0.00    -0.281 N 
ATOM     19  C   UNL     1       8.415   6.044   0.865  0.00  0.00    +0.248 C 
ATOM     20  O   UNL     1       9.262   5.401   1.454  0.00  0.00    -0.270 OA
ATOM     21  H   UNL     1       6.658   5.931  -0.118  0.00  0.00    +0.155 HD
BRANCH  19  22
ATOM     22  C   UNL     1       8.528   7.514   0.782  0.00  0.00    +0.038 A 
ATOM     23  C   UNL     1       7.554   8.256   0.111  0.00  0.00    +0.014 A 
ATOM     24  C   UNL     1       7.665   9.628   0.036  0.00  0.00    +0.022 A 
ATOM     25  C   UNL     1       8.741  10.272   0.625  0.00  0.00    +0.059 A 
ATOM     26  C   UNL     1       9.712   9.542   1.292  0.00  0.00    +0.060 A 
ATOM     27  C   UNL     1       9.608   8.168   1.378  0.00  0.00    +0.034 A 
ATOM     28 CL   UNL     1      11.057  10.357   2.026  0.00  0.00    -0.082 Cl
ATOM     29 CL   UNL     1       8.873  12.000   0.526  0.00  0.00    -0.082 Cl
ENDBRANCH  19  22
ENDBRANCH   3  18
TORSDOF 4
