REMARK  Name = CHEMBL251842
REMARK  7 active torsions:
REMARK  status: ('A' for Active; 'I' for Inactive)
REMARK    1  A    between atoms: C_1  and  C_2
REMARK    2  A    between atoms: N_5  and  C_8
REMARK    3  A    between atoms: C_10  and  N_24
REMARK    4  A    between atoms: C_13  and  N_14
REMARK    5  A    between atoms: C_15  and  C_17
REMARK    6  A    between atoms: C_20  and  C_22
REMARK    7  A    between atoms: N_27  and  C_30
REMARK                            x       y       z     vdW  Elec       q    Type
REMARK                         _______ _______ _______ _____ _____    ______ ____
ROOT
ATOM      1  C   UNL     1      -1.069  -3.495   1.988  0.00  0.00    +0.072 A 
ATOM      2  C   UNL     1      -0.914  -4.855   1.752  0.00  0.00    +0.051 A 
ATOM      3  C   UNL     1      -1.444  -5.752   2.677  0.00  0.00    +0.050 A 
ATOM      4  C   UNL     1      -2.104  -5.262   3.795  0.00  0.00    +0.136 A 
ATOM      5  N   UNL     1      -2.234  -3.964   3.990  0.00  0.00    -0.236 NA
ATOM      6  C   UNL     1      -1.741  -3.079   3.140  0.00  0.00    +0.147 A 
ENDROOT
BRANCH   1  11
ATOM      7  C   UNL     1       0.024   1.526   0.035  0.00  0.00    +0.007 C 
ATOM      8  C   UNL     1       0.043  -0.004   0.025  0.00  0.00    -0.011 C 
ATOM      9  C   UNL     1      -1.394  -0.531   0.017  0.00  0.00    +0.022 C 
ATOM     10  C   UNL     1      -1.372  -2.062  -0.028  0.00  0.00    +0.105 C 
ATOM     11  N   UNL     1      -0.554  -2.556   1.089  0.00  0.00    -0.327 N 
ATOM     12  C   UNL     1       0.814  -2.044   1.243  0.00  0.00    +0.105 C 
ATOM     13  C   UNL     1       0.767  -0.513   1.273  0.00  0.00    +0.022 C 
ENDBRANCH   1  11
BRANCH   3  14
ATOM     14  N   UNL     1      -1.312  -7.131   2.480  0.00  0.00    -0.326 N 
ATOM     15  C   UNL     1      -0.721  -7.665   1.244  0.00  0.00    +0.120 C 
ATOM     16  C   UNL     1       0.381  -8.660   1.621  0.00  0.00    +0.103 C 
ATOM     17  N   UNL     1      -0.169  -9.672   2.534  0.00  0.00    -0.302 NA
ATOM     18  C   UNL     1      -0.619  -9.065   3.793  0.00  0.00    +0.103 C 
ATOM     19  C   UNL     1      -1.757  -8.086   3.507  0.00  0.00    +0.120 C 
ATOM     20  C   UNL     1       0.807 -10.741   2.784  0.00  0.00    +0.105 C 
ENDBRANCH   3  14
BRANCH   6  21
ATOM     21  N   UNL     1      -1.899  -1.714   3.393  0.00  0.00    -0.262 N 
ATOM     22  C   UNL     1      -2.547  -1.305   4.502  0.00  0.00    +0.285 C 
ATOM     23  O   UNL     1      -2.994  -2.125   5.282  0.00  0.00    -0.266 OA
ATOM     24  H   UNL     1      -1.543  -1.061   2.771  0.00  0.00    +0.157 HD
BRANCH  22  25
ATOM     25  C   UNL     1      -2.713   0.130   4.768  0.00  0.00    +0.191 A 
ATOM     26  C   UNL     1      -3.342   0.673   5.854  0.00  0.00    +0.056 A 
ATOM     27  C   UNL     1      -3.274   2.063   5.714  0.00  0.00    +0.061 A 
ATOM     28  C   UNL     1      -2.600   2.313   4.538  0.00  0.00    +0.205 A 
ATOM     29  O   UNL     1      -2.267   1.132   3.986  0.00  0.00    -0.440 OA
BRANCH  28  30
ATOM     30  C   UNL     1      -2.303   3.606   3.999  0.00  0.00    +0.138 C 
ATOM     31  N   UNL     1      -2.067   4.631   3.572  0.00  0.00    -0.188 NA
ENDBRANCH  28  30
ENDBRANCH  22  25
ENDBRANCH   6  21
TORSDOF 5
