REMARK  Name = CHEMBL252832
REMARK  6 active torsions:
REMARK  status: ('A' for Active; 'I' for Inactive)
REMARK    1  A    between atoms: C_1  and  N_2
REMARK    2  A    between atoms: N_5  and  C_8
REMARK    3  A    between atoms: C_11  and  N_20
REMARK    4  A    between atoms: C_12  and  N_14
REMARK    5  A    between atoms: C_21  and  C_23
REMARK    6  A    between atoms: C_26  and  C_28
REMARK                            x       y       z     vdW  Elec       q    Type
REMARK                         _______ _______ _______ _____ _____    ______ ____
ROOT
ATOM      1  C   UNL     1      -0.962  -3.677   1.588  0.00  0.00    +0.032 A 
ATOM      2  C   UNL     1      -2.247  -4.171   1.400  0.00  0.00    +0.025 A 
ATOM      3  C   UNL     1      -2.699  -5.234   2.159  0.00  0.00    +0.027 A 
ATOM      4  C   UNL     1      -1.871  -5.810   3.111  0.00  0.00    +0.055 A 
ATOM      5  C   UNL     1      -0.580  -5.316   3.302  0.00  0.00    +0.053 A 
ATOM      6  C   UNL     1      -0.127  -4.253   2.536  0.00  0.00    +0.048 A 
ENDROOT
BRANCH   1  11
ATOM      7  C   UNL     1      -0.134   1.503   0.026  0.00  0.00    +0.105 C 
ATOM      8  N   UNL     1      -0.085   0.035   0.021  0.00  0.00    -0.302 NA
ATOM      9  C   UNL     1      -1.433  -0.537  -0.089  0.00  0.00    +0.103 C 
ATOM     10  C   UNL     1      -1.328  -2.054  -0.273  0.00  0.00    +0.120 C 
ATOM     11  N   UNL     1      -0.507  -2.601   0.818  0.00  0.00    -0.327 N 
ATOM     12  C   UNL     1       0.804  -1.987   1.078  0.00  0.00    +0.120 C 
ATOM     13  C   UNL     1       0.614  -0.472   1.209  0.00  0.00    +0.103 C 
ENDBRANCH   1  11
BRANCH   5  14
ATOM     14  N   UNL     1       0.257  -5.895   4.261  0.00  0.00    -0.324 N 
ATOM     15  C   UNL     1       1.151  -7.010   3.912  0.00  0.00    +0.133 C 
ATOM     16  C   UNL     1       2.562  -6.670   4.404  0.00  0.00    +0.178 C 
ATOM     17  O   UNL     1       2.505  -6.311   5.787  0.00  0.00    -0.377 OA
ATOM     18  C   UNL     1       1.723  -5.145   6.057  0.00  0.00    +0.178 C 
ATOM     19  C   UNL     1       0.273  -5.404   5.648  0.00  0.00    +0.133 C 
ENDBRANCH   5  14
BRANCH   4  20
ATOM     20  N   UNL     1      -2.331  -6.888   3.881  0.00  0.00    -0.277 N 
ATOM     21  C   UNL     1      -3.177  -7.788   3.342  0.00  0.00    +0.284 C 
ATOM     22  O   UNL     1      -3.461  -7.725   2.160  0.00  0.00    -0.266 OA
ATOM     23  H   UNL     1      -2.040  -6.986   4.801  0.00  0.00    +0.155 HD
BRANCH  21  24
ATOM     24  C   UNL     1      -3.757  -8.846   4.182  0.00  0.00    +0.191 A 
ATOM     25  C   UNL     1      -4.619  -9.818   3.759  0.00  0.00    +0.056 A 
ATOM     26  C   UNL     1      -4.920 -10.611   4.871  0.00  0.00    +0.061 A 
ATOM     27  C   UNL     1      -4.223 -10.085   5.936  0.00  0.00    +0.205 A 
ATOM     28  O   UNL     1      -3.523  -9.022   5.496  0.00  0.00    -0.440 OA
BRANCH  27  29
ATOM     29  C   UNL     1      -4.236 -10.584   7.278  0.00  0.00    +0.138 C 
ATOM     30  N   UNL     1      -4.247 -10.981   8.342  0.00  0.00    -0.188 NA
ENDBRANCH  27  29
ENDBRANCH  21  24
ENDBRANCH   4  20
TORSDOF 5
