REMARK  Name = CHEMBL450914
REMARK  9 active torsions:
REMARK  status: ('A' for Active; 'I' for Inactive)
REMARK    1  A    between atoms: C_1  and  C_2
REMARK    2  A    between atoms: C_2  and  N_3
REMARK    3  A    between atoms: C_7  and  C_9
REMARK    4  A    between atoms: C_7  and  O_41
REMARK    5  A    between atoms: C_13  and  N_15
REMARK    6  A    between atoms: C_22  and  C_36
REMARK    7  A    between atoms: N_24  and  C_27
REMARK    8  A    between atoms: N_38  and  O_39
REMARK    9  A    between atoms: O_39  and  C_40
REMARK                            x       y       z     vdW  Elec       q    Type
REMARK                         _______ _______ _______ _____ _____    ______ ____
ROOT
ATOM      1  N   UNL     1       0.388  -7.249  -1.895  0.00  0.00    -0.284 N 
ATOM      2  C   UNL     1       0.138  -8.598  -1.733  0.00  0.00    +0.221 A 
ATOM      3  N   UNL     1      -0.028  -9.073  -0.503  0.00  0.00    -0.222 NA
ATOM      4  C   UNL     1      -0.269 -10.356  -0.296  0.00  0.00    +0.129 A 
ATOM      5  C   UNL     1      -0.345 -11.205  -1.401  0.00  0.00    +0.083 A 
ATOM      6  C   UNL     1      -0.610 -12.644  -1.261  0.00  0.00    +0.205 A 
ATOM      7  O   UNL     1      -0.775 -13.158  -0.168  0.00  0.00    -0.286 OA
ATOM      8  C   UNL     1      -0.668 -13.439  -2.501  0.00  0.00    +0.102 A 
ATOM      9  C   UNL     1      -0.474 -12.803  -3.708  0.00  0.00    +0.110 A 
ATOM     10  N   UNL     1      -0.234 -11.483  -3.795  0.00  0.00    -0.298 N 
ATOM     11  C   UNL     1      -0.164 -10.669  -2.692  0.00  0.00    +0.154 A 
ATOM     12  N   UNL     1       0.069  -9.367  -2.809  0.00  0.00    -0.196 NA
ATOM     13  H   UNL     1       0.429  -6.867  -2.786  0.00  0.00    +0.155 HD
ENDROOT
BRANCH  10  14
ATOM     14  C   UNL     1      -0.048 -10.916  -5.061  0.00  0.00    +0.066 A 
ATOM     15  C   UNL     1       1.183 -10.373  -5.420  0.00  0.00    +0.033 A 
ATOM     16  C   UNL     1       1.321  -9.823  -6.684  0.00  0.00    -0.024 A 
ATOM     17  C   UNL     1       0.240  -9.828  -7.548  0.00  0.00    +0.045 A 
ATOM     18  N   UNL     1      -0.915 -10.352  -7.172  0.00  0.00    -0.258 NA
ATOM     19  C   UNL     1      -1.085 -10.890  -5.983  0.00  0.00    +0.137 A 
ATOM     20  C   UNL     1       0.636  -9.176  -8.858  0.00  0.00    +0.056 C 
ATOM     21  C   UNL     1       1.925  -8.388  -8.545  0.00  0.00    +0.011 C 
ATOM     22  C   UNL     1       2.511  -9.170  -7.351  0.00  0.00    +0.037 C 
ENDBRANCH  10  14
BRANCH   1  27
ATOM     23  C   UNL     1       0.325  -4.317   0.321  0.00  0.00    -0.016 A 
ATOM     24  C   UNL     1       0.965  -4.821   1.439  0.00  0.00    +0.006 A 
ATOM     25  C   UNL     1       1.413  -6.128   1.452  0.00  0.00    +0.002 A 
ATOM     26  C   UNL     1       1.223  -6.936   0.348  0.00  0.00    +0.023 A 
ATOM     27  C   UNL     1       0.581  -6.434  -0.776  0.00  0.00    +0.034 A 
ATOM     28  C   UNL     1       0.127  -5.121  -0.784  0.00  0.00    +0.029 A 
BRANCH  23  33
ATOM     29  N   UNL     1      -0.987  -1.071   1.730  0.00  0.00    +0.382 N 
ATOM     30  C   UNL     1       0.089  -0.182   1.278  0.00  0.00    -0.079 C 
ATOM     31  C   UNL     1       0.466  -0.523  -0.165  0.00  0.00    -0.016 C 
ATOM     32  C   UNL     1       0.942  -1.978  -0.232  0.00  0.00    +0.036 C 
ATOM     33  C   UNL     1      -0.162  -2.891   0.311  0.00  0.00    +0.076 C 
ATOM     34  C   UNL     1      -0.515  -2.461   1.736  0.00  0.00    -0.039 C 
ATOM     35  H   UNL     1      -1.269  -0.808   2.662  0.00  0.00    -0.082 HD
BRANCH  29  37
ATOM     36  C   UNL     1      -2.758   0.440   0.969  0.00  0.00    -0.017 C 
ATOM     37  C   UNL     1      -2.135  -0.950   0.821  0.00  0.00    -0.082 C 
ENDBRANCH  29  37
BRANCH  33  38
ATOM     38  O   UNL     1      -1.319  -2.786  -0.520  0.00  0.00    -0.386 OA
ATOM     39  H   UNL     1      -1.167  -3.040  -1.441  0.00  0.00    +0.211 HD
ENDBRANCH  33  38
ENDBRANCH  23  33
ENDBRANCH   1  27
BRANCH   8  40
ATOM     40  C   UNL     1      -0.927 -14.886  -2.451  0.00  0.00    +0.272 C 
ATOM     41  O   UNL     1      -1.068 -15.515  -3.483  0.00  0.00    -0.268 OA
ATOM     42  N   UNL     1      -1.009 -15.515  -1.262  0.00  0.00    -0.191 N 
ATOM     43  H   UNL     1      -0.970 -15.003  -0.439  0.00  0.00    +0.183 HD
BRANCH  42  44
ATOM     44  O   UNL     1      -1.153 -16.923  -1.214  0.00  0.00    -0.283 OA
ATOM     45  C   UNL     1      -1.227 -17.455   0.110  0.00  0.00    +0.226 C 
ENDBRANCH  42  44
ENDBRANCH   8  40
TORSDOF 7
