REMARK  Name = CHEMBL261849
REMARK  10 active torsions:
REMARK  status: ('A' for Active; 'I' for Inactive)
REMARK    1  A    between atoms: C_1  and  O_2
REMARK    2  A    between atoms: O_2  and  C_3
REMARK    3  A    between atoms: C_6  and  C_9
REMARK    4  A    between atoms: C_9  and  O_10
REMARK    5  A    between atoms: O_10  and  C_11
REMARK    6  A    between atoms: C_14  and  C_19
REMARK    7  A    between atoms: C_16  and  O_17
REMARK    8  A    between atoms: O_17  and  C_18
REMARK    9  A    between atoms: C_19  and  C_20
REMARK   10  A    between atoms: C_25  and  N_26
REMARK                            x       y       z     vdW  Elec       q    Type
REMARK                         _______ _______ _______ _____ _____    ______ ____
ROOT
ATOM      1  C   UNL     1      -6.606  -3.478  -1.480  0.00  0.00    +0.162 A 
ATOM      2  C   UNL     1      -7.349  -3.868  -0.377  0.00  0.00    +0.050 A 
ATOM      3  C   UNL     1      -8.563  -4.506  -0.552  0.00  0.00    +0.008 A 
ATOM      4  C   UNL     1      -9.039  -4.757  -1.825  0.00  0.00    -0.039 A 
ATOM      5  C   UNL     1      -8.302  -4.370  -2.930  0.00  0.00    +0.053 A 
ATOM      6  C   UNL     1      -7.088  -3.725  -2.762  0.00  0.00    +0.162 A 
ENDROOT
BRANCH   6   7
ATOM      7  O   UNL     1      -6.365  -3.339  -3.847  0.00  0.00    -0.491 OA
ATOM      8  C   UNL     1      -6.921  -3.626  -5.132  0.00  0.00    +0.277 C 
ENDBRANCH   6   7
BRANCH   1   9
ATOM      9  O   UNL     1      -5.412  -2.850  -1.309  0.00  0.00    -0.484 OA
BRANCH   9  10
ATOM     10  C   UNL     1      -4.981  -2.629   0.035  0.00  0.00    +0.264 C 
BRANCH  10  14
ATOM     11  C   UNL     1      -1.200  -0.637   0.010  0.00  0.00    +0.120 A 
ATOM     12  C   UNL     1      -2.375   0.101   0.019  0.00  0.00    +0.046 A 
ATOM     13  C   UNL     1      -3.596  -0.545   0.027  0.00  0.00    +0.010 A 
ATOM     14  C   UNL     1      -3.648  -1.927   0.026  0.00  0.00    -0.010 A 
ATOM     15  C   UNL     1      -2.479  -2.665   0.017  0.00  0.00    +0.010 A 
ATOM     16  C   UNL     1      -1.255  -2.024   0.003  0.00  0.00    +0.046 A 
BRANCH  11  18
ATOM     17  C   UNL     1      -0.017   1.425   0.010  0.00  0.00    +0.277 C 
ATOM     18  O   UNL     1       0.002  -0.004   0.002  0.00  0.00    -0.495 OA
ENDBRANCH  11  18
ENDBRANCH  10  14
ENDBRANCH   9  10
ENDBRANCH   1   9
BRANCH   4  19
ATOM     19  C   UNL     1     -10.362  -5.453  -2.010  0.00  0.00    +0.075 C 
BRANCH  19  20
ATOM     20  C   UNL     1     -11.465  -4.428  -2.072  0.00  0.00    +0.012 A 
ATOM     21  C   UNL     1     -12.176  -4.085  -0.939  0.00  0.00    +0.092 A 
ATOM     22  N   UNL     1     -13.139  -3.180  -1.026  0.00  0.00    -0.334 N 
ATOM     23  C   UNL     1     -13.427  -2.602  -2.183  0.00  0.00    +0.192 A 
ATOM     24  N   UNL     1     -12.770  -2.902  -3.293  0.00  0.00    -0.201 NA
ATOM     25  C   UNL     1     -11.787  -3.797  -3.276  0.00  0.00    +0.125 A 
ATOM     26  N   UNL     1     -14.441  -1.661  -2.233  0.00  0.00    -0.329 N 
ATOM     27  H   UNL     1     -14.931  -1.432  -1.428  0.00  0.00    +0.145 HD
ATOM     28  H   UNL     1     -14.662  -1.230  -3.074  0.00  0.00    +0.145 HD
ATOM     29  H   UNL     1     -13.641  -2.937  -0.232  0.00  0.00    +0.168 HD
BRANCH  25  30
ATOM     30  N   UNL     1     -11.097  -4.105  -4.437  0.00  0.00    -0.343 N 
ATOM     31  H   UNL     1     -10.384  -4.763  -4.418  0.00  0.00    +0.144 HD
ATOM     32  H   UNL     1     -11.327  -3.663  -5.269  0.00  0.00    +0.144 HD
ENDBRANCH  25  30
ENDBRANCH  19  20
ENDBRANCH   4  19
TORSDOF 8
