REMARK  Name = CHEMBL402852
REMARK  4 active torsions:
REMARK  status: ('A' for Active; 'I' for Inactive)
REMARK    1  A    between atoms: C_3  and  C_31
REMARK    2  A    between atoms: C_5  and  N_7
REMARK    3  A    between atoms: C_14  and  C_28
REMARK    4  A    between atoms: N_16  and  C_19
REMARK                            x       y       z     vdW  Elec       q    Type
REMARK                         _______ _______ _______ _____ _____    ______ ____
ROOT
ATOM      1  N   UNL     1       1.569  -2.645  -0.383  0.00  0.00    -0.284 N 
ATOM      2  C   UNL     1       0.270  -3.055  -0.612  0.00  0.00    +0.221 A 
ATOM      3  N   UNL     1      -0.669  -2.132  -0.788  0.00  0.00    -0.222 NA
ATOM      4  C   UNL     1      -1.927  -2.473  -1.010  0.00  0.00    +0.129 A 
ATOM      5  C   UNL     1      -2.249  -3.830  -1.056  0.00  0.00    +0.083 A 
ATOM      6  C   UNL     1      -3.622  -4.298  -1.298  0.00  0.00    +0.204 A 
ATOM      7  O   UNL     1      -4.540  -3.515  -1.470  0.00  0.00    -0.286 OA
ATOM      8  C   UNL     1      -3.838  -5.755  -1.324  0.00  0.00    +0.100 A 
ATOM      9  C   UNL     1      -2.762  -6.592  -1.123  0.00  0.00    +0.110 A 
ATOM     10  N   UNL     1      -1.520  -6.125  -0.905  0.00  0.00    -0.300 N 
ATOM     11  C   UNL     1      -1.229  -4.784  -0.864  0.00  0.00    +0.154 A 
ATOM     12  N   UNL     1       0.009  -4.352  -0.652  0.00  0.00    -0.196 NA
ATOM     13  H   UNL     1       2.283  -3.300  -0.334  0.00  0.00    +0.155 HD
ENDROOT
BRANCH  10  14
ATOM     14  C   UNL     1      -0.482  -7.044  -0.710  0.00  0.00    +0.048 A 
ATOM     15  C   UNL     1      -0.084  -7.876  -1.749  0.00  0.00    +0.026 A 
ATOM     16  C   UNL     1       0.940  -8.779  -1.551  0.00  0.00    +0.006 A 
ATOM     17  C   UNL     1       1.574  -8.860  -0.322  0.00  0.00    -0.044 A 
ATOM     18  C   UNL     1       1.180  -8.033   0.714  0.00  0.00    -0.042 A 
ATOM     19  C   UNL     1       0.157  -7.122   0.519  0.00  0.00    +0.030 A 
ATOM     20  C   UNL     1       2.020  -8.315   1.942  0.00  0.00    +0.036 C 
ATOM     21  C   UNL     1       2.666  -9.692   1.681  0.00  0.00    +0.009 C 
ATOM     22  C   UNL     1       2.706  -9.754   0.140  0.00  0.00    +0.036 C 
ENDBRANCH  10  14
BRANCH   1  27
ATOM     23  C   UNL     1       3.349   0.573  -0.523  0.00  0.00    +0.003 A 
ATOM     24  C   UNL     1       2.441   1.410   0.093  0.00  0.00    +0.013 A 
ATOM     25  C   UNL     1       1.228   0.902   0.560  0.00  0.00    +0.039 A 
ATOM     26  C   UNL     1       0.937  -0.453   0.401  0.00  0.00    +0.036 A 
ATOM     27  C   UNL     1       1.855  -1.286  -0.221  0.00  0.00    +0.034 A 
ATOM     28  C   UNL     1       3.061  -0.770  -0.682  0.00  0.00    +0.023 A 
BRANCH  25  29
ATOM     29  C   UNL     1       0.254   1.796   1.222  0.00  0.00    +0.247 C 
ATOM     30  O   UNL     1      -0.453   1.371   2.114  0.00  0.00    -0.270 OA
ATOM     31  N   UNL     1       0.152   3.083   0.836  0.00  0.00    -0.298 N 
ATOM     32  C   UNL     1       0.908   3.581  -0.321  0.00  0.00    +0.108 C 
ATOM     33  C   UNL     1      -0.066   4.249  -1.296  0.00  0.00    +0.019 C 
ATOM     34  C   UNL     1      -0.864   5.326  -0.557  0.00  0.00    +0.003 C 
ATOM     35  C   UNL     1      -1.675   4.679   0.568  0.00  0.00    +0.019 C 
ATOM     36  C   UNL     1      -0.724   4.014   1.561  0.00  0.00    +0.108 C 
ENDBRANCH  25  29
ENDBRANCH   1  27
BRANCH   8  37
ATOM     37  C   UNL     1      -5.181  -6.308  -1.560  0.00  0.00    +0.247 C 
ATOM     38  O   UNL     1      -5.332  -7.508  -1.687  0.00  0.00    -0.270 OA
ATOM     39  N   UNL     1      -6.245  -5.484  -1.635  0.00  0.00    -0.325 N 
ATOM     40  H   UNL     1      -6.117  -4.523  -1.606  0.00  0.00    +0.145 HD
ATOM     41  H   UNL     1      -7.139  -5.852  -1.718  0.00  0.00    +0.145 HD
ENDBRANCH   8  37
TORSDOF 4
