REMARK  Name = CHEMBL451575
REMARK  10 active torsions:
REMARK  status: ('A' for Active; 'I' for Inactive)
REMARK    1  A    between atoms: C_1  and  C_2
REMARK    2  A    between atoms: C_2  and  O_3
REMARK    3  A    between atoms: O_3  and  N_4
REMARK    4  A    between atoms: C_5  and  C_7
REMARK    5  A    between atoms: N_9  and  C_34
REMARK    6  A    between atoms: N_18  and  C_19
REMARK    7  A    between atoms: C_22  and  C_25
REMARK    8  A    between atoms: C_25  and  C_26
REMARK    9  A    between atoms: C_26  and  N_27
REMARK   10  A    between atoms: N_30  and  C_33
REMARK                            x       y       z     vdW  Elec       q    Type
REMARK                         _______ _______ _______ _____ _____    ______ ____
ROOT
ATOM      1  C   UNL     1      -3.006  -4.032  -0.031  0.00  0.00    +0.102 A 
ATOM      2  C   UNL     1      -4.051  -4.917   0.116  0.00  0.00    +0.110 A 
ATOM      3  N   UNL     1      -3.893  -6.245  -0.024  0.00  0.00    -0.300 N 
ATOM      4  C   UNL     1      -2.683  -6.819  -0.322  0.00  0.00    +0.154 A 
ATOM      5  C   UNL     1      -1.538  -6.015  -0.497  0.00  0.00    +0.083 A 
ATOM      6  C   UNL     1      -1.669  -4.557  -0.359  0.00  0.00    +0.205 A 
ATOM      7  O   UNL     1      -0.712  -3.816  -0.504  0.00  0.00    -0.286 OA
ATOM      8  C   UNL     1      -0.320  -6.623  -0.801  0.00  0.00    +0.129 A 
ATOM      9  N   UNL     1      -0.285  -7.940  -0.914  0.00  0.00    -0.222 NA
ATOM     10  C   UNL     1      -1.381  -8.671  -0.744  0.00  0.00    +0.221 A 
ATOM     11  N   UNL     1      -2.557  -8.135  -0.455  0.00  0.00    -0.196 NA
ATOM     12  N   UNL     1      -1.290 -10.043  -0.874  0.00  0.00    -0.284 N 
ATOM     13  H   UNL     1      -2.091 -10.588  -0.833  0.00  0.00    +0.155 HD
ENDROOT
BRANCH   3  14
ATOM     14  C   UNL     1      -5.008  -7.075   0.143  0.00  0.00    +0.048 A 
ATOM     15  C   UNL     1      -6.034  -7.061  -0.794  0.00  0.00    +0.026 A 
ATOM     16  C   UNL     1      -7.130  -7.882  -0.625  0.00  0.00    +0.006 A 
ATOM     17  C   UNL     1      -7.212  -8.721   0.474  0.00  0.00    -0.044 A 
ATOM     18  C   UNL     1      -6.193  -8.737   1.409  0.00  0.00    -0.042 A 
ATOM     19  C   UNL     1      -5.089  -7.920   1.241  0.00  0.00    +0.030 A 
ATOM     20  C   UNL     1      -6.520  -9.729   2.505  0.00  0.00    +0.036 C 
ATOM     21  C   UNL     1      -8.035  -9.993   2.373  0.00  0.00    +0.009 C 
ATOM     22  C   UNL     1      -8.293  -9.701   0.879  0.00  0.00    +0.036 C 
ENDBRANCH   3  14
BRANCH  12  23
ATOM     23  C   UNL     1      -0.043 -10.647  -1.064  0.00  0.00    +0.034 A 
ATOM     24  C   UNL     1       1.073 -10.166  -0.391  0.00  0.00    +0.023 A 
ATOM     25  C   UNL     1       2.303 -10.764  -0.581  0.00  0.00    +0.005 A 
ATOM     26  C   UNL     1       2.424 -11.841  -1.440  0.00  0.00    -0.046 A 
ATOM     27  C   UNL     1       1.315 -12.322  -2.112  0.00  0.00    +0.005 A 
ATOM     28  C   UNL     1       0.081 -11.732  -1.922  0.00  0.00    +0.023 A 
BRANCH  26  29
ATOM     29  C   UNL     1       3.768 -12.490  -1.646  0.00  0.00    +0.050 C 
BRANCH  29  30
ATOM     30  C   UNL     1       3.954 -13.613  -0.623  0.00  0.00    +0.089 C 
BRANCH  30  31
ATOM     31  N   UNL     1       5.264 -14.246  -0.824  0.00  0.00    -0.306 NA
ATOM     32  C   UNL     1       5.319 -14.945  -2.115  0.00  0.00    +0.066 C 
ATOM     33  C   UNL     1       6.716 -15.539  -2.312  0.00  0.00    -0.064 C 
ATOM     34  N   UNL     1       7.009 -16.473  -1.217  0.00  0.00    +0.379 N 
ATOM     35  C   UNL     1       6.975 -15.756   0.064  0.00  0.00    -0.064 C 
ATOM     36  C   UNL     1       5.580 -15.164   0.280  0.00  0.00    +0.066 C 
ATOM     37  C   UNL     1       8.343 -17.056  -1.415  0.00  0.00    -0.096 C 
ATOM     38  H   UNL     1       6.319 -17.209  -1.209  0.00  0.00    -0.082 HD
ENDBRANCH  30  31
ENDBRANCH  29  30
ENDBRANCH  26  29
ENDBRANCH  12  23
BRANCH   1  40
ATOM     39  N   UNL     1      -2.218  -1.722  -0.117  0.00  0.00    -0.190 N 
ATOM     40  C   UNL     1      -3.222  -2.585   0.131  0.00  0.00    +0.272 C 
ATOM     41  O   UNL     1      -4.308  -2.169   0.489  0.00  0.00    -0.268 OA
ATOM     42  H   UNL     1      -1.334  -2.056  -0.336  0.00  0.00    +0.183 HD
BRANCH  39  43
ATOM     43  O   UNL     1      -2.453  -0.327  -0.059  0.00  0.00    -0.280 OA
BRANCH  43  45
ATOM     44  C   UNL     1      -1.670   1.951  -0.253  0.00  0.00    +0.036 C 
ATOM     45  C   UNL     1      -1.301   0.469  -0.344  0.00  0.00    +0.187 C 
ENDBRANCH  43  45
ENDBRANCH  39  43
ENDBRANCH   1  40
TORSDOF 8
