REMARK  Name = CHEMBL436651
REMARK  3 active torsions:
REMARK  status: ('A' for Active; 'I' for Inactive)
REMARK    1  A    between atoms: C_1  and  C_2
REMARK    2  A    between atoms: C_4  and  C_7
REMARK    3  A    between atoms: C_8  and  C_20
REMARK                            x       y       z     vdW  Elec       q    Type
REMARK                         _______ _______ _______ _____ _____    ______ ____
ROOT
ATOM      1  C   UNL     1       0.028  -3.320  -1.578  0.00  0.00    +0.092 A 
ATOM      2  C   UNL     1       1.140  -4.168  -1.608  0.00  0.00    +0.003 A 
ATOM      3  C   UNL     1       1.110  -5.323  -2.517  0.00  0.00    +0.008 A 
ATOM      4  C   UNL     1       2.195  -6.202  -2.586  0.00  0.00    +0.030 A 
ATOM      5  C   UNL     1       2.148  -7.279  -3.443  0.00  0.00    +0.042 A 
ATOM      6  C   UNL     1       1.030  -7.495  -4.238  0.00  0.00    +0.022 A 
ATOM      7  C   UNL     1      -0.047  -6.637  -4.181  0.00  0.00    +0.028 A 
ATOM      8  C   UNL     1      -0.022  -5.542  -3.322  0.00  0.00    +0.050 A 
ATOM      9  N   UNL     1      -1.100  -4.681  -3.263  0.00  0.00    -0.321 N 
ATOM     10  H   UNL     1      -1.871  -4.852  -3.827  0.00  0.00    +0.169 HD
ATOM     11  C   UNL     1      -1.115  -3.618  -2.442  0.00  0.00    +0.261 A 
ATOM     12  O   UNL     1      -2.091  -2.890  -2.420  0.00  0.00    -0.267 OA
ATOM     13 CL   UNL     1       3.494  -8.373  -3.531  0.00  0.00    -0.084 Cl
ENDROOT
BRANCH   2  14
ATOM     14  C   UNL     1       2.308  -3.910  -0.754  0.00  0.00    -0.043 C 
ATOM     15  C   UNL     1       3.015  -2.825  -0.998  0.00  0.00    -0.023 C 
ATOM     16  C   UNL     1       4.178  -2.390  -0.153  0.00  0.00    +0.027 C 
ATOM     17  C   UNL     1       5.166  -3.547   0.035  0.00  0.00    +0.004 C 
ATOM     18  C   UNL     1       4.796  -4.278   1.324  0.00  0.00    +0.001 C 
ATOM     19  C   UNL     1       3.279  -4.223   1.528  0.00  0.00    +0.005 C 
ATOM     20  C   UNL     1       2.604  -4.900   0.336  0.00  0.00    +0.035 C 
ENDBRANCH   2  14
BRANCH   1  24
ATOM     21  C   UNL     1      -0.084   1.458   0.113  0.00  0.00    +0.069 C 
ATOM     22  C   UNL     1      -0.044  -0.048   0.079  0.00  0.00    +0.081 A 
ATOM     23  C   UNL     1      -0.033  -0.841  -1.075  0.00  0.00    +0.076 A 
ATOM     24  C   UNL     1       0.005  -2.149  -0.687  0.00  0.00    +0.173 A 
ATOM     25  O   UNL     1       0.017  -2.174   0.660  0.00  0.00    -0.354 OA
ATOM     26  N   UNL     1      -0.009  -0.835   1.119  0.00  0.00    -0.083 NA
ENDBRANCH   1  24
TORSDOF 2
