REMARK  Name = CHEMBL398238
REMARK  5 active torsions:
REMARK  status: ('A' for Active; 'I' for Inactive)
REMARK    1  A    between atoms: C_3  and  N_19
REMARK    2  A    between atoms: C_4  and  N_13
REMARK    3  A    between atoms: C_6  and  N_7
REMARK    4  A    between atoms: C_20  and  C_22
REMARK    5  A    between atoms: C_25  and  C_27
REMARK                            x       y       z     vdW  Elec       q    Type
REMARK                         _______ _______ _______ _____ _____    ______ ____
ROOT
ATOM      1  C   UNL     1      -0.020   1.395   0.031  0.00  0.00    +0.023 A 
ATOM      2  C   UNL     1       1.169   2.101   0.015  0.00  0.00    +0.027 A 
ATOM      3  C   UNL     1       2.378   1.423  -0.004  0.00  0.00    +0.055 A 
ATOM      4  C   UNL     1       2.391   0.028  -0.005  0.00  0.00    +0.053 A 
ATOM      5  C   UNL     1       1.194  -0.672   0.011  0.00  0.00    +0.046 A 
ATOM      6  C   UNL     1      -0.007   0.012   0.030  0.00  0.00    +0.015 A 
ENDROOT
BRANCH   6   7
ATOM      7  N   UNL     1      -1.213  -0.696   0.047  0.00  0.00    -0.393 NA
ATOM      8  C   UNL     1      -1.998  -0.351  -1.145  0.00  0.00    +0.085 C 
ATOM      9  C   UNL     1      -3.282  -1.183  -1.172  0.00  0.00    +0.017 C 
ATOM     10  C   UNL     1      -4.103  -0.886   0.086  0.00  0.00    +0.003 C 
ATOM     11  C   UNL     1      -3.248  -1.179   1.322  0.00  0.00    +0.017 C 
ATOM     12  C   UNL     1      -1.966  -0.347   1.258  0.00  0.00    +0.085 C 
ATOM     13  H   UNL     1      -1.020  -1.686   0.045  0.00  0.00    +0.126 HD
ENDBRANCH   6   7
BRANCH   4  14
ATOM     14  N   UNL     1       3.607  -0.663  -0.024  0.00  0.00    -0.328 N 
ATOM     15  C   UNL     1       4.274  -1.039   1.230  0.00  0.00    +0.105 C 
ATOM     16  C   UNL     1       4.560  -2.544   1.204  0.00  0.00    +0.019 C 
ATOM     17  C   UNL     1       5.355  -2.887  -0.058  0.00  0.00    +0.003 C 
ATOM     18  C   UNL     1       4.529  -2.531  -1.296  0.00  0.00    +0.019 C 
ATOM     19  C   UNL     1       4.239  -1.031  -1.298  0.00  0.00    +0.105 C 
ENDBRANCH   4  14
BRANCH   3  20
ATOM     20  N   UNL     1       3.583   2.136  -0.021  0.00  0.00    -0.277 N 
ATOM     21  C   UNL     1       3.664   3.306  -0.685  0.00  0.00    +0.284 C 
ATOM     22  O   UNL     1       2.671   3.783  -1.202  0.00  0.00    -0.266 OA
ATOM     23  H   UNL     1       4.359   1.788   0.445  0.00  0.00    +0.155 HD
BRANCH  21  24
ATOM     24  C   UNL     1       4.953   4.006  -0.787  0.00  0.00    +0.191 A 
ATOM     25  C   UNL     1       5.166   5.195  -1.425  0.00  0.00    +0.056 A 
ATOM     26  C   UNL     1       6.525   5.499  -1.280  0.00  0.00    +0.061 A 
ATOM     27  C   UNL     1       7.087   4.473  -0.554  0.00  0.00    +0.205 A 
ATOM     28  O   UNL     1       6.119   3.585  -0.262  0.00  0.00    -0.440 OA
BRANCH  27  29
ATOM     29  C   UNL     1       8.463   4.371  -0.171  0.00  0.00    +0.138 C 
ATOM     30  N   UNL     1       9.555   4.290   0.132  0.00  0.00    -0.188 NA
ENDBRANCH  27  29
ENDBRANCH  21  24
ENDBRANCH   3  20
TORSDOF 5
