REMARK  Name = CHEMBL252834
REMARK  6 active torsions:
REMARK  status: ('A' for Active; 'I' for Inactive)
REMARK    1  A    between atoms: C_1  and  C_2
REMARK    2  A    between atoms: C_9  and  N_21
REMARK    3  A    between atoms: C_12  and  N_14
REMARK    4  A    between atoms: N_17  and  C_20
REMARK    5  A    between atoms: C_22  and  C_24
REMARK    6  A    between atoms: C_27  and  C_29
REMARK                            x       y       z     vdW  Elec       q    Type
REMARK                         _______ _______ _______ _____ _____    ______ ____
ROOT
ATOM      1  C   UNL     1      -0.868  -0.033  -2.440  0.00  0.00    +0.007 C 
ATOM      2  C   UNL     1      -0.311  -0.726  -1.195  0.00  0.00    -0.011 C 
ATOM      3  C   UNL     1      -0.277  -2.239  -1.426  0.00  0.00    +0.022 C 
ATOM      4  C   UNL     1       0.314  -2.927  -0.192  0.00  0.00    +0.107 C 
ATOM      5  N   UNL     1      -0.453  -2.514   0.992  0.00  0.00    -0.315 N 
ATOM      6  C   UNL     1      -0.624  -1.079   1.258  0.00  0.00    +0.107 C 
ATOM      7  C   UNL     1      -1.204  -0.412   0.007  0.00  0.00    +0.022 C 
ATOM      8  C   UNL     1      -1.006  -3.464   1.845  0.00  0.00    +0.122 A 
ATOM      9  C   UNL     1      -0.231  -4.010   2.869  0.00  0.00    +0.072 A 
ATOM     10  C   UNL     1      -0.796  -4.958   3.714  0.00  0.00    +0.030 A 
ATOM     11  C   UNL     1      -2.115  -5.327   3.506  0.00  0.00    +0.043 A 
ATOM     12  C   UNL     1      -2.829  -4.743   2.468  0.00  0.00    +0.100 A 
ATOM     13  N   UNL     1      -2.266  -3.838   1.681  0.00  0.00    -0.330 N 
ATOM     14  H   UNL     1      -2.788  -3.442   0.965  0.00  0.00    +0.168 HD
ENDROOT
BRANCH  12  15
ATOM     15  N   UNL     1      -4.155  -5.110   2.254  0.00  0.00    -0.314 N 
ATOM     16  C   UNL     1      -4.901  -4.602   1.092  0.00  0.00    +0.122 C 
ATOM     17  C   UNL     1      -5.538  -5.791   0.365  0.00  0.00    +0.103 C 
ATOM     18  N   UNL     1      -6.333  -6.575   1.320  0.00  0.00    -0.302 NA
ATOM     19  C   UNL     1      -5.487  -7.148   2.375  0.00  0.00    +0.103 C 
ATOM     20  C   UNL     1      -4.846  -6.019   3.181  0.00  0.00    +0.122 C 
ATOM     21  C   UNL     1      -7.098  -7.623   0.631  0.00  0.00    +0.105 C 
ENDBRANCH  12  15
BRANCH   9  22
ATOM     22  N   UNL     1       1.102  -3.607   3.042  0.00  0.00    -0.276 N 
ATOM     23  C   UNL     1       1.688  -3.721   4.251  0.00  0.00    +0.284 C 
ATOM     24  O   UNL     1       1.034  -4.076   5.213  0.00  0.00    -0.266 OA
ATOM     25  H   UNL     1       1.601  -3.247   2.293  0.00  0.00    +0.155 HD
BRANCH  23  26
ATOM     26  C   UNL     1       3.118  -3.417   4.405  0.00  0.00    +0.191 A 
ATOM     27  C   UNL     1       3.829  -3.498   5.569  0.00  0.00    +0.056 A 
ATOM     28  C   UNL     1       5.144  -3.124   5.272  0.00  0.00    +0.061 A 
ATOM     29  C   UNL     1       5.180  -2.829   3.927  0.00  0.00    +0.205 A 
ATOM     30  O   UNL     1       3.947  -3.017   3.422  0.00  0.00    -0.440 OA
BRANCH  29  31
ATOM     31  C   UNL     1       6.332  -2.400   3.192  0.00  0.00    +0.138 C 
ATOM     32  N   UNL     1       7.245  -2.060   2.609  0.00  0.00    -0.188 NA
ENDBRANCH  29  31
ENDBRANCH  23  26
ENDBRANCH   9  22
TORSDOF 4
