REMARK  Name = CHEMBL252822
REMARK  5 active torsions:
REMARK  status: ('A' for Active; 'I' for Inactive)
REMARK    1  A    between atoms: C_3  and  N_21
REMARK    2  A    between atoms: C_4  and  N_15
REMARK    3  A    between atoms: C_6  and  N_7
REMARK    4  A    between atoms: C_22  and  C_24
REMARK    5  A    between atoms: C_27  and  C_29
REMARK                            x       y       z     vdW  Elec       q    Type
REMARK                         _______ _______ _______ _____ _____    ______ ____
ROOT
ATOM      1  C   UNL     1       0.055   1.138   0.276  0.00  0.00    +0.025 A 
ATOM      2  C   UNL     1       1.184   1.928   0.171  0.00  0.00    +0.027 A 
ATOM      3  C   UNL     1       2.437   1.341   0.086  0.00  0.00    +0.055 A 
ATOM      4  C   UNL     1       2.558  -0.049   0.108  0.00  0.00    +0.053 A 
ATOM      5  C   UNL     1       1.425  -0.839   0.214  0.00  0.00    +0.048 A 
ATOM      6  C   UNL     1       0.172  -0.245   0.298  0.00  0.00    +0.032 A 
ENDROOT
BRANCH   6   7
ATOM      7  N   UNL     1      -0.973  -1.042   0.405  0.00  0.00    -0.327 N 
ATOM      8  C   UNL     1      -2.296  -0.418   0.356  0.00  0.00    +0.128 C 
ATOM      9  C   UNL     1      -3.040  -0.896  -0.895  0.00  0.00    +0.184 C 
ATOM     10  S   UNL     1      -3.156  -2.709  -0.852  0.00  0.00    -0.028 S 
ATOM     11  O   UNL     1      -3.618  -3.163  -2.117  0.00  0.00    -0.174 OA
ATOM     12  O   UNL     1      -3.865  -3.089   0.320  0.00  0.00    -0.174 OA
ATOM     13  C   UNL     1      -1.417  -3.199  -0.662  0.00  0.00    +0.184 C 
ATOM     14  C   UNL     1      -0.835  -2.491   0.560  0.00  0.00    +0.128 C 
ENDBRANCH   6   7
BRANCH   4  15
ATOM     15  N   UNL     1       3.821  -0.643   0.022  0.00  0.00    -0.328 N 
ATOM     16  C   UNL     1       4.594  -0.939   1.237  0.00  0.00    +0.105 C 
ATOM     17  C   UNL     1       4.995  -2.417   1.218  0.00  0.00    +0.019 C 
ATOM     18  C   UNL     1       5.733  -2.725  -0.086  0.00  0.00    +0.003 C 
ATOM     19  C   UNL     1       4.804  -2.462  -1.274  0.00  0.00    +0.019 C 
ATOM     20  C   UNL     1       4.399  -0.990  -1.284  0.00  0.00    +0.105 C 
ENDBRANCH   4  15
BRANCH   3  21
ATOM     21  N   UNL     1       3.582   2.144  -0.022  0.00  0.00    -0.277 N 
ATOM     22  C   UNL     1       3.531   3.302  -0.710  0.00  0.00    +0.284 C 
ATOM     23  O   UNL     1       2.474   3.691  -1.169  0.00  0.00    -0.266 OA
ATOM     24  H   UNL     1       4.411   1.866   0.399  0.00  0.00    +0.155 HD
BRANCH  22  25
ATOM     25  C   UNL     1       4.753   4.095  -0.905  0.00  0.00    +0.191 A 
ATOM     26  C   UNL     1       4.834   5.284  -1.575  0.00  0.00    +0.056 A 
ATOM     27  C   UNL     1       6.171   5.693  -1.522  0.00  0.00    +0.061 A 
ATOM     28  C   UNL     1       6.855   4.728  -0.816  0.00  0.00    +0.205 A 
ATOM     29  O   UNL     1       5.979   3.776  -0.448  0.00  0.00    -0.440 OA
BRANCH  28  30
ATOM     30  C   UNL     1       8.257   4.740  -0.520  0.00  0.00    +0.138 C 
ATOM     31  N   UNL     1       9.368   4.749  -0.286  0.00  0.00    -0.188 NA
ENDBRANCH  28  30
ENDBRANCH  22  25
ENDBRANCH   3  21
TORSDOF 5
