REMARK  Name = CHEMBL523802
REMARK  8 active torsions:
REMARK  status: ('A' for Active; 'I' for Inactive)
REMARK    1  A    between atoms: C_1  and  C_2
REMARK    2  A    between atoms: C_2  and  C_3
REMARK    3  A    between atoms: C_3  and  C_4
REMARK    4  A    between atoms: C_4  and  N_5
REMARK    5  A    between atoms: C_12  and  C_26
REMARK    6  A    between atoms: N_14  and  C_17
REMARK    7  A    between atoms: N_28  and  O_29
REMARK    8  A    between atoms: O_29  and  C_30
REMARK                            x       y       z     vdW  Elec       q    Type
REMARK                         _______ _______ _______ _____ _____    ______ ____
ROOT
ATOM      1  N   UNL     1      -3.437  -2.288   0.143  0.00  0.00    -0.313 N 
ATOM      2  C   UNL     1      -3.469  -3.667   0.105  0.00  0.00    +0.217 A 
ATOM      3  N   UNL     1      -2.319  -4.333   0.104  0.00  0.00    -0.222 NA
ATOM      4  C   UNL     1      -2.297  -5.654   0.069  0.00  0.00    +0.129 A 
ATOM      5  C   UNL     1      -3.513  -6.338   0.033  0.00  0.00    +0.083 A 
ATOM      6  C   UNL     1      -3.580  -7.806  -0.007  0.00  0.00    +0.205 A 
ATOM      7  O   UNL     1      -2.571  -8.490  -0.010  0.00  0.00    -0.286 OA
ATOM      8  C   UNL     1      -4.922  -8.415  -0.043  0.00  0.00    +0.102 A 
ATOM      9  C   UNL     1      -6.027  -7.592  -0.037  0.00  0.00    +0.110 A 
ATOM     10  N   UNL     1      -5.923  -6.252  -0.001  0.00  0.00    -0.300 N 
ATOM     11  C   UNL     1      -4.714  -5.602   0.035  0.00  0.00    +0.154 A 
ATOM     12  N   UNL     1      -4.644  -4.276   0.076  0.00  0.00    -0.196 NA
ATOM     13  H   UNL     1      -4.266  -1.783   0.148  0.00  0.00    +0.149 HD
ENDROOT
BRANCH  10  14
ATOM     14  C   UNL     1      -7.096  -5.488   0.002  0.00  0.00    +0.048 A 
ATOM     15  C   UNL     1      -7.963  -5.545   1.086  0.00  0.00    +0.026 A 
ATOM     16  C   UNL     1      -9.118  -4.790   1.082  0.00  0.00    +0.006 A 
ATOM     17  C   UNL     1      -9.418  -3.975   0.002  0.00  0.00    -0.044 A 
ATOM     18  C   UNL     1      -8.557  -3.916  -1.078  0.00  0.00    -0.042 A 
ATOM     19  C   UNL     1      -7.394  -4.667  -1.076  0.00  0.00    +0.030 A 
ATOM     20  C   UNL     1      -9.105  -2.962  -2.118  0.00  0.00    +0.036 C 
ATOM     21  C   UNL     1     -10.595  -2.782  -1.756  0.00  0.00    +0.009 C 
ATOM     22  C   UNL     1     -10.603  -3.064  -0.238  0.00  0.00    +0.036 C 
ENDBRANCH  10  14
BRANCH   8  23
ATOM     23  C   UNL     1      -5.079  -9.877  -0.084  0.00  0.00    +0.272 C 
ATOM     24  O   UNL     1      -6.187 -10.372  -0.006  0.00  0.00    -0.268 OA
ATOM     25  N   UNL     1      -3.994 -10.668  -0.208  0.00  0.00    -0.191 N 
ATOM     26  H   UNL     1      -3.106 -10.279  -0.196  0.00  0.00    +0.183 HD
BRANCH  25  27
ATOM     27  O   UNL     1      -4.152 -12.068  -0.356  0.00  0.00    -0.283 OA
ATOM     28  C   UNL     1      -2.920 -12.782  -0.477  0.00  0.00    +0.226 C 
ENDBRANCH  25  27
ENDBRANCH   8  23
BRANCH   1  29
ATOM     29  C   UNL     1      -2.152  -1.585   0.175  0.00  0.00    +0.104 C 
BRANCH  29  30
ATOM     30  C   UNL     1      -2.397  -0.075   0.213  0.00  0.00    +0.018 C 
BRANCH  30  32
ATOM     31  C   UNL     1      -1.299   2.168   0.286  0.00  0.00    +0.004 C 
ATOM     32  C   UNL     1      -1.054   0.658   0.247  0.00  0.00    -0.002 C 
ENDBRANCH  30  32
ENDBRANCH  29  30
ENDBRANCH   1  29
TORSDOF 6
