REMARK  Name = CHEMBL257665
REMARK  5 active torsions:
REMARK  status: ('A' for Active; 'I' for Inactive)
REMARK    1  A    between atoms: C_1  and  N_2
REMARK    2  A    between atoms: N_5  and  C_8
REMARK    3  A    between atoms: C_11  and  N_14
REMARK    4  A    between atoms: C_21  and  C_33
REMARK    5  A    between atoms: N_23  and  C_26
REMARK                            x       y       z     vdW  Elec       q    Type
REMARK                         _______ _______ _______ _____ _____    ______ ____
ROOT
ATOM      1  N   UNL     1      -2.023  -6.885   3.954  0.00  0.00    -0.284 N 
ATOM      2  C   UNL     1      -1.296  -7.330   5.040  0.00  0.00    +0.221 A 
ATOM      3  N   UNL     1      -0.123  -6.761   5.300  0.00  0.00    -0.222 NA
ATOM      4  C   UNL     1       0.610  -7.152   6.327  0.00  0.00    +0.129 A 
ATOM      5  C   UNL     1       0.125  -8.179   7.138  0.00  0.00    +0.083 A 
ATOM      6  C   UNL     1       0.874  -8.675   8.302  0.00  0.00    +0.204 A 
ATOM      7  O   UNL     1       1.957  -8.207   8.608  0.00  0.00    -0.286 OA
ATOM      8  C   UNL     1       0.258  -9.763   9.081  0.00  0.00    +0.100 A 
ATOM      9  C   UNL     1      -0.969 -10.252   8.686  0.00  0.00    +0.104 A 
ATOM     10  N   UNL     1      -1.622  -9.771   7.616  0.00  0.00    -0.328 N 
ATOM     11  C   UNL     1      -1.123  -8.761   6.835  0.00  0.00    +0.150 A 
ATOM     12  N   UNL     1      -1.796  -8.303   5.785  0.00  0.00    -0.196 NA
ATOM     13  H   UNL     1      -2.917  -7.227   3.796  0.00  0.00    +0.155 HD
ENDROOT
BRANCH  10  14
ATOM     14  C   UNL     1      -2.922 -10.351   7.268  0.00  0.00    +0.092 C 
ATOM     15  C   UNL     1      -4.056  -9.341   7.557  0.00  0.00    +0.029 C 
ATOM     16  C   UNL     1      -4.950 -10.046   8.623  0.00  0.00    -0.009 C 
ATOM     17  C   UNL     1      -5.643 -11.206   7.846  0.00  0.00    +0.004 C 
ATOM     18  C   UNL     1      -4.509 -12.216   7.558  0.00  0.00    +0.006 C 
ATOM     19  C   UNL     1      -3.237 -11.570   8.188  0.00  0.00    +0.012 C 
ATOM     20  C   UNL     1      -3.865 -10.844   9.429  0.00  0.00    +0.009 C 
ENDBRANCH  10  14
BRANCH   1  24
ATOM     21  C   UNL     1      -0.377  -4.071   1.353  0.00  0.00    +0.030 A 
ATOM     22  C   UNL     1       0.437  -5.024   1.951  0.00  0.00    +0.025 A 
ATOM     23  C   UNL     1      -0.108  -5.955   2.812  0.00  0.00    +0.025 A 
ATOM     24  C   UNL     1      -1.470  -5.939   3.080  0.00  0.00    +0.034 A 
ATOM     25  C   UNL     1      -2.284  -4.986   2.483  0.00  0.00    +0.025 A 
ATOM     26  C   UNL     1      -1.739  -4.051   1.626  0.00  0.00    +0.025 A 
BRANCH  21  31
ATOM     27  C   UNL     1       1.492  -1.917  -3.303  0.00  0.00    -0.096 C 
ATOM     28  N   UNL     1       1.143  -1.979  -1.877  0.00  0.00    +0.380 N 
ATOM     29  C   UNL     1       1.906  -3.057  -1.235  0.00  0.00    -0.060 C 
ATOM     30  C   UNL     1       1.630  -3.049   0.272  0.00  0.00    +0.086 C 
ATOM     31  N   UNL     1       0.175  -3.127   0.480  0.00  0.00    -0.333 N 
ATOM     32  C   UNL     1      -0.682  -2.185  -0.256  0.00  0.00    +0.086 C 
ATOM     33  C   UNL     1      -0.296  -2.233  -1.738  0.00  0.00    -0.060 C 
ATOM     34  H   UNL     1       1.372  -1.100  -1.437  0.00  0.00    -0.082 HD
ENDBRANCH  21  31
ENDBRANCH   1  24
BRANCH   8  35
ATOM     35  C   UNL     1       0.940 -10.319  10.260  0.00  0.00    +0.247 C 
ATOM     36  O   UNL     1       0.379 -11.145  10.955  0.00  0.00    -0.270 OA
ATOM     37  N   UNL     1       2.187  -9.913  10.571  0.00  0.00    -0.325 N 
ATOM     38  H   UNL     1       2.607  -9.202  10.061  0.00  0.00    +0.145 HD
ATOM     39  H   UNL     1       2.665 -10.331  11.304  0.00  0.00    +0.145 HD
ENDBRANCH   8  35
TORSDOF 4
