REMARK  Name = CHEMBL452664
REMARK  11 active torsions:
REMARK  status: ('A' for Active; 'I' for Inactive)
REMARK    1  A    between atoms: C_1  and  N_2
REMARK    2  A    between atoms: N_2  and  C_3
REMARK    3  A    between atoms: N_2  and  C_4
REMARK    4  A    between atoms: C_4  and  C_5
REMARK    5  A    between atoms: C_5  and  N_6
REMARK    6  A    between atoms: N_6  and  C_7
REMARK    7  A    between atoms: C_12  and  O_13
REMARK    8  A    between atoms: O_13  and  C_14
REMARK    9  A    between atoms: C_17  and  C_28
REMARK   10  A    between atoms: C_18  and  N_19
REMARK   11  A    between atoms: N_19  and  C_20
REMARK                            x       y       z     vdW  Elec       q    Type
REMARK                         _______ _______ _______ _____ _____    ______ ____
ROOT
ATOM      1  C   UNL     1       7.168  -2.794  -1.920  0.00  0.00    +0.070 A 
ATOM      2  C   UNL     1       6.781  -1.649  -1.260  0.00  0.00    +0.038 A 
ATOM      3  C   UNL     1       7.099  -0.395  -1.800  0.00  0.00    +0.024 A 
ATOM      4  C   UNL     1       7.814  -0.310  -3.019  0.00  0.00    +0.076 A 
ATOM      5  C   UNL     1       8.197  -1.490  -3.673  0.00  0.00    +0.076 A 
ATOM      6  C   UNL     1       7.881  -2.712  -3.125  0.00  0.00    +0.143 A 
ATOM      7  N   UNL     1       8.121   0.888  -3.539  0.00  0.00    -0.254 NA
ATOM      8  C   UNL     1       7.779   2.007  -2.954  0.00  0.00    +0.126 A 
ATOM      9  C   UNL     1       7.069   2.018  -1.743  0.00  0.00    +0.076 A 
ATOM     10  C   UNL     1       6.715   0.799  -1.144  0.00  0.00    +0.054 A 
ENDROOT
BRANCH   9  11
ATOM     11  C   UNL     1       6.699   3.293  -1.109  0.00  0.00    +0.245 C 
ATOM     12  O   UNL     1       6.175   3.297  -0.011  0.00  0.00    -0.270 OA
ATOM     13  N   UNL     1       6.940   4.457  -1.745  0.00  0.00    -0.325 N 
ATOM     14  H   UNL     1       7.358   4.453  -2.620  0.00  0.00    +0.145 HD
ATOM     15  H   UNL     1       6.696   5.297  -1.327  0.00  0.00    +0.145 HD
ENDBRANCH   9  11
BRANCH   1  16
ATOM     16  N   UNL     1       6.852  -4.047  -1.382  0.00  0.00    -0.343 N 
ATOM     17  H   UNL     1       7.127  -4.855  -1.843  0.00  0.00    +0.146 HD
BRANCH  16  18
ATOM     18  C   UNL     1       6.108  -4.137  -0.124  0.00  0.00    +0.083 C 
BRANCH  18  19
ATOM     19  C   UNL     1       5.896  -5.609   0.239  0.00  0.00    -0.061 C 
BRANCH  19  21
ATOM     20  C   UNL     1       3.801  -5.148   1.312  0.00  0.00    -0.097 C 
ATOM     21  N   UNL     1       5.149  -5.700   1.501  0.00  0.00    +0.377 N 
ATOM     22  C   UNL     1       5.050  -7.107   1.911  0.00  0.00    -0.097 C 
ATOM     23  H   UNL     1       5.631  -5.174   2.215  0.00  0.00    -0.083 HD
ENDBRANCH  19  21
ENDBRANCH  18  19
ENDBRANCH  16  18
ENDBRANCH   1  16
BRANCH   6  24
ATOM     24  O   UNL     1       8.260  -3.852  -3.761  0.00  0.00    -0.493 OA
ATOM     25  C   UNL     1       8.984  -3.703  -4.984  0.00  0.00    +0.277 C 
ENDBRANCH   6  24
BRANCH  10  26
ATOM     26  N   UNL     1       6.017   0.765   0.045  0.00  0.00    -0.312 N 
ATOM     27  H   UNL     1       5.048   0.728   0.037  0.00  0.00    +0.152 HD
BRANCH  26  28
ATOM     28  C   UNL     1       6.707   0.786   1.261  0.00  0.00    +0.051 A 
ATOM     29  C   UNL     1       8.084   0.963   1.277  0.00  0.00    +0.025 A 
ATOM     30  C   UNL     1       8.763   0.984   2.480  0.00  0.00    +0.003 A 
ATOM     31  C   UNL     1       8.073   0.829   3.668  0.00  0.00    +0.021 A 
ATOM     32  C   UNL     1       6.701   0.652   3.657  0.00  0.00    +0.061 A 
ATOM     33  C   UNL     1       6.014   0.636   2.457  0.00  0.00    +0.080 A 
ATOM     34 CL   UNL     1       4.292   0.421   2.443  0.00  0.00    -0.080 Cl
ATOM     35 CL   UNL     1       5.839   0.456   5.152  0.00  0.00    -0.082 Cl
ENDBRANCH  26  28
ENDBRANCH  10  26
TORSDOF 8
