REMARK  Name = CHEMBL251603
REMARK  5 active torsions:
REMARK  status: ('A' for Active; 'I' for Inactive)
REMARK    1  A    between atoms: C_1  and  N_2
REMARK    2  A    between atoms: N_5  and  C_8
REMARK    3  A    between atoms: C_13  and  N_14
REMARK    4  A    between atoms: C_15  and  C_17
REMARK    5  A    between atoms: C_20  and  N_22
REMARK                            x       y       z     vdW  Elec       q    Type
REMARK                         _______ _______ _______ _____ _____    ______ ____
ROOT
ATOM      1  C   UNL     1      -0.964  -3.619   1.792  0.00  0.00    +0.051 A 
ATOM      2  C   UNL     1      -0.740  -4.946   1.453  0.00  0.00    +0.025 A 
ATOM      3  C   UNL     1      -1.196  -5.956   2.279  0.00  0.00    +0.002 A 
ATOM      4  C   UNL     1      -1.875  -5.649   3.443  0.00  0.00    +0.002 A 
ATOM      5  C   UNL     1      -2.103  -4.330   3.789  0.00  0.00    +0.025 A 
ATOM      6  C   UNL     1      -1.644  -3.310   2.969  0.00  0.00    +0.055 A 
ENDROOT
BRANCH   1  11
ATOM      7  C   UNL     1      -0.019   1.448  -0.008  0.00  0.00    -0.096 C 
ATOM      8  N   UNL     1       0.005  -0.021  -0.006  0.00  0.00    +0.380 N 
ATOM      9  C   UNL     1      -1.372  -0.531  -0.007  0.00  0.00    -0.060 C 
ATOM     10  C   UNL     1      -1.349  -2.059  -0.121  0.00  0.00    +0.086 C 
ATOM     11  N   UNL     1      -0.503  -2.595   0.958  0.00  0.00    -0.332 N 
ATOM     12  C   UNL     1       0.840  -2.022   1.135  0.00  0.00    +0.086 C 
ATOM     13  C   UNL     1       0.714  -0.496   1.189  0.00  0.00    -0.060 C 
ATOM     14  H   UNL     1       0.483  -0.349  -0.832  0.00  0.00    -0.082 HD
ENDBRANCH   1  11
BRANCH   6  15
ATOM     15  N   UNL     1      -1.869  -1.973   3.321  0.00  0.00    -0.277 N 
ATOM     16  C   UNL     1      -3.007  -1.623   3.952  0.00  0.00    +0.284 C 
ATOM     17  O   UNL     1      -3.803  -2.480   4.289  0.00  0.00    -0.266 OA
ATOM     18  H   UNL     1      -1.204  -1.298   3.110  0.00  0.00    +0.155 HD
BRANCH  16  19
ATOM     19  C   UNL     1      -3.287  -0.211   4.231  0.00  0.00    +0.192 A 
ATOM     20  C   UNL     1      -4.393   0.277   4.865  0.00  0.00    +0.057 A 
ATOM     21  C   UNL     1      -4.245   1.672   4.917  0.00  0.00    +0.076 A 
ATOM     22  C   UNL     1      -3.070   1.970   4.321  0.00  0.00    +0.280 A 
ATOM     23  O   UNL     1      -2.493   0.832   3.913  0.00  0.00    -0.429 OA
BRANCH  22  24
ATOM     24  N   UNL     1      -2.510   3.330   4.151  0.00  0.00    +0.093 N 
ATOM     25  O   UNL     1      -3.118   4.290   4.563  0.00  0.00    -0.123 OA
ATOM     26  O   UNL     1      -1.445   3.480   3.599  0.00  0.00    -0.123 OA
ENDBRANCH  22  24
ENDBRANCH  16  19
ENDBRANCH   6  15
TORSDOF 4
