REMARK  Name = CHEMBL257665
REMARK  5 active torsions:
REMARK  status: ('A' for Active; 'I' for Inactive)
REMARK    1  A    between atoms: C_1  and  N_2
REMARK    2  A    between atoms: N_5  and  C_8
REMARK    3  A    between atoms: C_11  and  N_14
REMARK    4  A    between atoms: C_21  and  C_33
REMARK    5  A    between atoms: N_23  and  C_26
REMARK                            x       y       z     vdW  Elec       q    Type
REMARK                         _______ _______ _______ _____ _____    ______ ____
ROOT
ATOM      1  N   UNL     1      -2.971  -5.784   5.645  0.00  0.00    -0.284 N 
ATOM      2  C   UNL     1      -2.003  -6.512   6.308  0.00  0.00    +0.221 A 
ATOM      3  N   UNL     1      -0.840  -5.930   6.581  0.00  0.00    -0.222 NA
ATOM      4  C   UNL     1       0.117  -6.584   7.214  0.00  0.00    +0.129 A 
ATOM      5  C   UNL     1      -0.119  -7.907   7.592  0.00  0.00    +0.083 A 
ATOM      6  C   UNL     1       0.890  -8.708   8.300  0.00  0.00    +0.204 A 
ATOM      7  O   UNL     1       1.981  -8.248   8.587  0.00  0.00    -0.286 OA
ATOM      8  C   UNL     1       0.522 -10.092   8.646  0.00  0.00    +0.100 A 
ATOM      9  C   UNL     1      -0.727 -10.557   8.296  0.00  0.00    +0.104 A 
ATOM     10  N   UNL     1      -1.621  -9.792   7.649  0.00  0.00    -0.328 N 
ATOM     11  C   UNL     1      -1.364  -8.495   7.288  0.00  0.00    +0.150 A 
ATOM     12  N   UNL     1      -2.272  -7.762   6.653  0.00  0.00    -0.196 NA
ATOM     13  H   UNL     1      -3.856  -6.159   5.514  0.00  0.00    +0.155 HD
ENDROOT
BRANCH  10  14
ATOM     14  C   UNL     1      -2.926 -10.368   7.315  0.00  0.00    +0.092 C 
ATOM     15  C   UNL     1      -3.285 -11.499   8.306  0.00  0.00    +0.029 C 
ATOM     16  C   UNL     1      -4.595 -11.015   8.999  0.00  0.00    -0.009 C 
ATOM     17  C   UNL     1      -4.142  -9.828   9.903  0.00  0.00    +0.004 C 
ATOM     18  C   UNL     1      -3.783  -8.697   8.913  0.00  0.00    +0.006 C 
ATOM     19  C   UNL     1      -4.053  -9.307   7.504  0.00  0.00    +0.012 C 
ATOM     20  C   UNL     1      -5.277 -10.237   7.819  0.00  0.00    +0.009 C 
ENDBRANCH  10  14
BRANCH   1  24
ATOM     21  C   UNL     1      -2.089  -1.972   4.200  0.00  0.00    +0.030 A 
ATOM     22  C   UNL     1      -1.107  -2.955   4.213  0.00  0.00    +0.025 A 
ATOM     23  C   UNL     1      -1.399  -4.216   4.691  0.00  0.00    +0.025 A 
ATOM     24  C   UNL     1      -2.675  -4.503   5.160  0.00  0.00    +0.034 A 
ATOM     25  C   UNL     1      -3.656  -3.521   5.147  0.00  0.00    +0.025 A 
ATOM     26  C   UNL     1      -3.363  -2.258   4.674  0.00  0.00    +0.025 A 
BRANCH  21  31
ATOM     27  C   UNL     1      -1.369   2.073   0.605  0.00  0.00    -0.096 C 
ATOM     28  N   UNL     1      -1.412   1.410   1.915  0.00  0.00    +0.380 N 
ATOM     29  C   UNL     1      -0.463   0.290   1.926  0.00  0.00    -0.060 C 
ATOM     30  C   UNL     1      -0.422  -0.331   3.326  0.00  0.00    +0.086 C 
ATOM     31  N   UNL     1      -1.793  -0.694   3.716  0.00  0.00    -0.333 N 
ATOM     32  C   UNL     1      -2.845   0.326   3.580  0.00  0.00    +0.086 C 
ATOM     33  C   UNL     1      -2.771   0.916   2.168  0.00  0.00    -0.060 C 
ATOM     34  H   UNL     1      -1.157   2.071   2.634  0.00  0.00    -0.082 HD
ENDBRANCH  21  31
ENDBRANCH   1  24
BRANCH   8  35
ATOM     35  C   UNL     1       1.473 -10.964   9.355  0.00  0.00    +0.247 C 
ATOM     36  O   UNL     1       1.124 -12.067   9.729  0.00  0.00    -0.270 OA
ATOM     37  N   UNL     1       2.731 -10.540   9.588  0.00  0.00    -0.325 N 
ATOM     38  H   UNL     1       2.988  -9.634   9.355  0.00  0.00    +0.145 HD
ATOM     39  H   UNL     1       3.378 -11.140   9.990  0.00  0.00    +0.145 HD
ENDBRANCH   8  35
TORSDOF 4
