REMARK  Name = CHEMBL272738
REMARK  5 active torsions:
REMARK  status: ('A' for Active; 'I' for Inactive)
REMARK    1  A    between atoms: C_1  and  N_2
REMARK    2  A    between atoms: N_5  and  C_8
REMARK    3  A    between atoms: C_11  and  N_14
REMARK    4  A    between atoms: C_23  and  C_35
REMARK    5  A    between atoms: N_25  and  C_26
REMARK                            x       y       z     vdW  Elec       q    Type
REMARK                         _______ _______ _______ _____ _____    ______ ____
ROOT
ATOM      1  N   UNL     1      -2.212  -7.121   3.720  0.00  0.00    -0.299 N 
ATOM      2  C   UNL     1      -1.442  -7.579   4.778  0.00  0.00    +0.125 A 
ATOM      3  C   UNL     1      -0.287  -6.891   5.127  0.00  0.00    +0.070 A 
ATOM      4  C   UNL     1       0.477  -7.359   6.189  0.00  0.00    +0.062 A 
ATOM      5  C   UNL     1       0.036  -8.517   6.864  0.00  0.00    +0.064 A 
ATOM      6  C   UNL     1      -1.135  -9.149   6.451  0.00  0.00    +0.126 A 
ATOM      7  N   UNL     1      -1.827  -8.664   5.441  0.00  0.00    -0.239 NA
ATOM      8  C   UNL     1       0.836  -9.023   7.991  0.00  0.00    +0.203 A 
ATOM      9  O   UNL     1       0.503 -10.018   8.610  0.00  0.00    -0.286 OA
ATOM     10  C   UNL     1       2.055  -8.274   8.338  0.00  0.00    +0.100 A 
ATOM     11  C   UNL     1       2.385  -7.154   7.605  0.00  0.00    +0.108 A 
ATOM     12  N   UNL     1       1.631  -6.720   6.580  0.00  0.00    -0.315 N 
ATOM     13  H   UNL     1      -1.893  -6.388   3.170  0.00  0.00    +0.154 HD
ENDROOT
BRANCH  12  14
ATOM     14  C   UNL     1       2.035  -5.575   5.885  0.00  0.00    +0.047 A 
ATOM     15  C   UNL     1       1.294  -4.404   5.981  0.00  0.00    +0.026 A 
ATOM     16  C   UNL     1       1.697  -3.277   5.294  0.00  0.00    +0.006 A 
ATOM     17  C   UNL     1       2.838  -3.309   4.508  0.00  0.00    -0.044 A 
ATOM     18  C   UNL     1       3.578  -4.473   4.410  0.00  0.00    -0.042 A 
ATOM     19  C   UNL     1       3.180  -5.603   5.102  0.00  0.00    +0.030 A 
ATOM     20  C   UNL     1       4.766  -4.249   3.499  0.00  0.00    +0.036 C 
ATOM     21  C   UNL     1       4.433  -2.966   2.709  0.00  0.00    +0.009 C 
ATOM     22  C   UNL     1       3.479  -2.224   3.669  0.00  0.00    +0.036 C 
ENDBRANCH  12  14
BRANCH   1  26
ATOM     23  C   UNL     1      -5.897  -8.893   2.902  0.00  0.00    +0.030 A 
ATOM     24  C   UNL     1      -5.103  -8.431   1.861  0.00  0.00    +0.025 A 
ATOM     25  C   UNL     1      -3.882  -7.844   2.132  0.00  0.00    +0.025 A 
ATOM     26  C   UNL     1      -3.450  -7.716   3.445  0.00  0.00    +0.032 A 
ATOM     27  C   UNL     1      -4.244  -8.179   4.486  0.00  0.00    +0.025 A 
ATOM     28  C   UNL     1      -5.466  -8.760   4.216  0.00  0.00    +0.025 A 
BRANCH  23  33
ATOM     29  C   UNL     1      -9.526 -12.780   1.605  0.00  0.00    +0.105 C 
ATOM     30  N   UNL     1      -8.983 -11.464   1.968  0.00  0.00    -0.302 NA
ATOM     31  C   UNL     1      -8.066 -10.969   0.932  0.00  0.00    +0.103 C 
ATOM     32  C   UNL     1      -7.665  -9.527   1.257  0.00  0.00    +0.120 C 
ATOM     33  N   UNL     1      -7.134  -9.487   2.628  0.00  0.00    -0.327 N 
ATOM     34  C   UNL     1      -7.937 -10.089   3.703  0.00  0.00    +0.120 C 
ATOM     35  C   UNL     1      -8.328 -11.510   3.282  0.00  0.00    +0.103 C 
ENDBRANCH  23  33
ENDBRANCH   1  26
BRANCH  10  36
ATOM     36  C   UNL     1       2.909  -8.714   9.452  0.00  0.00    +0.247 C 
ATOM     37  O   UNL     1       3.968  -8.154   9.665  0.00  0.00    -0.270 OA
ATOM     38  N   UNL     1       2.519  -9.738  10.237  0.00  0.00    -0.325 N 
ATOM     39  H   UNL     1       1.711 -10.231  10.024  0.00  0.00    +0.145 HD
ATOM     40  H   UNL     1       3.045  -9.981  11.014  0.00  0.00    +0.145 HD
ENDBRANCH  10  36
TORSDOF 4
