REMARK  Name = CHEMBL448339
REMARK  9 active torsions:
REMARK  status: ('A' for Active; 'I' for Inactive)
REMARK    1  A    between atoms: C_1  and  C_2
REMARK    2  A    between atoms: C_2  and  N_3
REMARK    3  A    between atoms: C_7  and  C_9
REMARK    4  A    between atoms: C_7  and  O_41
REMARK    5  A    between atoms: C_13  and  N_15
REMARK    6  A    between atoms: C_22  and  C_36
REMARK    7  A    between atoms: N_24  and  C_27
REMARK    8  A    between atoms: N_38  and  O_39
REMARK    9  A    between atoms: O_39  and  C_40
REMARK                            x       y       z     vdW  Elec       q    Type
REMARK                         _______ _______ _______ _____ _____    ______ ____
ROOT
ATOM      1  N   UNL     1       0.387  -7.248  -1.897  0.00  0.00    -0.284 N 
ATOM      2  C   UNL     1       0.137  -8.597  -1.734  0.00  0.00    +0.221 A 
ATOM      3  N   UNL     1      -0.029  -9.072  -0.504  0.00  0.00    -0.222 NA
ATOM      4  C   UNL     1      -0.270 -10.355  -0.296  0.00  0.00    +0.129 A 
ATOM      5  C   UNL     1      -0.347 -11.205  -1.401  0.00  0.00    +0.083 A 
ATOM      6  C   UNL     1      -0.611 -12.644  -1.261  0.00  0.00    +0.205 A 
ATOM      7  O   UNL     1      -0.776 -13.157  -0.168  0.00  0.00    -0.286 OA
ATOM      8  C   UNL     1      -0.669 -13.438  -2.501  0.00  0.00    +0.102 A 
ATOM      9  C   UNL     1      -0.476 -12.803  -3.708  0.00  0.00    +0.110 A 
ATOM     10  N   UNL     1      -0.236 -11.483  -3.795  0.00  0.00    -0.300 N 
ATOM     11  C   UNL     1      -0.165 -10.669  -2.692  0.00  0.00    +0.154 A 
ATOM     12  N   UNL     1       0.068  -9.366  -2.809  0.00  0.00    -0.196 NA
ATOM     13  H   UNL     1       0.428  -6.867  -2.788  0.00  0.00    +0.155 HD
ENDROOT
BRANCH  10  14
ATOM     14  C   UNL     1      -0.050 -10.916  -5.062  0.00  0.00    +0.048 A 
ATOM     15  C   UNL     1      -1.097 -10.890  -5.974  0.00  0.00    +0.026 A 
ATOM     16  C   UNL     1      -0.908 -10.330  -7.220  0.00  0.00    +0.006 A 
ATOM     17  C   UNL     1       0.322  -9.793  -7.567  0.00  0.00    -0.044 A 
ATOM     18  C   UNL     1       1.366  -9.817  -6.661  0.00  0.00    -0.042 A 
ATOM     19  C   UNL     1       1.179 -10.373  -5.407  0.00  0.00    +0.030 A 
ATOM     20  C   UNL     1       2.591  -9.175  -7.275  0.00  0.00    +0.036 C 
ATOM     21  C   UNL     1       2.317  -9.151  -8.794  0.00  0.00    +0.009 C 
ATOM     22  C   UNL     1       0.775  -9.132  -8.851  0.00  0.00    +0.036 C 
ENDBRANCH  10  14
BRANCH   1  27
ATOM     23  C   UNL     1       0.323  -4.316   0.319  0.00  0.00    -0.016 A 
ATOM     24  C   UNL     1       0.963  -4.819   1.437  0.00  0.00    +0.006 A 
ATOM     25  C   UNL     1       1.412  -6.127   1.451  0.00  0.00    +0.002 A 
ATOM     26  C   UNL     1       1.222  -6.935   0.347  0.00  0.00    +0.023 A 
ATOM     27  C   UNL     1       0.580  -6.433  -0.777  0.00  0.00    +0.034 A 
ATOM     28  C   UNL     1       0.125  -5.120  -0.786  0.00  0.00    +0.029 A 
BRANCH  23  33
ATOM     29  N   UNL     1      -0.990  -1.070   1.727  0.00  0.00    +0.382 N 
ATOM     30  C   UNL     1       0.086  -0.181   1.275  0.00  0.00    -0.079 C 
ATOM     31  C   UNL     1       0.464  -0.523  -0.168  0.00  0.00    -0.016 C 
ATOM     32  C   UNL     1       0.939  -1.977  -0.235  0.00  0.00    +0.036 C 
ATOM     33  C   UNL     1      -0.164  -2.890   0.308  0.00  0.00    +0.076 C 
ATOM     34  C   UNL     1      -0.518  -2.460   1.734  0.00  0.00    -0.039 C 
ATOM     35  H   UNL     1      -1.272  -0.807   2.659  0.00  0.00    -0.082 HD
BRANCH  29  37
ATOM     36  C   UNL     1      -2.761   0.440   0.965  0.00  0.00    -0.017 C 
ATOM     37  C   UNL     1      -2.137  -0.949   0.818  0.00  0.00    -0.082 C 
ENDBRANCH  29  37
BRANCH  33  38
ATOM     38  O   UNL     1      -1.321  -2.786  -0.523  0.00  0.00    -0.386 OA
ATOM     39  H   UNL     1      -1.169  -3.040  -1.443  0.00  0.00    +0.211 HD
ENDBRANCH  33  38
ENDBRANCH  23  33
ENDBRANCH   1  27
BRANCH   8  40
ATOM     40  C   UNL     1      -0.929 -14.886  -2.450  0.00  0.00    +0.272 C 
ATOM     41  O   UNL     1      -1.070 -15.515  -3.482  0.00  0.00    -0.268 OA
ATOM     42  N   UNL     1      -1.011 -15.514  -1.261  0.00  0.00    -0.191 N 
ATOM     43  H   UNL     1      -0.972 -15.002  -0.438  0.00  0.00    +0.183 HD
BRANCH  42  44
ATOM     44  O   UNL     1      -1.154 -16.922  -1.213  0.00  0.00    -0.283 OA
ATOM     45  C   UNL     1      -1.229 -17.454   0.112  0.00  0.00    +0.226 C 
ENDBRANCH  42  44
ENDBRANCH   8  40
TORSDOF 7
