REMARK  Name = CHEMBL250187
REMARK  4 active torsions:
REMARK  status: ('A' for Active; 'I' for Inactive)
REMARK    1  A    between atoms: C_4  and  N_18
REMARK    2  A    between atoms: C_5  and  N_7
REMARK    3  A    between atoms: C_8  and  C_10
REMARK    4  A    between atoms: C_13  and  N_15
REMARK                            x       y       z     vdW  Elec       q    Type
REMARK                         _______ _______ _______ _____ _____    ______ ____
ROOT
ATOM      1  C   UNL     1      -0.028   1.372   0.040  0.00  0.00    +0.002 A 
ATOM      2  C   UNL     1       1.158   2.085   0.031  0.00  0.00    +0.002 A 
ATOM      3  C   UNL     1       2.369   1.419   0.005  0.00  0.00    +0.025 A 
ATOM      4  C   UNL     1       2.399   0.038  -0.012  0.00  0.00    +0.059 A 
ATOM      5  C   UNL     1       1.211  -0.681  -0.003  0.00  0.00    +0.056 A 
ATOM      6  C   UNL     1      -0.004  -0.008   0.022  0.00  0.00    +0.025 A 
ENDROOT
BRANCH   4   7
ATOM      7  N   UNL     1       3.586  -0.614  -0.038  0.00  0.00    -0.281 N 
ATOM      8  C   UNL     1       4.174  -0.926  -1.214  0.00  0.00    +0.080 C 
ATOM      9  C   UNL     1       4.395  -2.170  -1.560  0.00  0.00    +0.016 C 
ATOM     10  C   UNL     1       3.938  -3.291  -0.737  0.00  0.00    +0.001 C 
ATOM     11  C   UNL     1       3.954  -3.312   0.563  0.00  0.00    +0.001 C 
ATOM     12  C   UNL     1       4.435  -2.218   1.410  0.00  0.00    +0.016 C 
ATOM     13  C   UNL     1       4.207  -0.959   1.111  0.00  0.00    +0.080 C 
ENDBRANCH   4   7
BRANCH   5  14
ATOM     14  N   UNL     1       1.238  -2.079  -0.021  0.00  0.00    -0.277 N 
ATOM     15  C   UNL     1       0.186  -2.767  -0.508  0.00  0.00    +0.284 C 
ATOM     16  O   UNL     1      -0.743  -2.174  -1.024  0.00  0.00    -0.266 OA
ATOM     17  H   UNL     1       2.013  -2.553   0.318  0.00  0.00    +0.155 HD
BRANCH  15  18
ATOM     18  C   UNL     1       0.162  -4.230  -0.416  0.00  0.00    +0.192 A 
ATOM     19  C   UNL     1      -0.834  -5.046  -0.872  0.00  0.00    +0.057 A 
ATOM     20  C   UNL     1      -0.444  -6.362  -0.577  0.00  0.00    +0.076 A 
ATOM     21  C   UNL     1       0.758  -6.292   0.037  0.00  0.00    +0.280 A 
ATOM     22  O   UNL     1       1.122  -5.006   0.128  0.00  0.00    -0.429 OA
BRANCH  21  23
ATOM     23  N   UNL     1       1.545  -7.447   0.525  0.00  0.00    +0.093 N 
ATOM     24  O   UNL     1       1.120  -8.571   0.385  0.00  0.00    -0.123 OA
ATOM     25  O   UNL     1       2.613  -7.268   1.062  0.00  0.00    -0.123 OA
ENDBRANCH  21  23
ENDBRANCH  15  18
ENDBRANCH   5  14
TORSDOF 4
