REMARK  Name = CHEMBL480646
REMARK  9 active torsions:
REMARK  status: ('A' for Active; 'I' for Inactive)
REMARK    1  A    between atoms: C_1  and  O_2
REMARK    2  A    between atoms: O_2  and  C_3
REMARK    3  A    between atoms: C_8  and  O_9
REMARK    4  A    between atoms: O_9  and  C_10
REMARK    5  A    between atoms: C_10  and  C_11
REMARK    6  A    between atoms: C_11  and  N_12
REMARK    7  A    between atoms: C_17  and  N_24
REMARK    8  A    between atoms: C_18  and  C_21
REMARK    9  A    between atoms: N_24  and  C_25
REMARK                            x       y       z     vdW  Elec       q    Type
REMARK                         _______ _______ _______ _____ _____    ______ ____
ROOT
ATOM      1  C   UNL     1      -2.549  -1.652   3.327  0.00  0.00    +0.164 A 
ATOM      2  C   UNL     1      -3.034  -0.739   2.418  0.00  0.00    +0.077 A 
ATOM      3  C   UNL     1      -3.720  -1.188   1.279  0.00  0.00    +0.076 A 
ATOM      4  C   UNL     1      -3.902  -2.579   1.087  0.00  0.00    +0.026 A 
ATOM      5  C   UNL     1      -3.398  -3.488   2.028  0.00  0.00    +0.061 A 
ATOM      6  C   UNL     1      -2.729  -3.027   3.126  0.00  0.00    +0.163 A 
ATOM      7  C   UNL     1      -4.595  -3.028  -0.062  0.00  0.00    +0.054 A 
ATOM      8  C   UNL     1      -5.070  -2.060  -0.960  0.00  0.00    +0.076 A 
ATOM      9  C   UNL     1      -4.844  -0.701  -0.689  0.00  0.00    +0.126 A 
ATOM     10  N   UNL     1      -4.200  -0.313   0.382  0.00  0.00    -0.254 NA
ENDROOT
BRANCH   8  11
ATOM     11  C   UNL     1      -5.797  -2.465  -2.174  0.00  0.00    +0.245 C 
ATOM     12  O   UNL     1      -6.077  -3.635  -2.353  0.00  0.00    -0.270 OA
ATOM     13  N   UNL     1      -6.154  -1.539  -3.086  0.00  0.00    -0.325 N 
ATOM     14  H   UNL     1      -5.931  -0.606  -2.943  0.00  0.00    +0.145 HD
ATOM     15  H   UNL     1      -6.633  -1.806  -3.886  0.00  0.00    +0.145 HD
ENDBRANCH   8  11
BRANCH   1  17
ATOM     16  C   UNL     1      -1.735   0.198   4.577  0.00  0.00    +0.277 C 
ATOM     17  O   UNL     1      -1.885  -1.215   4.429  0.00  0.00    -0.491 OA
ENDBRANCH   1  17
BRANCH   7  18
ATOM     18  N   UNL     1      -4.795  -4.372  -0.292  0.00  0.00    -0.313 N 
ATOM     19  H   UNL     1      -4.119  -4.892  -0.754  0.00  0.00    +0.152 HD
BRANCH  18  20
ATOM     20  C   UNL     1      -5.975  -4.987   0.140  0.00  0.00    +0.033 A 
ATOM     21  C   UNL     1      -7.003  -4.221   0.674  0.00  0.00    +0.026 A 
ATOM     22  C   UNL     1      -8.167  -4.830   1.100  0.00  0.00    +0.041 A 
ATOM     23  C   UNL     1      -8.310  -6.204   0.995  0.00  0.00    +0.142 A 
ATOM     24  C   UNL     1      -7.286  -6.970   0.463  0.00  0.00    +0.078 A 
ATOM     25  C   UNL     1      -6.121  -6.364   0.030  0.00  0.00    +0.046 A 
ATOM     26 CL   UNL     1      -7.468  -8.692   0.334  0.00  0.00    -0.081 Cl
ATOM     27  F   UNL     1      -9.450  -6.797   1.412  0.00  0.00    -0.204 F 
ENDBRANCH  18  20
ENDBRANCH   7  18
BRANCH   6  28
ATOM     28  O   UNL     1      -2.236  -3.911   4.035  0.00  0.00    -0.490 OA
BRANCH  28  29
ATOM     29  C   UNL     1      -2.452  -5.299   3.772  0.00  0.00    +0.211 C 
BRANCH  29  30
ATOM     30  C   UNL     1      -1.832  -6.133   4.895  0.00  0.00    -0.037 C 
BRANCH  30  31
ATOM     31  N   UNL     1      -2.539  -5.861   6.154  0.00  0.00    +0.382 N 
ATOM     32  C   UNL     1      -3.920  -6.404   6.094  0.00  0.00    -0.079 C 
ATOM     33  C   UNL     1      -4.307  -6.554   7.586  0.00  0.00    -0.020 C 
ATOM     34  C   UNL     1      -2.986  -7.019   8.241  0.00  0.00    -0.020 C 
ATOM     35  C   UNL     1      -1.877  -6.567   7.273  0.00  0.00    -0.079 C 
ATOM     36  H   UNL     1      -2.561  -4.868   6.334  0.00  0.00    -0.082 HD
ENDBRANCH  30  31
ENDBRANCH  29  30
ENDBRANCH  28  29
ENDBRANCH   6  28
TORSDOF 8
