REMARK  Name = CHEMBL526639
REMARK  4 active torsions:
REMARK  status: ('A' for Active; 'I' for Inactive)
REMARK    1  A    between atoms: C_1  and  C_2
REMARK    2  A    between atoms: C_5  and  C_18
REMARK    3  A    between atoms: C_7  and  C_8
REMARK    4  A    between atoms: N_20  and  C_21
REMARK                            x       y       z     vdW  Elec       q    Type
REMARK                         _______ _______ _______ _____ _____    ______ ____
ROOT
ATOM      1  C   UNL     1      -0.018   1.503   0.010  0.00  0.00    +0.044 C 
ATOM      2  C   UNL     1       0.002  -0.004   0.002  0.00  0.00    -0.043 A 
ATOM      3  C   UNL     1       0.006  -0.686  -1.199  0.00  0.00    +0.005 A 
ATOM      4  C   UNL     1       0.024  -2.067  -1.216  0.00  0.00    +0.013 A 
ATOM      5  C   UNL     1       0.039  -2.781  -0.016  0.00  0.00    +0.037 A 
ATOM      6  C   UNL     1       0.036  -2.097   1.199  0.00  0.00    +0.021 A 
ATOM      7  C   UNL     1       0.023  -0.706   1.207  0.00  0.00    -0.014 A 
ENDROOT
BRANCH   7   8
ATOM      8  C   UNL     1       0.025   0.030   2.495  0.00  0.00    -0.017 A 
ATOM      9  C   UNL     1       0.944   1.072   2.699  0.00  0.00    +0.009 A 
ATOM     10  C   UNL     1       0.969   1.762   3.870  0.00  0.00    +0.009 A 
ATOM     11  C   UNL     1       0.065   1.433   4.892  0.00  0.00    -0.015 A 
ATOM     12  C   UNL     1       0.049   2.117   6.122  0.00  0.00    +0.028 A 
ATOM     13  C   UNL     1      -0.857   1.742   7.067  0.00  0.00    +0.111 A 
ATOM     14  N   UNL     1      -1.719   0.756   6.860  0.00  0.00    -0.263 NA
ATOM     15  C   UNL     1      -1.762   0.075   5.739  0.00  0.00    +0.119 A 
ATOM     16  C   UNL     1      -0.869   0.382   4.698  0.00  0.00    +0.001 A 
ATOM     17  C   UNL     1      -0.881  -0.314   3.481  0.00  0.00    +0.018 A 
ENDBRANCH   7   8
BRANCH   5  18
ATOM     18  C   UNL     1       0.058  -4.259  -0.034  0.00  0.00    +0.244 C 
ATOM     19  O   UNL     1       0.071  -4.880   1.012  0.00  0.00    -0.270 OA
ATOM     20  N   UNL     1       0.061  -4.919  -1.209  0.00  0.00    -0.308 N 
ATOM     21  H   UNL     1       0.051  -4.424  -2.043  0.00  0.00    +0.149 HD
BRANCH  20  22
ATOM     22  C   UNL     1       0.080  -6.384  -1.226  0.00  0.00    +0.073 C 
ATOM     23  C   UNL     1       1.021  -7.066  -2.222  0.00  0.00    +0.024 C 
ATOM     24  C   UNL     1      -0.490  -7.083  -2.462  0.00  0.00    +0.024 C 
ENDBRANCH  20  22
ENDBRANCH   5  18
TORSDOF 3
