REMARK  Name = CHEMBL257665
REMARK  5 active torsions:
REMARK  status: ('A' for Active; 'I' for Inactive)
REMARK    1  A    between atoms: C_1  and  N_2
REMARK    2  A    between atoms: N_5  and  C_8
REMARK    3  A    between atoms: C_11  and  N_14
REMARK    4  A    between atoms: C_21  and  C_33
REMARK    5  A    between atoms: N_23  and  C_26
REMARK                            x       y       z     vdW  Elec       q    Type
REMARK                         _______ _______ _______ _____ _____    ______ ____
ROOT
ATOM      1  N   UNL     1      -1.978  -7.072   3.596  0.00  0.00    -0.284 N 
ATOM      2  C   UNL     1      -1.278  -7.542   4.689  0.00  0.00    +0.221 A 
ATOM      3  N   UNL     1      -0.127  -6.959   5.008  0.00  0.00    -0.222 NA
ATOM      4  C   UNL     1       0.580  -7.372   6.045  0.00  0.00    +0.129 A 
ATOM      5  C   UNL     1       0.091  -8.439   6.802  0.00  0.00    +0.083 A 
ATOM      6  C   UNL     1       0.813  -8.961   7.971  0.00  0.00    +0.204 A 
ATOM      7  O   UNL     1       1.874  -8.483   8.330  0.00  0.00    -0.286 OA
ATOM      8  C   UNL     1       0.194 -10.090   8.689  0.00  0.00    +0.100 A 
ATOM      9  C   UNL     1      -1.007 -10.589   8.236  0.00  0.00    +0.104 A 
ATOM     10  N   UNL     1      -1.635 -10.083   7.162  0.00  0.00    -0.328 N 
ATOM     11  C   UNL     1      -1.133  -9.035   6.436  0.00  0.00    +0.150 A 
ATOM     12  N   UNL     1      -1.781  -8.552   5.381  0.00  0.00    -0.196 NA
ATOM     13  H   UNL     1      -2.859  -7.426   3.395  0.00  0.00    +0.155 HD
ENDROOT
BRANCH  10  14
ATOM     14  C   UNL     1      -2.910 -10.675   6.751  0.00  0.00    +0.092 C 
ATOM     15  C   UNL     1      -4.075  -9.700   7.037  0.00  0.00    +0.029 C 
ATOM     16  C   UNL     1      -4.988 -10.462   8.046  0.00  0.00    -0.009 C 
ATOM     17  C   UNL     1      -5.630 -11.607   7.205  0.00  0.00    +0.004 C 
ATOM     18  C   UNL     1      -4.465 -12.582   6.919  0.00  0.00    +0.006 C 
ATOM     19  C   UNL     1      -3.229 -11.934   7.614  0.00  0.00    +0.012 C 
ATOM     20  C   UNL     1      -3.913 -11.267   8.859  0.00  0.00    +0.009 C 
ENDBRANCH  10  14
BRANCH   1  24
ATOM     21  C   UNL     1      -0.309  -4.131   1.155  0.00  0.00    +0.030 A 
ATOM     22  C   UNL     1       0.505  -5.089   1.745  0.00  0.00    +0.025 A 
ATOM     23  C   UNL     1      -0.047  -6.062   2.553  0.00  0.00    +0.025 A 
ATOM     24  C   UNL     1      -1.418  -6.084   2.776  0.00  0.00    +0.034 A 
ATOM     25  C   UNL     1      -2.232  -5.126   2.186  0.00  0.00    +0.025 A 
ATOM     26  C   UNL     1      -1.679  -4.149   1.383  0.00  0.00    +0.025 A 
BRANCH  21  31
ATOM     27  C   UNL     1       1.673  -1.752  -3.359  0.00  0.00    +0.105 C 
ATOM     28  N   UNL     1       1.261  -1.931  -1.961  0.00  0.00    -0.302 NA
ATOM     29  C   UNL     1       2.039  -2.996  -1.314  0.00  0.00    +0.103 C 
ATOM     30  C   UNL     1       1.709  -3.030   0.182  0.00  0.00    +0.120 C 
ATOM     31  N   UNL     1       0.251  -3.144   0.336  0.00  0.00    -0.327 N 
ATOM     32  C   UNL     1      -0.603  -2.195  -0.394  0.00  0.00    +0.120 C 
ATOM     33  C   UNL     1      -0.182  -2.194  -1.867  0.00  0.00    +0.103 C 
ENDBRANCH  21  31
ENDBRANCH   1  24
BRANCH   8  34
ATOM     34  C   UNL     1       0.850 -10.675   9.870  0.00  0.00    +0.247 C 
ATOM     35  O   UNL     1       0.284 -11.537  10.515  0.00  0.00    -0.270 OA
ATOM     36  N   UNL     1       2.077 -10.255  10.236  0.00  0.00    -0.325 N 
ATOM     37  H   UNL     1       2.497  -9.518   9.767  0.00  0.00    +0.145 HD
ATOM     38  H   UNL     1       2.539 -10.690  10.970  0.00  0.00    +0.145 HD
ENDBRANCH   8  34
TORSDOF 4
