REMARK  Name = CHEMBL258365
REMARK  6 active torsions:
REMARK  status: ('A' for Active; 'I' for Inactive)
REMARK    1  A    between atoms: C_1  and  C_2
REMARK    2  A    between atoms: C_2  and  O_3
REMARK    3  A    between atoms: O_3  and  C_4
REMARK    4  A    between atoms: C_4  and  C_6
REMARK    5  A    between atoms: N_9  and  C_24
REMARK    6  A    between atoms: N_17  and  C_18
REMARK                            x       y       z     vdW  Elec       q    Type
REMARK                         _______ _______ _______ _____ _____    ______ ____
ROOT
ATOM      1  C   UNL     1       1.713  -2.358  -2.748  0.00  0.00    +0.213 A 
ATOM      2  C   UNL     1       1.884  -3.797  -3.000  0.00  0.00    +0.290 A 
ATOM      3  O   UNL     1       1.480  -4.616  -2.195  0.00  0.00    -0.265 OA
ATOM      4  N   UNL     1       2.495  -4.200  -4.136  0.00  0.00    -0.258 N 
ATOM      5  C   UNL     1       2.939  -3.251  -5.025  0.00  0.00    +0.171 A 
ATOM      6  C   UNL     1       2.755  -1.875  -4.745  0.00  0.00    +0.126 A 
ATOM      7  N   UNL     1       2.147  -1.479  -3.626  0.00  0.00    -0.231 NA
ATOM      8  C   UNL     1       3.226  -0.936  -5.685  0.00  0.00    +0.145 A 
ATOM      9  N   UNL     1       3.815  -1.377  -6.778  0.00  0.00    -0.220 NA
ATOM     10  C   UNL     1       3.968  -2.679  -7.004  0.00  0.00    +0.221 A 
ATOM     11  N   UNL     1       3.543  -3.601  -6.153  0.00  0.00    -0.194 NA
ATOM     12  N   UNL     1       4.591  -3.083  -8.166  0.00  0.00    -0.284 N 
ATOM     13  H   UNL     1       4.635  -4.026  -8.389  0.00  0.00    +0.155 HD
ENDROOT
BRANCH  12  14
ATOM     14  C   UNL     1       5.159  -2.134  -9.021  0.00  0.00    +0.034 A 
ATOM     15  C   UNL     1       5.754  -0.993  -8.498  0.00  0.00    +0.023 A 
ATOM     16  C   UNL     1       6.314  -0.058  -9.345  0.00  0.00    +0.002 A 
ATOM     17  C   UNL     1       6.282  -0.256 -10.714  0.00  0.00    +0.000 A 
ATOM     18  C   UNL     1       5.690  -1.390 -11.238  0.00  0.00    +0.002 A 
ATOM     19  C   UNL     1       5.133  -2.333 -10.396  0.00  0.00    +0.023 A 
ENDBRANCH  12  14
BRANCH   4  20
ATOM     20  C   UNL     1       2.672  -5.562  -4.404  0.00  0.00    +0.052 A 
ATOM     21  C   UNL     1       1.576  -6.414  -4.433  0.00  0.00    +0.026 A 
ATOM     22  C   UNL     1       1.754  -7.758  -4.697  0.00  0.00    +0.002 A 
ATOM     23  C   UNL     1       3.023  -8.255  -4.933  0.00  0.00    +0.000 A 
ATOM     24  C   UNL     1       4.116  -7.410  -4.904  0.00  0.00    +0.002 A 
ATOM     25  C   UNL     1       3.944  -6.064  -4.646  0.00  0.00    +0.026 A 
ENDBRANCH   4  20
BRANCH   1  26
ATOM     26  C   UNL     1       1.049  -1.901  -1.512  0.00  0.00    +0.363 C 
ATOM     27  O   UNL     1       0.648  -2.712  -0.702  0.00  0.00    -0.243 OA
BRANCH  26  28
ATOM     28  O   UNL     1       0.887  -0.583  -1.283  0.00  0.00    -0.460 OA
BRANCH  28  30
ATOM     29  C   UNL     1       0.143   1.314   0.017  0.00  0.00    +0.048 C 
ATOM     30  C   UNL     1       0.235  -0.211  -0.067  0.00  0.00    +0.229 C 
ENDBRANCH  28  30
ENDBRANCH  26  28
ENDBRANCH   1  26
TORSDOF 5
