REMARK  Name = CHEMBL261699
REMARK  7 active torsions:
REMARK  status: ('A' for Active; 'I' for Inactive)
REMARK    1  A    between atoms: C_1  and  C_2
REMARK    2  A    between atoms: N_5  and  C_8
REMARK    3  A    between atoms: C_10  and  C_24
REMARK    4  A    between atoms: C_13  and  N_14
REMARK    5  A    between atoms: C_15  and  C_17
REMARK    6  A    between atoms: C_20  and  C_22
REMARK    7  A    between atoms: C_25  and  C_26
REMARK                            x       y       z     vdW  Elec       q    Type
REMARK                         _______ _______ _______ _____ _____    ______ ____
ROOT
ATOM      1  C   UNL     1      -1.075  -3.502   1.993  0.00  0.00    +0.052 A 
ATOM      2  C   UNL     1      -0.912  -4.854   1.757  0.00  0.00    +0.033 A 
ATOM      3  C   UNL     1      -1.414  -5.786   2.673  0.00  0.00    -0.023 A 
ATOM      4  C   UNL     1      -2.079  -5.344   3.824  0.00  0.00    +0.010 A 
ATOM      5  C   UNL     1      -2.238  -3.996   4.053  0.00  0.00    +0.026 A 
ATOM      6  C   UNL     1      -1.735  -3.069   3.147  0.00  0.00    +0.055 A 
ENDROOT
BRANCH   1  11
ATOM      7  C   UNL     1      -0.028   1.510  -0.009  0.00  0.00    +0.007 C 
ATOM      8  C   UNL     1      -0.002  -0.020  -0.008  0.00  0.00    -0.011 C 
ATOM      9  C   UNL     1      -1.437  -0.553   0.004  0.00  0.00    +0.022 C 
ATOM     10  C   UNL     1      -1.408  -2.085  -0.030  0.00  0.00    +0.105 C 
ATOM     11  N   UNL     1      -0.575  -2.567   1.081  0.00  0.00    -0.328 N 
ATOM     12  C   UNL     1       0.793  -2.047   1.215  0.00  0.00    +0.105 C 
ATOM     13  C   UNL     1       0.739  -0.516   1.235  0.00  0.00    +0.022 C 
ENDBRANCH   1  11
BRANCH   6  14
ATOM     14  N   UNL     1      -1.895  -1.705   3.387  0.00  0.00    -0.277 N 
ATOM     15  C   UNL     1      -3.014  -1.252   3.988  0.00  0.00    +0.284 C 
ATOM     16  O   UNL     1      -3.847  -2.040   4.395  0.00  0.00    -0.266 OA
ATOM     17  H   UNL     1      -1.201  -1.081   3.122  0.00  0.00    +0.155 HD
BRANCH  15  18
ATOM     18  C   UNL     1      -3.227   0.193   4.151  0.00  0.00    +0.191 A 
ATOM     19  C   UNL     1      -4.311   0.777   4.744  0.00  0.00    +0.056 A 
ATOM     20  C   UNL     1      -4.112   2.161   4.687  0.00  0.00    +0.061 A 
ATOM     21  C   UNL     1      -2.904   2.364   4.056  0.00  0.00    +0.205 A 
ATOM     22  O   UNL     1      -2.385   1.162   3.746  0.00  0.00    -0.440 OA
BRANCH  21  23
ATOM     23  C   UNL     1      -2.303   3.635   3.783  0.00  0.00    +0.138 C 
ATOM     24  N   UNL     1      -1.826   4.643   3.566  0.00  0.00    -0.188 NA
ENDBRANCH  21  23
ENDBRANCH  15  18
ENDBRANCH   6  14
BRANCH   3  25
ATOM     25  C   UNL     1      -1.244  -7.224   2.428  0.00  0.00    +0.015 C 
ATOM     26  C   UNL     1      -1.730  -8.124   3.314  0.00  0.00    +0.096 C 
BRANCH  26  27
ATOM     27  C   UNL     1      -1.567  -9.508   3.078  0.00  0.00    +0.380 C 
ATOM     28  O   UNL     1      -0.985  -9.893   2.070  0.00  0.00    -0.241 OA
ATOM     29  O   UNL     1      -2.007 -10.322   3.880  0.00  0.00    -0.241 OA
ENDBRANCH  26  27
ENDBRANCH   3  25
TORSDOF 6
