REMARK  Name = CHEMBL398237
REMARK  9 active torsions:
REMARK  status: ('A' for Active; 'I' for Inactive)
REMARK    1  A    between atoms: C_1  and  C_2
REMARK    2  A    between atoms: N_5  and  C_8
REMARK    3  A    between atoms: C_10  and  N_24
REMARK    4  A    between atoms: C_13  and  N_14
REMARK    5  A    between atoms: C_15  and  C_17
REMARK    6  A    between atoms: C_20  and  C_22
REMARK    7  A    between atoms: N_27  and  C_30
REMARK    8  A    between atoms: C_30  and  C_31
REMARK    9  A    between atoms: C_31  and  O_32
REMARK                            x       y       z     vdW  Elec       q    Type
REMARK                         _______ _______ _______ _____ _____    ______ ____
ROOT
ATOM      1  C   UNL     1      -0.687  -3.765   1.435  0.00  0.00    +0.037 A 
ATOM      2  C   UNL     1      -0.157  -4.489   0.386  0.00  0.00    +0.046 A 
ATOM      3  C   UNL     1      -0.142  -5.877   0.437  0.00  0.00    +0.032 A 
ATOM      4  C   UNL     1      -0.660  -6.536   1.544  0.00  0.00    +0.025 A 
ATOM      5  C   UNL     1      -1.189  -5.813   2.594  0.00  0.00    +0.027 A 
ATOM      6  C   UNL     1      -1.199  -4.425   2.545  0.00  0.00    +0.054 A 
ENDROOT
BRANCH   1  11
ATOM      7  C   UNL     1      -0.148   1.712   0.233  0.00  0.00    +0.007 C 
ATOM      8  C   UNL     1      -0.063   0.185   0.174  0.00  0.00    -0.011 C 
ATOM      9  C   UNL     1      -1.476  -0.405   0.140  0.00  0.00    +0.020 C 
ATOM     10  C   UNL     1      -1.386  -1.932   0.161  0.00  0.00    +0.085 C 
ATOM     11  N   UNL     1      -0.701  -2.368   1.384  0.00  0.00    -0.392 NA
ATOM     12  C   UNL     1       0.678  -1.865   1.389  0.00  0.00    +0.085 C 
ATOM     13  C   UNL     1       0.667  -0.335   1.415  0.00  0.00    +0.020 C 
ATOM     14  H   UNL     1      -1.192  -2.009   2.189  0.00  0.00    +0.126 HD
ENDBRANCH   1  11
BRANCH   3  15
ATOM     15  N   UNL     1       0.394  -6.610  -0.627  0.00  0.00    -0.327 N 
ATOM     16  C   UNL     1       0.312  -8.079  -0.648  0.00  0.00    +0.120 C 
ATOM     17  C   UNL     1      -0.269  -8.514  -1.998  0.00  0.00    +0.103 C 
ATOM     18  N   UNL     1       0.522  -7.920  -3.083  0.00  0.00    -0.297 NA
ATOM     19  C   UNL     1       0.443  -6.453  -3.059  0.00  0.00    +0.103 C 
ATOM     20  C   UNL     1       1.049  -5.933  -1.757  0.00  0.00    +0.120 C 
BRANCH  18  21
ATOM     21  C   UNL     1       0.106  -8.449  -4.389  0.00  0.00    +0.112 C 
BRANCH  21  22
ATOM     22  C   UNL     1       1.103  -8.005  -5.461  0.00  0.00    +0.171 C 
BRANCH  22  23
ATOM     23  O   UNL     1       2.377  -8.600  -5.201  0.00  0.00    -0.394 OA
ATOM     24  H   UNL     1       3.060  -8.362  -5.843  0.00  0.00    +0.209 HD
ENDBRANCH  22  23
ENDBRANCH  21  22
ENDBRANCH  18  21
ENDBRANCH   3  15
BRANCH   6  25
ATOM     25  N   UNL     1      -1.732  -3.690   3.612  0.00  0.00    -0.277 N 
ATOM     26  C   UNL     1      -2.654  -4.249   4.420  0.00  0.00    +0.284 C 
ATOM     27  O   UNL     1      -3.098  -5.352   4.166  0.00  0.00    -0.266 OA
ATOM     28  H   UNL     1      -1.437  -2.780   3.768  0.00  0.00    +0.155 HD
BRANCH  26  29
ATOM     29  C   UNL     1      -3.122  -3.525   5.611  0.00  0.00    +0.191 A 
ATOM     30  C   UNL     1      -4.045  -3.981   6.510  0.00  0.00    +0.056 A 
ATOM     31  C   UNL     1      -4.197  -2.985   7.481  0.00  0.00    +0.061 A 
ATOM     32  C   UNL     1      -3.354  -1.954   7.130  0.00  0.00    +0.205 A 
ATOM     33  O   UNL     1      -2.710  -2.304   6.001  0.00  0.00    -0.440 OA
BRANCH  32  34
ATOM     34  C   UNL     1      -3.187  -0.725   7.845  0.00  0.00    +0.138 C 
ATOM     35  N   UNL     1      -3.054   0.250   8.413  0.00  0.00    -0.188 NA
ENDBRANCH  32  34
ENDBRANCH  26  29
ENDBRANCH   6  25
TORSDOF 8
