REMARK  Name = CHEMBL497350
REMARK  10 active torsions:
REMARK  status: ('A' for Active; 'I' for Inactive)
REMARK    1  A    between atoms: C_1  and  C_2
REMARK    2  A    between atoms: C_5  and  N_21
REMARK    3  A    between atoms: C_7  and  C_8
REMARK    4  A    between atoms: C_11  and  C_15
REMARK    5  A    between atoms: C_13  and  C_14
REMARK    6  A    between atoms: C_18  and  C_20
REMARK    7  A    between atoms: C_22  and  C_24
REMARK    8  A    between atoms: C_27  and  C_30
REMARK    9  A    between atoms: C_30  and  N_31
REMARK   10  A    between atoms: N_34  and  C_37
REMARK                            x       y       z     vdW  Elec       q    Type
REMARK                         _______ _______ _______ _____ _____    ______ ____
ROOT
ATOM      1  C   UNL     1      -0.021   1.502   0.059  0.00  0.00    +0.044 C 
ATOM      2  C   UNL     1      -0.002  -0.004   0.032  0.00  0.00    -0.043 A 
ATOM      3  C   UNL     1       0.756  -0.701   0.952  0.00  0.00    +0.006 A 
ATOM      4  C   UNL     1       0.776  -2.083   0.932  0.00  0.00    +0.023 A 
ATOM      5  C   UNL     1       0.034  -2.779  -0.015  0.00  0.00    +0.034 A 
ATOM      6  C   UNL     1      -0.731  -2.087  -0.942  0.00  0.00    +0.032 A 
ATOM      7  C   UNL     1      -0.755  -0.694  -0.917  0.00  0.00    -0.013 A 
ENDROOT
BRANCH   7   8
ATOM      8  C   UNL     1      -1.574   0.052  -1.902  0.00  0.00    -0.015 A 
ATOM      9  C   UNL     1      -2.965  -0.056  -1.877  0.00  0.00    +0.009 A 
ATOM     10  C   UNL     1      -3.726   0.637  -2.790  0.00  0.00    +0.014 A 
ATOM     11  C   UNL     1      -3.106   1.449  -3.743  0.00  0.00    +0.039 A 
ATOM     12  C   UNL     1      -1.714   1.557  -3.768  0.00  0.00    +0.017 A 
ATOM     13  C   UNL     1      -0.954   0.867  -2.850  0.00  0.00    -0.042 A 
ATOM     14  C   UNL     1       0.548   0.988  -2.872  0.00  0.00    +0.044 C 
BRANCH  11  15
ATOM     15  C   UNL     1      -3.923   2.193  -4.725  0.00  0.00    +0.248 A 
ATOM     16  N   UNL     1      -3.473   2.982  -5.672  0.00  0.00    -0.107 NA
ATOM     17  N   UNL     1      -4.468   3.458  -6.335  0.00  0.00    -0.112 NA
ATOM     18  C   UNL     1      -5.583   2.996  -5.840  0.00  0.00    +0.215 A 
ATOM     19  O   UNL     1      -5.268   2.182  -4.818  0.00  0.00    -0.421 OA
ATOM     20  C   UNL     1      -6.972   3.311  -6.331  0.00  0.00    +0.111 C 
ENDBRANCH  11  15
ENDBRANCH   7   8
BRANCH   5  21
ATOM     21  N   UNL     1       0.058  -4.177  -0.032  0.00  0.00    -0.281 N 
ATOM     22  C   UNL     1      -0.041  -4.838  -1.203  0.00  0.00    +0.248 C 
ATOM     23  O   UNL     1      -0.055  -4.221  -2.250  0.00  0.00    -0.270 OA
ATOM     24  H   UNL     1       0.146  -4.671   0.798  0.00  0.00    +0.155 HD
BRANCH  22  25
ATOM     25  C   UNL     1      -0.134  -6.314  -1.213  0.00  0.00    +0.037 A 
ATOM     26  C   UNL     1      -0.124  -7.025  -0.012  0.00  0.00    +0.013 A 
ATOM     27  C   UNL     1      -0.211  -8.402  -0.028  0.00  0.00    +0.002 A 
ATOM     28  C   UNL     1      -0.306  -9.077  -1.232  0.00  0.00    -0.064 A 
ATOM     29  C   UNL     1      -0.316  -8.379  -2.426  0.00  0.00    +0.002 A 
ATOM     30  C   UNL     1      -0.236  -7.001  -2.423  0.00  0.00    +0.013 A 
BRANCH  28  31
ATOM     31  C   UNL     1      -0.400 -10.582  -1.242  0.00  0.00    -0.043 C 
BRANCH  31  32
ATOM     32  N   UNL     1      -1.811 -10.985  -1.184  0.00  0.00    +0.384 N 
ATOM     33  C   UNL     1      -2.387 -10.567   0.101  0.00  0.00    -0.063 C 
ATOM     34  C   UNL     1      -3.862 -10.970   0.154  0.00  0.00    +0.065 C 
ATOM     35  N   UNL     1      -3.975 -12.427  -0.002  0.00  0.00    -0.309 NA
ATOM     36  C   UNL     1      -3.380 -12.863  -1.273  0.00  0.00    +0.065 C 
ATOM     37  C   UNL     1      -1.909 -12.444  -1.315  0.00  0.00    -0.063 C 
ATOM     38  C   UNL     1      -5.375 -12.861   0.100  0.00  0.00    +0.104 C 
ATOM     39  H   UNL     1      -2.318 -10.545  -1.938  0.00  0.00    -0.081 HD
ENDBRANCH  31  32
ENDBRANCH  28  31
ENDBRANCH  22  25
ENDBRANCH   5  21
TORSDOF 6
