REMARK  Name = CHEMBL270084
REMARK  6 active torsions:
REMARK  status: ('A' for Active; 'I' for Inactive)
REMARK    1  A    between atoms: C_1  and  C_2
REMARK    2  A    between atoms: C_6  and  N_8
REMARK    3  A    between atoms: N_11  and  C_12
REMARK    4  A    between atoms: C_15  and  C_18
REMARK    5  A    between atoms: C_21  and  O_28
REMARK    6  A    between atoms: O_28  and  C_29
REMARK                            x       y       z     vdW  Elec       q    Type
REMARK                         _______ _______ _______ _____ _____    ______ ____
ROOT
ATOM      1  C   UNL     1       0.211  -2.252   6.008  0.00  0.00    +0.035 A 
ATOM      2  C   UNL     1       0.094  -0.868   6.022  0.00  0.00    +0.024 A 
ATOM      3  C   UNL     1       0.089  -0.187   7.221  0.00  0.00    +0.010 A 
ATOM      4  C   UNL     1       0.200  -0.890   8.421  0.00  0.00    -0.017 A 
ATOM      5  C   UNL     1       0.317  -2.280   8.404  0.00  0.00    +0.010 A 
ATOM      6  C   UNL     1       0.317  -2.956   7.202  0.00  0.00    +0.024 A 
ENDROOT
BRANCH   4   7
ATOM      7  C   UNL     1       0.195  -0.161   9.710  0.00  0.00    -0.003 A 
ATOM      8  C   UNL     1      -0.863   0.678  10.036  0.00  0.00    +0.013 A 
ATOM      9  C   UNL     1      -0.868   1.359  11.240  0.00  0.00    +0.050 A 
ATOM     10  C   UNL     1       0.177   1.216  12.136  0.00  0.00    +0.165 A 
ATOM     11  C   UNL     1       1.250   0.378  11.832  0.00  0.00    +0.211 A 
ATOM     12  C   UNL     1       1.259  -0.319  10.617  0.00  0.00    +0.074 A 
ATOM     13  C   UNL     1       2.498  -1.107  10.597  0.00  0.00    +0.167 A 
ATOM     14  N   UNL     1       3.125  -0.870  11.717  0.00  0.00    -0.062 NA
ATOM     15  O   UNL     1       2.380   0.048  12.491  0.00  0.00    -0.349 OA
ATOM     16  N   UNL     1       2.923  -1.948   9.578  0.00  0.00    -0.340 N 
ATOM     17  H   UNL     1       2.424  -1.994   8.748  0.00  0.00    +0.144 HD
ATOM     18  H   UNL     1       3.720  -2.488   9.695  0.00  0.00    +0.144 HD
BRANCH  10  19
ATOM     19  O   UNL     1       0.158   1.892  13.315  0.00  0.00    -0.491 OA
ATOM     20  C   UNL     1      -0.971   2.733  13.563  0.00  0.00    +0.277 C 
ENDBRANCH  10  19
ENDBRANCH   4   7
BRANCH   1  24
ATOM     21  N   UNL     1       0.575  -2.956   2.484  0.00  0.00    -0.267 N 
ATOM     22  C   UNL     1       0.662  -2.330   3.674  0.00  0.00    +0.308 C 
ATOM     23  O   UNL     1       1.143  -1.216   3.741  0.00  0.00    -0.252 OA
ATOM     24  N   UNL     1       0.217  -2.940   4.790  0.00  0.00    -0.269 N 
ATOM     25  H   UNL     1       0.132  -3.817   2.420  0.00  0.00    +0.156 HD
ATOM     26  H   UNL     1      -0.100  -3.856   4.749  0.00  0.00    +0.156 HD
BRANCH  21  32
ATOM     27  C   UNL     1       1.615   1.096  -0.100  0.00  0.00    +0.044 C 
ATOM     28  C   UNL     1       1.641  -0.403   0.060  0.00  0.00    -0.049 A 
ATOM     29  C   UNL     1       2.206  -1.193  -0.923  0.00  0.00    +0.006 A 
ATOM     30  C   UNL     1       2.232  -2.568  -0.780  0.00  0.00    +0.040 A 
ATOM     31  C   UNL     1       1.692  -3.157   0.349  0.00  0.00    +0.145 A 
ATOM     32  C   UNL     1       1.123  -2.364   1.339  0.00  0.00    +0.070 A 
ATOM     33  C   UNL     1       1.104  -0.984   1.193  0.00  0.00    +0.029 A 
ATOM     34  F   UNL     1       1.717  -4.500   0.488  0.00  0.00    -0.204 F 
ENDBRANCH  21  32
ENDBRANCH   1  24
TORSDOF 4
