REMARK  Name = CHEMBL402337
REMARK  6 active torsions:
REMARK  status: ('A' for Active; 'I' for Inactive)
REMARK    1  A    between atoms: C_1  and  C_2
REMARK    2  A    between atoms: C_5  and  C_8
REMARK    3  A    between atoms: C_10  and  C_24
REMARK    4  A    between atoms: C_13  and  N_14
REMARK    5  A    between atoms: C_15  and  C_17
REMARK    6  A    between atoms: C_19  and  C_22
REMARK                            x       y       z     vdW  Elec       q    Type
REMARK                         _______ _______ _______ _____ _____    ______ ____
ROOT
ATOM      1  C   UNL     1      -0.480  -4.140   0.999  0.00  0.00    -0.001 A 
ATOM      2  C   UNL     1      -1.488  -4.669   1.805  0.00  0.00    +0.014 A 
ATOM      3  C   UNL     1      -1.555  -6.030   2.019  0.00  0.00    -0.044 A 
ATOM      4  C   UNL     1      -0.626  -6.875   1.437  0.00  0.00    +0.006 A 
ATOM      5  C   UNL     1       0.378  -6.365   0.637  0.00  0.00    +0.024 A 
ATOM      6  C   UNL     1       0.456  -4.999   0.407  0.00  0.00    +0.041 A 
ENDROOT
BRANCH   3   7
ATOM      7  C   UNL     1      -2.645  -6.600   2.890  0.00  0.00    +0.016 C 
ATOM      8  C   UNL     1      -2.019  -7.346   4.072  0.00  0.00    -0.011 C 
ATOM      9  C   UNL     1      -3.128  -7.988   4.908  0.00  0.00    -0.082 C 
ATOM     10  N   UNL     1      -3.886  -8.933   4.078  0.00  0.00    +0.379 N 
ATOM     11  C   UNL     1      -4.548  -8.213   2.983  0.00  0.00    -0.082 C 
ATOM     12  C   UNL     1      -3.494  -7.579   2.073  0.00  0.00    -0.011 C 
ATOM     13  H   UNL     1      -3.257  -9.622   3.694  0.00  0.00    -0.086 HD
ATOM     14  H   UNL     1      -4.582  -9.394   4.645  0.00  0.00    -0.086 HD
ENDBRANCH   3   7
BRANCH   1  19
ATOM     15  C   UNL     1      -0.037   1.520   0.029  0.00  0.00    +0.008 C 
ATOM     16  C   UNL     1      -0.012  -0.010   0.014  0.00  0.00    -0.010 C 
ATOM     17  C   UNL     1      -1.448  -0.549   0.040  0.00  0.00    +0.008 C 
ATOM     18  C   UNL     1      -1.401  -2.064  -0.168  0.00  0.00    +0.036 C 
ATOM     19  C   UNL     1      -0.403  -2.684   0.766  0.00  0.00    -0.042 C 
ATOM     20  C   UNL     1       0.533  -2.007   1.389  0.00  0.00    -0.022 C 
ATOM     21  C   UNL     1       0.722  -0.524   1.254  0.00  0.00    +0.030 C 
ENDBRANCH   1  19
BRANCH   6  22
ATOM     22  N   UNL     1       1.466  -4.481  -0.405  0.00  0.00    -0.278 N 
ATOM     23  C   UNL     1       2.688  -5.050  -0.406  0.00  0.00    +0.284 C 
ATOM     24  O   UNL     1       2.888  -6.062   0.237  0.00  0.00    -0.267 OA
ATOM     25  H   UNL     1       1.289  -3.712  -0.969  0.00  0.00    +0.155 HD
BRANCH  23  26
ATOM     26  C   UNL     1       3.783  -4.445  -1.188  0.00  0.00    +0.195 A 
ATOM     27  N   UNL     1       3.691  -3.355  -1.913  0.00  0.00    -0.213 NA
ATOM     28  C   UNL     1       4.881  -3.105  -2.480  0.00  0.00    +0.158 A 
ATOM     29  C   UNL     1       5.755  -4.097  -2.079  0.00  0.00    +0.123 A 
ATOM     30  N   UNL     1       5.062  -4.925  -1.270  0.00  0.00    -0.340 N 
ATOM     31  H   UNL     1       5.407  -5.716  -0.828  0.00  0.00    +0.167 HD
BRANCH  28  32
ATOM     32  C   UNL     1       5.191  -2.006  -3.345  0.00  0.00    +0.121 C 
ATOM     33  N   UNL     1       5.436  -1.135  -4.031  0.00  0.00    -0.189 NA
ENDBRANCH  28  32
ENDBRANCH  23  26
ENDBRANCH   6  22
TORSDOF 5
