REMARK  Name = CHEMBL481402
REMARK  11 active torsions:
REMARK  status: ('A' for Active; 'I' for Inactive)
REMARK    1  A    between atoms: C_1  and  N_2
REMARK    2  A    between atoms: N_5  and  C_8
REMARK    3  A    between atoms: C_8  and  C_9
REMARK    4  A    between atoms: C_9  and  C_10
REMARK    5  A    between atoms: C_10  and  O_11
REMARK    6  A    between atoms: O_11  and  C_12
REMARK    7  A    between atoms: C_17  and  O_18
REMARK    8  A    between atoms: O_18  and  C_19
REMARK    9  A    between atoms: C_22  and  C_33
REMARK   10  A    between atoms: C_23  and  N_24
REMARK   11  A    between atoms: N_24  and  C_25
REMARK                            x       y       z     vdW  Elec       q    Type
REMARK                         _______ _______ _______ _____ _____    ______ ____
ROOT
ATOM      1  C   UNL     1       3.981  -9.639   2.818  0.00  0.00    +0.163 A 
ATOM      2  C   UNL     1       2.856  -9.836   2.070  0.00  0.00    +0.061 A 
ATOM      3  C   UNL     1       1.753 -10.497   2.631  0.00  0.00    +0.026 A 
ATOM      4  C   UNL     1       1.811 -10.959   3.968  0.00  0.00    +0.076 A 
ATOM      5  C   UNL     1       2.978 -10.744   4.716  0.00  0.00    +0.077 A 
ATOM      6  C   UNL     1       4.049 -10.098   4.141  0.00  0.00    +0.164 A 
ATOM      7  N   UNL     1       0.760 -11.593   4.509  0.00  0.00    -0.254 NA
ATOM      8  C   UNL     1      -0.342 -11.808   3.837  0.00  0.00    +0.126 A 
ATOM      9  C   UNL     1      -0.487 -11.386   2.506  0.00  0.00    +0.076 A 
ATOM     10  C   UNL     1       0.575 -10.715   1.879  0.00  0.00    +0.054 A 
ENDROOT
BRANCH   9  11
ATOM     11  C   UNL     1      -1.738 -11.643   1.776  0.00  0.00    +0.245 C 
ATOM     12  O   UNL     1      -1.895 -11.190   0.658  0.00  0.00    -0.270 OA
ATOM     13  N   UNL     1      -2.712 -12.380   2.347  0.00  0.00    -0.325 N 
ATOM     14  H   UNL     1      -2.587 -12.742   3.238  0.00  0.00    +0.145 HD
ATOM     15  H   UNL     1      -3.537 -12.550   1.866  0.00  0.00    +0.145 HD
ENDBRANCH   9  11
BRANCH   6  16
ATOM     16  O   UNL     1       5.180  -9.897   4.865  0.00  0.00    -0.491 OA
ATOM     17  C   UNL     1       5.187 -10.387   6.207  0.00  0.00    +0.277 C 
ENDBRANCH   6  16
BRANCH  10  18
ATOM     18  N   UNL     1       0.472 -10.283   0.574  0.00  0.00    -0.313 N 
ATOM     19  H   UNL     1       0.201  -9.371   0.385  0.00  0.00    +0.152 HD
BRANCH  18  20
ATOM     20  C   UNL     1       0.760 -11.159  -0.478  0.00  0.00    +0.033 A 
ATOM     21  C   UNL     1       1.012 -12.500  -0.216  0.00  0.00    +0.026 A 
ATOM     22  C   UNL     1       1.295 -13.365  -1.255  0.00  0.00    +0.041 A 
ATOM     23  C   UNL     1       1.329 -12.896  -2.558  0.00  0.00    +0.142 A 
ATOM     24  C   UNL     1       1.079 -11.559  -2.821  0.00  0.00    +0.078 A 
ATOM     25  C   UNL     1       0.789 -10.691  -1.785  0.00  0.00    +0.046 A 
ATOM     26 CL   UNL     1       1.123 -10.973  -4.455  0.00  0.00    -0.081 Cl
ATOM     27  F   UNL     1       1.607 -13.743  -3.573  0.00  0.00    -0.204 F 
ENDBRANCH  18  20
ENDBRANCH  10  18
BRANCH   1  28
ATOM     28  O   UNL     1       5.049  -8.997   2.272  0.00  0.00    -0.488 OA
BRANCH  28  29
ATOM     29  C   UNL     1       4.918  -8.554   0.920  0.00  0.00    +0.227 C 
BRANCH  29  30
ATOM     30  C   UNL     1       6.209  -7.860   0.483  0.00  0.00    +0.022 C 
BRANCH  30  31
ATOM     31  C   UNL     1       6.069  -7.386  -0.965  0.00  0.00    -0.075 C 
BRANCH  31  36
ATOM     32  C   UNL     1      10.774  -5.776  -3.615  0.00  0.00    +0.104 C 
ATOM     33  N   UNL     1       9.530  -6.408  -3.152  0.00  0.00    -0.309 NA
ATOM     34  C   UNL     1       8.417  -5.449  -3.160  0.00  0.00    +0.065 C 
ATOM     35  C   UNL     1       7.132  -6.159  -2.731  0.00  0.00    -0.063 C 
ATOM     36  N   UNL     1       7.309  -6.719  -1.384  0.00  0.00    +0.381 N 
ATOM     37  C   UNL     1       8.408  -7.694  -1.398  0.00  0.00    -0.063 C 
ATOM     38  C   UNL     1       9.704  -6.996  -1.817  0.00  0.00    +0.065 C 
ATOM     39  H   UNL     1       7.526  -5.976  -0.737  0.00  0.00    -0.082 HD
ENDBRANCH  31  36
ENDBRANCH  30  31
ENDBRANCH  29  30
ENDBRANCH  28  29
ENDBRANCH   1  28
TORSDOF 9
