REMARK  Name = CHEMBL273011
REMARK  4 active torsions:
REMARK  status: ('A' for Active; 'I' for Inactive)
REMARK    1  A    between atoms: C_1  and  N_2
REMARK    2  A    between atoms: C_4  and  C_7
REMARK    3  A    between atoms: C_8  and  C_21
REMARK    4  A    between atoms: C_11  and  C_19
REMARK                            x       y       z     vdW  Elec       q    Type
REMARK                         _______ _______ _______ _____ _____    ______ ____
ROOT
ATOM      1  C   UNL     1       0.040  -3.311  -1.493  0.00  0.00    +0.074 A 
ATOM      2  C   UNL     1       0.054  -4.572  -0.905  0.00  0.00    +0.006 A 
ATOM      3  C   UNL     1       0.066  -5.751  -1.784  0.00  0.00    +0.008 A 
ATOM      4  C   UNL     1       0.081  -7.037  -1.244  0.00  0.00    +0.029 A 
ATOM      5  C   UNL     1       0.092  -8.137  -2.096  0.00  0.00    +0.052 A 
ATOM      6  C   UNL     1       0.089  -7.948  -3.485  0.00  0.00    +0.021 A 
ATOM      7  C   UNL     1       0.074  -6.692  -4.015  0.00  0.00    +0.027 A 
ATOM      8  C   UNL     1       0.063  -5.575  -3.180  0.00  0.00    +0.050 A 
ATOM      9  N   UNL     1       0.049  -4.308  -3.723  0.00  0.00    -0.322 N 
ATOM     10  H   UNL     1       0.047  -4.208  -4.688  0.00  0.00    +0.169 HD
ATOM     11  C   UNL     1       0.031  -3.208  -2.952  0.00  0.00    +0.259 A 
ATOM     12  O   UNL     1       0.014  -2.108  -3.476  0.00  0.00    -0.267 OA
ENDROOT
BRANCH   1  16
ATOM     13  C   UNL     1      -0.018   1.461   0.010  0.00  0.00    +0.150 C 
ATOM     14  N   UNL     1       0.002  -0.004   0.002  0.00  0.00    -0.339 N 
ATOM     15  C   UNL     1       0.008  -0.807  -1.105  0.00  0.00    +0.115 A 
ATOM     16  C   UNL     1       0.028  -2.091  -0.655  0.00  0.00    +0.094 A 
ATOM     17  N   UNL     1       0.033  -2.052   0.694  0.00  0.00    -0.236 NA
ATOM     18  C   UNL     1       0.024  -0.809   1.087  0.00  0.00    +0.199 A 
ENDBRANCH   1  16
BRANCH   2  19
ATOM     19  C   UNL     1       0.057  -4.722   0.565  0.00  0.00    -0.016 A 
ATOM     20  C   UNL     1       1.161  -5.284   1.210  0.00  0.00    +0.008 A 
ATOM     21  C   UNL     1       1.157  -5.421   2.583  0.00  0.00    +0.001 A 
ATOM     22  C   UNL     1       0.064  -5.004   3.320  0.00  0.00    +0.000 A 
ATOM     23  C   UNL     1      -1.033  -4.446   2.688  0.00  0.00    +0.001 A 
ATOM     24  C   UNL     1      -1.041  -4.298   1.316  0.00  0.00    +0.008 A 
ENDBRANCH   2  19
BRANCH   5  25
ATOM     25  C   UNL     1       0.108  -9.463  -1.554  0.00  0.00    +0.099 C 
ATOM     26  N   UNL     1       0.120 -10.514  -1.124  0.00  0.00    -0.191 NA
ENDBRANCH   5  25
TORSDOF 3
