REMARK  Name = CHEMBL472512
REMARK  6 active torsions:
REMARK  status: ('A' for Active; 'I' for Inactive)
REMARK    1  A    between atoms: C_3  and  C_11
REMARK    2  A    between atoms: C_5  and  C_7
REMARK    3  A    between atoms: N_13  and  C_14
REMARK    4  A    between atoms: C_18  and  C_20
REMARK    5  A    between atoms: N_22  and  C_23
REMARK    6  A    between atoms: C_26  and  C_28
REMARK                            x       y       z     vdW  Elec       q    Type
REMARK                         _______ _______ _______ _____ _____    ______ ____
ROOT
ATOM      1  C   UNL     1       4.815   4.265   0.068  0.00  0.00    +0.034 A 
ATOM      2  C   UNL     1       6.054   3.634   0.041  0.00  0.00    +0.025 A 
ATOM      3  C   UNL     1       7.216   4.376   0.122  0.00  0.00    +0.022 A 
ATOM      4  C   UNL     1       7.155   5.752   0.231  0.00  0.00    +0.053 A 
ATOM      5  C   UNL     1       5.916   6.396   0.259  0.00  0.00    +0.057 A 
ATOM      6  C   UNL     1       4.743   5.645   0.171  0.00  0.00    +0.037 A 
ATOM      7 CL   UNL     1       8.619   6.681   0.333  0.00  0.00    -0.083 Cl
ENDROOT
BRANCH   1  10
ATOM      8  C   UNL     1       3.582   2.292   0.565  0.00  0.00    +0.248 C 
ATOM      9  O   UNL     1       4.573   1.818   1.087  0.00  0.00    -0.270 OA
ATOM     10  N   UNL     1       3.642   3.508  -0.015  0.00  0.00    -0.281 N 
ATOM     11  H   UNL     1       2.872   3.857  -0.489  0.00  0.00    +0.155 HD
BRANCH   8  14
ATOM     12  C   UNL     1      -0.009   1.366  -0.027  0.00  0.00    +0.001 A 
ATOM     13  C   UNL     1       1.173   2.077  -0.032  0.00  0.00    +0.013 A 
ATOM     14  C   UNL     1       2.312   1.536   0.566  0.00  0.00    +0.038 A 
ATOM     15  C   UNL     1       2.247   0.277   1.165  0.00  0.00    +0.025 A 
ATOM     16  C   UNL     1       1.059  -0.424   1.163  0.00  0.00    +0.056 A 
ATOM     17  C   UNL     1      -0.067   0.118   0.568  0.00  0.00    +0.012 A 
BRANCH  16  18
ATOM     18  C   UNL     1       0.987  -1.784   1.809  0.00  0.00    +0.417 C 
ATOM     19  F   UNL     1       0.630  -1.643   3.154  0.00  0.00    -0.166 F 
ATOM     20  F   UNL     1       0.028  -2.562   1.152  0.00  0.00    -0.166 F 
ATOM     21  F   UNL     1       2.235  -2.409   1.720  0.00  0.00    -0.166 F 
ENDBRANCH  16  18
ENDBRANCH   8  14
ENDBRANCH   1  10
BRANCH   5  22
ATOM     22  C   UNL     1       5.847   7.868   0.375  0.00  0.00    +0.250 C 
ATOM     23  O   UNL     1       6.870   8.520   0.446  0.00  0.00    -0.270 OA
ATOM     24  N   UNL     1       4.650   8.486   0.402  0.00  0.00    -0.275 N 
ATOM     25  H   UNL     1       3.833   7.966   0.345  0.00  0.00    +0.156 HD
BRANCH  24  26
ATOM     26  C   UNL     1       4.585   9.877   0.511  0.00  0.00    +0.092 A 
ATOM     27  C   UNL     1       5.593  10.793   0.598  0.00  0.00    +0.142 A 
ATOM     28  N   UNL     1       5.237  12.060   0.694  0.00  0.00    -0.250 NA
ATOM     29  C   UNL     1       3.978  12.416   0.705  0.00  0.00    +0.083 A 
ATOM     30  S   UNL     1       3.160  10.952   0.570  0.00  0.00    -0.057 S 
BRANCH  29  31
ATOM     31  C   UNL     1       3.400  13.804   0.808  0.00  0.00    +0.045 C 
ATOM     32  C   UNL     1       4.371  14.982   0.711  0.00  0.00    +0.011 C 
ATOM     33  C   UNL     1       3.741  14.620   2.057  0.00  0.00    +0.011 C 
ENDBRANCH  29  31
ENDBRANCH  24  26
ENDBRANCH   5  22
TORSDOF 6
