REMARK  Name = CHEMBL257865
REMARK  5 active torsions:
REMARK  status: ('A' for Active; 'I' for Inactive)
REMARK    1  A    between atoms: C_1  and  N_2
REMARK    2  A    between atoms: N_5  and  C_8
REMARK    3  A    between atoms: C_11  and  N_14
REMARK    4  A    between atoms: C_21  and  C_32
REMARK    5  A    between atoms: N_23  and  C_26
REMARK                            x       y       z     vdW  Elec       q    Type
REMARK                         _______ _______ _______ _____ _____    ______ ____
ROOT
ATOM      1  N   UNL     1      -2.533  -6.773   4.271  0.00  0.00    -0.284 N 
ATOM      2  C   UNL     1      -1.680  -7.231   5.257  0.00  0.00    +0.221 A 
ATOM      3  N   UNL     1      -0.526  -6.600   5.447  0.00  0.00    -0.222 NA
ATOM      4  C   UNL     1       0.323  -6.998   6.377  0.00  0.00    +0.129 A 
ATOM      5  C   UNL     1      -0.019  -8.102   7.161  0.00  0.00    +0.083 A 
ATOM      6  C   UNL     1       0.866  -8.612   8.218  0.00  0.00    +0.204 A 
ATOM      7  O   UNL     1       1.941  -8.089   8.455  0.00  0.00    -0.286 OA
ATOM      8  C   UNL     1       0.395  -9.784   8.979  0.00  0.00    +0.100 A 
ATOM      9  C   UNL     1      -0.830 -10.332   8.666  0.00  0.00    +0.110 A 
ATOM     10  N   UNL     1      -1.611  -9.836   7.691  0.00  0.00    -0.300 N 
ATOM     11  C   UNL     1      -1.251  -8.749   6.934  0.00  0.00    +0.154 A 
ATOM     12  N   UNL     1      -2.046  -8.278   5.980  0.00  0.00    -0.196 NA
ATOM     13  H   UNL     1      -3.416  -7.163   4.175  0.00  0.00    +0.155 HD
ENDROOT
BRANCH   1  17
ATOM     14  C   UNL     1      -1.311  -3.716   1.712  0.00  0.00    +0.030 A 
ATOM     15  C   UNL     1      -0.390  -4.649   2.168  0.00  0.00    +0.025 A 
ATOM     16  C   UNL     1      -0.794  -5.661   3.016  0.00  0.00    +0.025 A 
ATOM     17  C   UNL     1      -2.122  -5.746   3.412  0.00  0.00    +0.034 A 
ATOM     18  C   UNL     1      -3.044  -4.813   2.955  0.00  0.00    +0.025 A 
ATOM     19  C   UNL     1      -2.639  -3.798   2.112  0.00  0.00    +0.025 A 
BRANCH  14  24
ATOM     20  C   UNL     1      -0.037  -1.179  -2.952  0.00  0.00    -0.096 C 
ATOM     21  N   UNL     1      -0.238  -1.347  -1.506  0.00  0.00    +0.380 N 
ATOM     22  C   UNL     1       0.643  -2.412  -1.012  0.00  0.00    -0.060 C 
ATOM     23  C   UNL     1       0.518  -2.511   0.512  0.00  0.00    +0.086 C 
ATOM     24  N   UNL     1      -0.901  -2.690   0.853  0.00  0.00    -0.333 N 
ATOM     25  C   UNL     1      -1.878  -1.759   0.266  0.00  0.00    +0.086 C 
ATOM     26  C   UNL     1      -1.640  -1.696  -1.246  0.00  0.00    -0.060 C 
ATOM     27  H   UNL     1      -0.015  -0.483  -1.034  0.00  0.00    -0.082 HD
ENDBRANCH  14  24
ENDBRANCH   1  17
BRANCH  10  28
ATOM     28  C   UNL     1      -2.842 -10.453   7.437  0.00  0.00    +0.048 A 
ATOM     29  C   UNL     1      -3.846 -10.424   8.396  0.00  0.00    +0.026 A 
ATOM     30  C   UNL     1      -5.059 -11.034   8.143  0.00  0.00    +0.002 A 
ATOM     31  C   UNL     1      -5.274 -11.673   6.936  0.00  0.00    +0.000 A 
ATOM     32  C   UNL     1      -4.276 -11.705   5.979  0.00  0.00    +0.002 A 
ATOM     33  C   UNL     1      -3.063 -11.091   6.223  0.00  0.00    +0.026 A 
ENDBRANCH  10  28
BRANCH   8  34
ATOM     34  C   UNL     1       1.220 -10.358  10.053  0.00  0.00    +0.247 C 
ATOM     35  O   UNL     1       0.781 -11.261  10.739  0.00  0.00    -0.270 OA
ATOM     36  N   UNL     1       2.461  -9.882  10.278  0.00  0.00    -0.325 N 
ATOM     37  H   UNL     1       2.783  -9.114   9.781  0.00  0.00    +0.145 HD
ATOM     38  H   UNL     1       3.031 -10.308  10.937  0.00  0.00    +0.145 HD
ENDBRANCH   8  34
TORSDOF 4
