REMARK  Name = CHEMBL257665
REMARK  5 active torsions:
REMARK  status: ('A' for Active; 'I' for Inactive)
REMARK    1  A    between atoms: C_1  and  N_2
REMARK    2  A    between atoms: N_5  and  C_8
REMARK    3  A    between atoms: C_11  and  N_14
REMARK    4  A    between atoms: C_21  and  C_33
REMARK    5  A    between atoms: N_23  and  C_26
REMARK                            x       y       z     vdW  Elec       q    Type
REMARK                         _______ _______ _______ _____ _____    ______ ____
ROOT
ATOM      1  N   UNL     1      -3.104  -5.650   6.034  0.00  0.00    -0.284 N 
ATOM      2  C   UNL     1      -2.102  -6.413   6.599  0.00  0.00    +0.221 A 
ATOM      3  N   UNL     1      -0.938  -5.836   6.877  0.00  0.00    -0.222 NA
ATOM      4  C   UNL     1       0.052  -6.523   7.418  0.00  0.00    +0.129 A 
ATOM      5  C   UNL     1      -0.152  -7.877   7.694  0.00  0.00    +0.083 A 
ATOM      6  C   UNL     1       0.894  -8.716   8.295  0.00  0.00    +0.204 A 
ATOM      7  O   UNL     1       1.989  -8.262   8.580  0.00  0.00    -0.286 OA
ATOM      8  C   UNL     1       0.560 -10.131   8.539  0.00  0.00    +0.100 A 
ATOM      9  C   UNL     1      -0.695 -10.586   8.196  0.00  0.00    +0.104 A 
ATOM     10  N   UNL     1      -1.623  -9.786   7.648  0.00  0.00    -0.328 N 
ATOM     11  C   UNL     1      -1.398  -8.460   7.387  0.00  0.00    +0.150 A 
ATOM     12  N   UNL     1      -2.340  -7.692   6.848  0.00  0.00    -0.196 NA
ATOM     13  H   UNL     1      -3.988  -6.028   5.904  0.00  0.00    +0.155 HD
ENDROOT
BRANCH  10  14
ATOM     14  C   UNL     1      -2.932 -10.355   7.314  0.00  0.00    +0.092 C 
ATOM     15  C   UNL     1      -3.301 -11.478   8.311  0.00  0.00    +0.029 C 
ATOM     16  C   UNL     1      -3.436 -12.757   7.430  0.00  0.00    -0.009 C 
ATOM     17  C   UNL     1      -1.977 -13.085   6.989  0.00  0.00    +0.004 C 
ATOM     18  C   UNL     1      -1.608 -11.962   5.993  0.00  0.00    +0.006 C 
ATOM     19  C   UNL     1      -2.879 -11.062   5.926  0.00  0.00    +0.012 C 
ATOM     20  C   UNL     1      -4.007 -12.138   6.105  0.00  0.00    +0.009 C 
ENDBRANCH  10  14
BRANCH   1  24
ATOM     21  C   UNL     1      -2.332  -1.717   4.881  0.00  0.00    +0.030 A 
ATOM     22  C   UNL     1      -1.336  -2.679   4.778  0.00  0.00    +0.025 A 
ATOM     23  C   UNL     1      -1.591  -3.981   5.160  0.00  0.00    +0.025 A 
ATOM     24  C   UNL     1      -2.845  -4.329   5.647  0.00  0.00    +0.034 A 
ATOM     25  C   UNL     1      -3.841  -3.367   5.750  0.00  0.00    +0.025 A 
ATOM     26  C   UNL     1      -3.583  -2.063   5.373  0.00  0.00    +0.025 A 
BRANCH  21  31
ATOM     27  C   UNL     1      -1.802   2.623   1.612  0.00  0.00    -0.096 C 
ATOM     28  N   UNL     1      -1.788   1.854   2.863  0.00  0.00    +0.380 N 
ATOM     29  C   UNL     1      -0.822   0.754   2.747  0.00  0.00    -0.060 C 
ATOM     30  C   UNL     1      -0.722   0.020   4.089  0.00  0.00    +0.086 C 
ATOM     31  N   UNL     1      -2.073  -0.398   4.494  0.00  0.00    -0.333 N 
ATOM     32  C   UNL     1      -3.143   0.611   4.481  0.00  0.00    +0.086 C 
ATOM     33  C   UNL     1      -3.130   1.316   3.121  0.00  0.00    -0.060 C 
ATOM     34  H   UNL     1      -1.516   2.457   3.625  0.00  0.00    -0.082 HD
ENDBRANCH  21  31
ENDBRANCH   1  24
BRANCH   8  35
ATOM     35  C   UNL     1       1.548 -11.041   9.137  0.00  0.00    +0.247 C 
ATOM     36  O   UNL     1       1.229 -12.177   9.431  0.00  0.00    -0.270 OA
ATOM     37  N   UNL     1       2.808 -10.616   9.360  0.00  0.00    -0.325 N 
ATOM     38  H   UNL     1       3.044  -9.690   9.193  0.00  0.00    +0.145 HD
ATOM     39  H   UNL     1       3.478 -11.236   9.686  0.00  0.00    +0.145 HD
ENDBRANCH   8  35
TORSDOF 4
