REMARK  Name = CHEMBL480618
REMARK  7 active torsions:
REMARK  status: ('A' for Active; 'I' for Inactive)
REMARK    1  A    between atoms: C_1  and  N_2
REMARK    2  A    between atoms: N_5  and  C_8
REMARK    3  A    between atoms: C_13  and  O_14
REMARK    4  A    between atoms: O_14  and  C_15
REMARK    5  A    between atoms: C_16  and  N_23
REMARK    6  A    between atoms: C_17  and  C_20
REMARK    7  A    between atoms: N_23  and  C_24
REMARK                            x       y       z     vdW  Elec       q    Type
REMARK                         _______ _______ _______ _____ _____    ______ ____
ROOT
ATOM      1  C   UNL     1      -3.540  -4.886   0.502  0.00  0.00    +0.074 A 
ATOM      2  C   UNL     1      -2.430  -5.697   0.603  0.00  0.00    +0.055 A 
ATOM      3  C   UNL     1      -2.069  -6.229   1.849  0.00  0.00    +0.075 A 
ATOM      4  C   UNL     1      -2.857  -5.922   2.986  0.00  0.00    +0.026 A 
ATOM      5  C   UNL     1      -3.982  -5.094   2.856  0.00  0.00    +0.059 A 
ATOM      6  C   UNL     1      -4.311  -4.582   1.634  0.00  0.00    +0.142 A 
ATOM      7  C   UNL     1      -2.490  -6.461   4.241  0.00  0.00    +0.054 A 
ATOM      8  C   UNL     1      -1.351  -7.281   4.294  0.00  0.00    +0.076 A 
ATOM      9  C   UNL     1      -0.630  -7.532   3.116  0.00  0.00    +0.126 A 
ATOM     10  N   UNL     1      -0.992  -7.020   1.968  0.00  0.00    -0.254 NA
ENDROOT
BRANCH   1  15
ATOM     11  C   UNL     1      -6.372  -2.044  -3.195  0.00  0.00    -0.096 C 
ATOM     12  N   UNL     1      -5.314  -2.917  -2.671  0.00  0.00    +0.380 N 
ATOM     13  C   UNL     1      -5.920  -4.116  -2.077  0.00  0.00    -0.060 C 
ATOM     14  C   UNL     1      -4.815  -5.080  -1.633  0.00  0.00    +0.086 C 
ATOM     15  N   UNL     1      -3.898  -4.357  -0.738  0.00  0.00    -0.331 N 
ATOM     16  C   UNL     1      -3.368  -3.060  -1.189  0.00  0.00    +0.086 C 
ATOM     17  C   UNL     1      -4.542  -2.192  -1.654  0.00  0.00    -0.060 C 
ATOM     18  H   UNL     1      -4.701  -3.192  -3.424  0.00  0.00    -0.082 HD
ENDBRANCH   1  15
BRANCH   8  19
ATOM     19  C   UNL     1      -0.919  -7.870   5.571  0.00  0.00    +0.245 C 
ATOM     20  O   UNL     1      -1.602  -7.730   6.567  0.00  0.00    -0.270 OA
ATOM     21  N   UNL     1       0.234  -8.566   5.635  0.00  0.00    -0.325 N 
ATOM     22  H   UNL     1       0.778  -8.678   4.840  0.00  0.00    +0.145 HD
ATOM     23  H   UNL     1       0.519  -8.954   6.477  0.00  0.00    +0.145 HD
ENDBRANCH   8  19
BRANCH   6  24
ATOM     24  O   UNL     1      -5.399  -3.775   1.513  0.00  0.00    -0.493 OA
ATOM     25  C   UNL     1      -6.142  -3.505   2.703  0.00  0.00    +0.277 C 
ENDBRANCH   6  24
BRANCH   7  26
ATOM     26  N   UNL     1      -3.225  -6.189   5.375  0.00  0.00    -0.311 N 
ATOM     27  H   UNL     1      -3.122  -5.338   5.827  0.00  0.00    +0.152 HD
BRANCH  26  28
ATOM     28  C   UNL     1      -4.121  -7.143   5.873  0.00  0.00    +0.067 A 
ATOM     29  C   UNL     1      -4.167  -8.413   5.313  0.00  0.00    +0.029 A 
ATOM     30  C   UNL     1      -5.051  -9.353   5.807  0.00  0.00    +0.040 A 
ATOM     31  C   UNL     1      -5.892  -9.030   6.859  0.00  0.00    +0.126 A 
ATOM     32  C   UNL     1      -5.849  -7.765   7.419  0.00  0.00    +0.078 A 
ATOM     33  C   UNL     1      -4.962  -6.822   6.933  0.00  0.00    +0.147 A 
ATOM     34  F   UNL     1      -4.916  -5.589   7.483  0.00  0.00    -0.203 F 
ATOM     35  F   UNL     1      -6.756  -9.951   7.338  0.00  0.00    -0.205 F 
ENDBRANCH  26  28
ENDBRANCH   7  26
TORSDOF 5
