REMARK  Name = CHEMBL271461
REMARK  4 active torsions:
REMARK  status: ('A' for Active; 'I' for Inactive)
REMARK    1  A    between atoms: C_3  and  N_31
REMARK    2  A    between atoms: C_6  and  N_7
REMARK    3  A    between atoms: C_14  and  C_28
REMARK    4  A    between atoms: N_16  and  C_19
REMARK                            x       y       z     vdW  Elec       q    Type
REMARK                         _______ _______ _______ _____ _____    ______ ____
ROOT
ATOM      1  N   UNL     1      -1.247  -0.915   0.061  0.00  0.00    -0.284 N 
ATOM      2  C   UNL     1      -1.161  -2.291   0.147  0.00  0.00    +0.221 A 
ATOM      3  N   UNL     1       0.032  -2.846   0.333  0.00  0.00    -0.222 NA
ATOM      4  C   UNL     1       0.166  -4.158   0.422  0.00  0.00    +0.129 A 
ATOM      5  C   UNL     1      -0.977  -4.952   0.315  0.00  0.00    +0.083 A 
ATOM      6  C   UNL     1      -0.919  -6.418   0.403  0.00  0.00    +0.204 A 
ATOM      7  O   UNL     1       0.136  -7.004   0.573  0.00  0.00    -0.286 OA
ATOM      8  C   UNL     1      -2.193  -7.148   0.275  0.00  0.00    +0.100 A 
ATOM      9  C   UNL     1      -3.354  -6.433   0.084  0.00  0.00    +0.110 A 
ATOM     10  N   UNL     1      -3.367  -5.090   0.009  0.00  0.00    -0.300 N 
ATOM     11  C   UNL     1      -2.227  -4.332   0.117  0.00  0.00    +0.154 A 
ATOM     12  N   UNL     1      -2.271  -3.006   0.045  0.00  0.00    -0.196 NA
ATOM     13  H   UNL     1      -2.115  -0.486   0.013  0.00  0.00    +0.155 HD
ENDROOT
BRANCH  10  14
ATOM     14  C   UNL     1      -4.591  -4.439  -0.187  0.00  0.00    +0.048 A 
ATOM     15  C   UNL     1      -5.574  -4.495   0.793  0.00  0.00    +0.026 A 
ATOM     16  C   UNL     1      -6.778  -3.851   0.594  0.00  0.00    +0.006 A 
ATOM     17  C   UNL     1      -7.011  -3.150  -0.578  0.00  0.00    -0.044 A 
ATOM     18  C   UNL     1      -6.034  -3.093  -1.555  0.00  0.00    -0.042 A 
ATOM     19  C   UNL     1      -4.823  -3.732  -1.358  0.00  0.00    +0.030 A 
ATOM     20  C   UNL     1      -6.530  -2.274  -2.728  0.00  0.00    +0.036 C 
ATOM     21  C   UNL     1      -8.062  -2.206  -2.553  0.00  0.00    +0.009 C 
ATOM     22  C   UNL     1      -8.230  -2.373  -1.028  0.00  0.00    +0.036 C 
ENDBRANCH  10  14
BRANCH   1  28
ATOM     23  C   UNL     1       1.062  -0.620  -0.584  0.00  0.00    +0.025 A 
ATOM     24  C   UNL     1       2.212   0.144  -0.601  0.00  0.00    +0.025 A 
ATOM     25  C   UNL     1       2.227   1.391   0.009  0.00  0.00    +0.030 A 
ATOM     26  C   UNL     1       1.084   1.871   0.637  0.00  0.00    +0.025 A 
ATOM     27  C   UNL     1      -0.066   1.107   0.654  0.00  0.00    +0.025 A 
ATOM     28  C   UNL     1      -0.080  -0.141   0.044  0.00  0.00    +0.034 A 
BRANCH  25  29
ATOM     29  N   UNL     1       3.393   2.165  -0.008  0.00  0.00    -0.333 N 
ATOM     30  C   UNL     1       3.400   3.534   0.530  0.00  0.00    +0.086 C 
ATOM     31  C   UNL     1       4.577   3.668   1.501  0.00  0.00    -0.063 C 
ATOM     32  N   UNL     1       5.819   3.279   0.820  0.00  0.00    +0.381 N 
ATOM     33  C   UNL     1       5.765   1.857   0.458  0.00  0.00    -0.063 C 
ATOM     34  C   UNL     1       4.647   1.631  -0.559  0.00  0.00    +0.086 C 
ATOM     35  H   UNL     1       5.931   3.833  -0.016  0.00  0.00    -0.086 HD
ATOM     36  H   UNL     1       6.603   3.438   1.434  0.00  0.00    -0.086 HD
ENDBRANCH  25  29
ENDBRANCH   1  28
BRANCH   8  37
ATOM     37  C   UNL     1      -2.224  -8.617   0.351  0.00  0.00    +0.247 C 
ATOM     38  O   UNL     1      -3.289  -9.205   0.343  0.00  0.00    -0.270 OA
ATOM     39  N   UNL     1      -1.071  -9.312   0.428  0.00  0.00    -0.325 N 
ATOM     40  H   UNL     1      -0.226  -8.843   0.508  0.00  0.00    +0.145 HD
ATOM     41  H   UNL     1      -1.087 -10.282   0.405  0.00  0.00    +0.145 HD
ENDBRANCH   8  37
TORSDOF 4
