REMARK  Name = CHEMBL249169
REMARK  4 active torsions:
REMARK  status: ('A' for Active; 'I' for Inactive)
REMARK    1  A    between atoms: C_4  and  N_7
REMARK    2  A    between atoms: N_7  and  C_8
REMARK    3  A    between atoms: C_12  and  C_21
REMARK    4  A    between atoms: C_17  and  C_18
REMARK                            x       y       z     vdW  Elec       q    Type
REMARK                         _______ _______ _______ _____ _____    ______ ____
ROOT
ATOM      1  C   UNL     1       3.638  -2.023  -0.150  0.00  0.00    +0.054 A 
ATOM      2  C   UNL     1       4.805  -2.766   0.149  0.00  0.00    +0.020 A 
ATOM      3  C   UNL     1       5.982  -2.127   0.566  0.00  0.00    +0.012 A 
ATOM      4  C   UNL     1       7.092  -2.861   0.848  0.00  0.00    +0.009 A 
ATOM      5  C   UNL     1       7.074  -4.258   0.726  0.00  0.00    -0.016 A 
ATOM      6  C   UNL     1       5.927  -4.915   0.316  0.00  0.00    +0.034 A 
ATOM      7  C   UNL     1       4.773  -4.176   0.021  0.00  0.00    +0.049 A 
ATOM      8  N   UNL     1       3.650  -4.792  -0.377  0.00  0.00    -0.360 N 
ATOM      9  C   UNL     1       2.557  -4.130  -0.658  0.00  0.00    +0.098 A 
ATOM     10  C   UNL     1       2.497  -2.731  -0.555  0.00  0.00    +0.074 A 
ATOM     11  H   UNL     1       3.648  -5.759  -0.459  0.00  0.00    +0.165 HD
ENDROOT
BRANCH   5  12
ATOM     12  C   UNL     1       8.296  -5.039   1.038  0.00  0.00    -0.015 A 
ATOM     13  C   UNL     1       8.308  -6.432   0.919  0.00  0.00    +0.028 A 
ATOM     14  C   UNL     1       9.466  -7.119   1.220  0.00  0.00    +0.111 A 
ATOM     15  N   UNL     1      10.550  -6.479   1.615  0.00  0.00    -0.263 NA
ATOM     16  C   UNL     1      10.581  -5.166   1.740  0.00  0.00    +0.111 A 
ATOM     17  C   UNL     1       9.469  -4.402   1.454  0.00  0.00    +0.028 A 
ENDBRANCH   5  12
BRANCH  10  18
ATOM     18  C   UNL     1       1.251  -2.015  -0.874  0.00  0.00    +0.245 C 
ATOM     19  O   UNL     1       1.231  -0.799  -0.873  0.00  0.00    -0.270 OA
ATOM     20  N   UNL     1       0.132  -2.707  -1.166  0.00  0.00    -0.325 N 
ATOM     21  H   UNL     1       0.147  -3.677  -1.167  0.00  0.00    +0.145 HD
ATOM     22  H   UNL     1      -0.689  -2.235  -1.376  0.00  0.00    +0.145 HD
ENDBRANCH  10  18
BRANCH   1  23
ATOM     23  N   UNL     1       3.621  -0.649  -0.040  0.00  0.00    -0.313 N 
ATOM     24  H   UNL     1       3.344  -0.233   0.791  0.00  0.00    +0.152 HD
BRANCH  23  28
ATOM     25  C   UNL     1       4.761   1.713  -3.275  0.00  0.00    +0.000 A 
ATOM     26  C   UNL     1       4.494   2.300  -2.051  0.00  0.00    +0.002 A 
ATOM     27  C   UNL     1       4.116   1.520  -0.977  0.00  0.00    +0.023 A 
ATOM     28  C   UNL     1       4.003   0.143  -1.125  0.00  0.00    +0.031 A 
ATOM     29  C   UNL     1       4.271  -0.444  -2.355  0.00  0.00    +0.023 A 
ATOM     30  C   UNL     1       4.649   0.343  -3.426  0.00  0.00    +0.002 A 
ENDBRANCH  23  28
ENDBRANCH   1  23
TORSDOF 4
