REMARK  Name = CHEMBL250362
REMARK  5 active torsions:
REMARK  status: ('A' for Active; 'I' for Inactive)
REMARK    1  A    between atoms: C_4  and  N_7
REMARK    2  A    between atoms: N_7  and  C_8
REMARK    3  A    between atoms: C_12  and  C_21
REMARK    4  A    between atoms: C_17  and  C_18
REMARK    5  A    between atoms: C_24  and  C_27
REMARK                            x       y       z     vdW  Elec       q    Type
REMARK                         _______ _______ _______ _____ _____    ______ ____
ROOT
ATOM      1  C   UNL     1       3.675  -1.994  -0.224  0.00  0.00    +0.054 A 
ATOM      2  C   UNL     1       4.837  -2.742   0.085  0.00  0.00    +0.020 A 
ATOM      3  C   UNL     1       6.053  -2.103   0.367  0.00  0.00    +0.012 A 
ATOM      4  C   UNL     1       7.157  -2.841   0.661  0.00  0.00    +0.009 A 
ATOM      5  C   UNL     1       7.094  -4.243   0.686  0.00  0.00    -0.016 A 
ATOM      6  C   UNL     1       5.907  -4.899   0.410  0.00  0.00    +0.034 A 
ATOM      7  C   UNL     1       4.758  -4.155   0.105  0.00  0.00    +0.049 A 
ATOM      8  N   UNL     1       3.597  -4.771  -0.164  0.00  0.00    -0.360 N 
ATOM      9  C   UNL     1       2.508  -4.106  -0.451  0.00  0.00    +0.098 A 
ATOM     10  C   UNL     1       2.493  -2.702  -0.490  0.00  0.00    +0.074 A 
ATOM     11  H   UNL     1       3.563  -5.741  -0.144  0.00  0.00    +0.165 HD
ENDROOT
BRANCH   5  12
ATOM     12  C   UNL     1       8.309  -5.027   1.009  0.00  0.00    -0.018 A 
ATOM     13  C   UNL     1       8.254  -6.421   1.029  0.00  0.00    +0.009 A 
ATOM     14  C   UNL     1       9.383  -7.151   1.330  0.00  0.00    +0.013 A 
ATOM     15  C   UNL     1      10.583  -6.495   1.614  0.00  0.00    +0.037 A 
ATOM     16  C   UNL     1      10.637  -5.099   1.593  0.00  0.00    +0.013 A 
ATOM     17  C   UNL     1       9.509  -4.372   1.287  0.00  0.00    +0.009 A 
BRANCH  15  18
ATOM     18  C   UNL     1      11.794  -7.277   1.937  0.00  0.00    +0.247 C 
ATOM     19  O   UNL     1      11.966  -8.368   1.430  0.00  0.00    -0.270 OA
ATOM     20  N   UNL     1      12.709  -6.780   2.794  0.00  0.00    -0.293 N 
ATOM     21  C   UNL     1      12.463  -5.522   3.518  0.00  0.00    +0.136 C 
ATOM     22  C   UNL     1      12.733  -5.762   5.008  0.00  0.00    +0.179 C 
ATOM     23  O   UNL     1      14.030  -6.343   5.164  0.00  0.00    -0.377 OA
ATOM     24  C   UNL     1      14.176  -7.623   4.547  0.00  0.00    +0.179 C 
ATOM     25  C   UNL     1      13.979  -7.482   3.037  0.00  0.00    +0.136 C 
ENDBRANCH  15  18
ENDBRANCH   5  12
BRANCH  10  26
ATOM     26  C   UNL     1       1.250  -1.980  -0.811  0.00  0.00    +0.245 C 
ATOM     27  O   UNL     1       1.266  -0.771  -0.944  0.00  0.00    -0.270 OA
ATOM     28  N   UNL     1       0.096  -2.660  -0.959  0.00  0.00    -0.325 N 
ATOM     29  H   UNL     1       0.083  -3.624  -0.853  0.00  0.00    +0.145 HD
ATOM     30  H   UNL     1      -0.723  -2.184  -1.170  0.00  0.00    +0.145 HD
ENDBRANCH  10  26
BRANCH   1  31
ATOM     31  N   UNL     1       3.702  -0.617  -0.256  0.00  0.00    -0.313 N 
ATOM     32  H   UNL     1       3.497  -0.109   0.544  0.00  0.00    +0.152 HD
BRANCH  31  36
ATOM     33  C   UNL     1       4.668   1.365  -3.789  0.00  0.00    +0.000 A 
ATOM     34  C   UNL     1       4.483   2.084  -2.623  0.00  0.00    +0.002 A 
ATOM     35  C   UNL     1       4.163   1.431  -1.450  0.00  0.00    +0.023 A 
ATOM     36  C   UNL     1       4.026   0.048  -1.442  0.00  0.00    +0.031 A 
ATOM     37  C   UNL     1       4.212  -0.672  -2.615  0.00  0.00    +0.023 A 
ATOM     38  C   UNL     1       4.533  -0.012  -3.785  0.00  0.00    +0.002 A 
ENDBRANCH  31  36
ENDBRANCH   1  31
TORSDOF 5
