REMARK  Name = CHEMBL429855
REMARK  6 active torsions:
REMARK  status: ('A' for Active; 'I' for Inactive)
REMARK    1  A    between atoms: C_1  and  C_2
REMARK    2  A    between atoms: C_7  and  C_10
REMARK    3  A    between atoms: C_13  and  N_24
REMARK    4  A    between atoms: C_14  and  C_16
REMARK    5  A    between atoms: C_25  and  C_27
REMARK    6  A    between atoms: C_29  and  C_32
REMARK                            x       y       z     vdW  Elec       q    Type
REMARK                         _______ _______ _______ _____ _____    ______ ____
ROOT
ATOM      1  C   UNL     1      -4.250  -2.519   2.239  0.00  0.00    -0.043 A 
ATOM      2  C   UNL     1      -3.867  -2.297   3.550  0.00  0.00    +0.006 A 
ATOM      3  C   UNL     1      -4.639  -2.772   4.593  0.00  0.00    +0.024 A 
ATOM      4  C   UNL     1      -5.804  -3.478   4.330  0.00  0.00    +0.041 A 
ATOM      5  C   UNL     1      -6.195  -3.704   3.003  0.00  0.00    -0.001 A 
ATOM      6  C   UNL     1      -5.410  -3.213   1.960  0.00  0.00    +0.014 A 
ENDROOT
BRANCH   1  13
ATOM      7  C   UNL     1      -0.033   1.562   0.053  0.00  0.00    +0.109 C 
ATOM      8  C   UNL     1      -0.007   0.055   0.035  0.00  0.00    +0.212 C 
ATOM      9  O   UNL     1       1.054  -0.533   0.019  0.00  0.00    -0.276 OA
ATOM     10  N   UNL     1      -1.162  -0.639   0.037  0.00  0.00    -0.302 N 
ATOM     11  C   UNL     1      -2.455   0.059   0.050  0.00  0.00    +0.108 C 
ATOM     12  C   UNL     1      -3.291  -0.473   1.218  0.00  0.00    +0.027 C 
ATOM     13  C   UNL     1      -3.400  -1.996   1.110  0.00  0.00    +0.022 C 
ATOM     14  C   UNL     1      -2.003  -2.616   1.194  0.00  0.00    +0.027 C 
ATOM     15  C   UNL     1      -1.153  -2.108   0.019  0.00  0.00    +0.108 C 
ENDBRANCH   1  13
BRANCH   5  16
ATOM     16  C   UNL     1      -7.433  -4.454   2.712  0.00  0.00    -0.039 C 
ATOM     17  C   UNL     1      -7.360  -5.734   2.897  0.00  0.00    -0.000 C 
ATOM     18  C   UNL     1      -8.447  -6.741   2.660  0.00  0.00    +0.193 C 
ATOM     19  S   UNL     1     -10.050  -5.887   2.590  0.00  0.00    -0.027 S 
ATOM     20  O   UNL     1     -10.979  -6.715   1.903  0.00  0.00    -0.174 OA
ATOM     21  O   UNL     1     -10.370  -5.412   3.891  0.00  0.00    -0.174 OA
ATOM     22  C   UNL     1      -9.641  -4.464   1.531  0.00  0.00    +0.171 C 
ATOM     23  C   UNL     1      -8.584  -3.626   2.253  0.00  0.00    +0.058 C 
ENDBRANCH   5  16
BRANCH   4  24
ATOM     24  N   UNL     1      -6.584  -3.959   5.383  0.00  0.00    -0.278 N 
ATOM     25  C   UNL     1      -5.995  -4.389   6.516  0.00  0.00    +0.284 C 
ATOM     26  O   UNL     1      -4.792  -4.282   6.655  0.00  0.00    -0.267 OA
ATOM     27  H   UNL     1      -7.550  -3.985   5.298  0.00  0.00    +0.155 HD
BRANCH  25  28
ATOM     28  C   UNL     1      -6.810  -4.991   7.589  0.00  0.00    +0.195 A 
ATOM     29  N   UNL     1      -8.111  -5.165   7.553  0.00  0.00    -0.213 NA
ATOM     30  C   UNL     1      -8.507  -5.738   8.699  0.00  0.00    +0.158 A 
ATOM     31  C   UNL     1      -7.386  -5.927   9.485  0.00  0.00    +0.123 A 
ATOM     32  N   UNL     1      -6.333  -5.463   8.781  0.00  0.00    -0.340 N 
ATOM     33  H   UNL     1      -5.407  -5.462   9.069  0.00  0.00    +0.167 HD
BRANCH  30  34
ATOM     34  C   UNL     1      -9.851  -6.091   9.046  0.00  0.00    +0.121 C 
ATOM     35  N   UNL     1     -10.917  -6.370   9.322  0.00  0.00    -0.189 NA
ENDBRANCH  30  34
ENDBRANCH  25  28
ENDBRANCH   4  24
TORSDOF 5
