REMARK  Name = CHEMBL250362
REMARK  5 active torsions:
REMARK  status: ('A' for Active; 'I' for Inactive)
REMARK    1  A    between atoms: C_4  and  N_7
REMARK    2  A    between atoms: N_7  and  C_8
REMARK    3  A    between atoms: C_12  and  C_21
REMARK    4  A    between atoms: C_17  and  C_18
REMARK    5  A    between atoms: C_24  and  C_27
REMARK                            x       y       z     vdW  Elec       q    Type
REMARK                         _______ _______ _______ _____ _____    ______ ____
ROOT
ATOM      1  C   UNL     1       3.675  -1.993  -0.221  0.00  0.00    +0.054 A 
ATOM      2  C   UNL     1       4.837  -2.741   0.087  0.00  0.00    +0.022 A 
ATOM      3  C   UNL     1       6.053  -2.102   0.372  0.00  0.00    +0.012 A 
ATOM      4  C   UNL     1       7.156  -2.841   0.666  0.00  0.00    +0.009 A 
ATOM      5  C   UNL     1       7.094  -4.242   0.688  0.00  0.00    -0.016 A 
ATOM      6  C   UNL     1       5.907  -4.899   0.410  0.00  0.00    +0.037 A 
ATOM      7  C   UNL     1       4.758  -4.154   0.105  0.00  0.00    +0.073 A 
ATOM      8  N   UNL     1       3.598  -4.770  -0.165  0.00  0.00    -0.254 NA
ATOM      9  C   UNL     1       2.509  -4.104  -0.453  0.00  0.00    +0.126 A 
ATOM     10  C   UNL     1       2.494  -2.700  -0.490  0.00  0.00    +0.076 A 
ENDROOT
BRANCH   5  11
ATOM     11  C   UNL     1       8.309  -5.027   1.011  0.00  0.00    -0.018 A 
ATOM     12  C   UNL     1       8.255  -6.421   1.029  0.00  0.00    +0.009 A 
ATOM     13  C   UNL     1       9.383  -7.151   1.329  0.00  0.00    +0.013 A 
ATOM     14  C   UNL     1      10.583  -6.495   1.615  0.00  0.00    +0.037 A 
ATOM     15  C   UNL     1      10.636  -5.099   1.597  0.00  0.00    +0.013 A 
ATOM     16  C   UNL     1       9.508  -4.371   1.291  0.00  0.00    +0.009 A 
BRANCH  14  17
ATOM     17  C   UNL     1      11.794  -7.277   1.938  0.00  0.00    +0.247 C 
ATOM     18  O   UNL     1      11.967  -8.368   1.430  0.00  0.00    -0.270 OA
ATOM     19  N   UNL     1      12.707  -6.781   2.796  0.00  0.00    -0.293 N 
ATOM     20  C   UNL     1      12.461  -5.525   3.522  0.00  0.00    +0.136 C 
ATOM     21  C   UNL     1      12.729  -5.767   5.012  0.00  0.00    +0.179 C 
ATOM     22  O   UNL     1      14.027  -6.347   5.169  0.00  0.00    -0.377 OA
ATOM     23  C   UNL     1      14.174  -7.627   4.549  0.00  0.00    +0.179 C 
ATOM     24  C   UNL     1      13.977  -7.483   3.040  0.00  0.00    +0.136 C 
ENDBRANCH  14  17
ENDBRANCH   5  11
BRANCH  10  25
ATOM     25  C   UNL     1       1.251  -1.979  -0.811  0.00  0.00    +0.245 C 
ATOM     26  O   UNL     1       1.267  -0.770  -0.943  0.00  0.00    -0.270 OA
ATOM     27  N   UNL     1       0.096  -2.658  -0.958  0.00  0.00    -0.325 N 
ATOM     28  H   UNL     1       0.084  -3.622  -0.853  0.00  0.00    +0.145 HD
ATOM     29  H   UNL     1      -0.722  -2.182  -1.170  0.00  0.00    +0.145 HD
ENDBRANCH  10  25
BRANCH   1  30
ATOM     30  N   UNL     1       3.702  -0.616  -0.251  0.00  0.00    -0.313 N 
ATOM     31  H   UNL     1       3.500  -0.109   0.551  0.00  0.00    +0.152 HD
BRANCH  30  35
ATOM     32  C   UNL     1       4.655   1.372  -3.784  0.00  0.00    +0.000 A 
ATOM     33  C   UNL     1       4.467   2.091  -2.618  0.00  0.00    +0.002 A 
ATOM     34  C   UNL     1       4.151   1.435  -1.444  0.00  0.00    +0.023 A 
ATOM     35  C   UNL     1       4.022   0.051  -1.437  0.00  0.00    +0.031 A 
ATOM     36  C   UNL     1       4.211  -0.667  -2.611  0.00  0.00    +0.023 A 
ATOM     37  C   UNL     1       4.527  -0.005  -3.780  0.00  0.00    +0.002 A 
ENDBRANCH  30  35
ENDBRANCH   1  30
TORSDOF 5
