REMARK  Name = CHEMBL480455
REMARK  10 active torsions:
REMARK  status: ('A' for Active; 'I' for Inactive)
REMARK    1  A    between atoms: C_1  and  O_2
REMARK    2  A    between atoms: O_2  and  C_3
REMARK    3  A    between atoms: C_8  and  O_9
REMARK    4  A    between atoms: O_9  and  C_10
REMARK    5  A    between atoms: C_10  and  C_11
REMARK    6  A    between atoms: C_11  and  N_12
REMARK    7  A    between atoms: C_15  and  O_18
REMARK    8  A    between atoms: C_21  and  C_32
REMARK    9  A    between atoms: C_22  and  N_23
REMARK   10  A    between atoms: N_23  and  C_24
REMARK                            x       y       z     vdW  Elec       q    Type
REMARK                         _______ _______ _______ _____ _____    ______ ____
ROOT
ATOM      1  C   UNL     1       3.385  -2.731  -0.657  0.00  0.00    +0.162 A 
ATOM      2  C   UNL     1       3.173  -1.796  -1.630  0.00  0.00    +0.061 A 
ATOM      3  C   UNL     1       2.314  -2.087  -2.700  0.00  0.00    +0.024 A 
ATOM      4  C   UNL     1       1.671  -3.346  -2.769  0.00  0.00    +0.052 A 
ATOM      5  C   UNL     1       1.905  -4.289  -1.758  0.00  0.00    +0.075 A 
ATOM      6  C   UNL     1       2.757  -3.982  -0.721  0.00  0.00    +0.164 A 
ATOM      7  N   UNL     1       0.850  -3.630  -3.791  0.00  0.00    -0.360 N 
ATOM      8  C   UNL     1       0.612  -2.772  -4.750  0.00  0.00    +0.098 A 
ATOM      9  C   UNL     1       1.207  -1.500  -4.762  0.00  0.00    +0.074 A 
ATOM     10  C   UNL     1       2.076  -1.137  -3.722  0.00  0.00    +0.054 A 
ATOM     11  H   UNL     1       0.418  -4.498  -3.820  0.00  0.00    +0.165 HD
ENDROOT
BRANCH   9  12
ATOM     12  C   UNL     1       0.920  -0.556  -5.855  0.00  0.00    +0.245 C 
ATOM     13  O   UNL     1       1.433   0.547  -5.856  0.00  0.00    -0.270 OA
ATOM     14  N   UNL     1       0.090  -0.914  -6.854  0.00  0.00    -0.325 N 
ATOM     15  H   UNL     1      -0.319  -1.794  -6.853  0.00  0.00    +0.145 HD
ATOM     16  H   UNL     1      -0.099  -0.292  -7.574  0.00  0.00    +0.145 HD
ENDBRANCH   9  12
BRANCH   1  18
ATOM     17  C   UNL     1       4.828  -1.154   0.387  0.00  0.00    +0.277 C 
ATOM     18  O   UNL     1       4.218  -2.447   0.379  0.00  0.00    -0.491 OA
ENDBRANCH   1  18
BRANCH  10  19
ATOM     19  N   UNL     1       2.680   0.102  -3.697  0.00  0.00    -0.313 N 
ATOM     20  H   UNL     1       2.282   0.825  -3.186  0.00  0.00    +0.152 HD
BRANCH  19  21
ATOM     21  C   UNL     1       3.864   0.318  -4.408  0.00  0.00    +0.033 A 
ATOM     22  C   UNL     1       4.359  -0.669  -5.251  0.00  0.00    +0.026 A 
ATOM     23  C   UNL     1       5.529  -0.454  -5.953  0.00  0.00    +0.041 A 
ATOM     24  C   UNL     1       6.210   0.744  -5.817  0.00  0.00    +0.142 A 
ATOM     25  C   UNL     1       5.718   1.730  -4.977  0.00  0.00    +0.078 A 
ATOM     26  C   UNL     1       4.545   1.522  -4.277  0.00  0.00    +0.046 A 
ATOM     27 CL   UNL     1       6.574   3.231  -4.808  0.00  0.00    -0.081 Cl
ATOM     28  F   UNL     1       7.354   0.952  -6.504  0.00  0.00    -0.204 F 
ENDBRANCH  19  21
ENDBRANCH  10  19
BRANCH   6  29
ATOM     29  O   UNL     1       2.987  -4.900   0.254  0.00  0.00    -0.490 OA
BRANCH  29  30
ATOM     30  C   UNL     1       2.317  -6.156   0.133  0.00  0.00    +0.211 C 
BRANCH  30  31
ATOM     31  C   UNL     1       2.697  -7.052   1.314  0.00  0.00    -0.037 C 
BRANCH  31  32
ATOM     32  N   UNL     1       2.252  -6.426   2.567  0.00  0.00    +0.382 N 
ATOM     33  C   UNL     1       2.783  -7.183   3.706  0.00  0.00    -0.076 C 
ATOM     34  C   UNL     1       2.390  -6.489   5.012  0.00  0.00    +0.013 C 
ATOM     35  C   UNL     1       0.863  -6.420   5.109  0.00  0.00    +0.111 C 
ATOM     36  C   UNL     1       0.316  -5.693   3.877  0.00  0.00    +0.013 C 
ATOM     37  C   UNL     1       0.785  -6.417   2.614  0.00  0.00    -0.076 C 
ATOM     38  H   UNL     1       2.595  -5.477   2.607  0.00  0.00    -0.082 HD
BRANCH  35  39
ATOM     39  O   UNL     1       0.491  -5.708   6.290  0.00  0.00    -0.392 OA
ATOM     40  H   UNL     1      -0.465  -5.626   6.415  0.00  0.00    +0.210 HD
ENDBRANCH  35  39
ENDBRANCH  31  32
ENDBRANCH  30  31
ENDBRANCH  29  30
ENDBRANCH   6  29
TORSDOF 9
