REMARK  Name = CHEMBL450914
REMARK  9 active torsions:
REMARK  status: ('A' for Active; 'I' for Inactive)
REMARK    1  A    between atoms: C_1  and  C_2
REMARK    2  A    between atoms: C_2  and  N_3
REMARK    3  A    between atoms: C_7  and  C_9
REMARK    4  A    between atoms: C_7  and  O_41
REMARK    5  A    between atoms: C_13  and  N_15
REMARK    6  A    between atoms: C_22  and  C_36
REMARK    7  A    between atoms: N_24  and  C_27
REMARK    8  A    between atoms: N_38  and  O_39
REMARK    9  A    between atoms: O_39  and  C_40
REMARK                            x       y       z     vdW  Elec       q    Type
REMARK                         _______ _______ _______ _____ _____    ______ ____
ROOT
ATOM      1  N   UNL     1       1.364  -6.484   5.149  0.00  0.00    -0.284 N 
ATOM      2  C   UNL     1       1.091  -7.838   5.137  0.00  0.00    +0.221 A 
ATOM      3  N   UNL     1       1.070  -8.476   3.972  0.00  0.00    -0.222 NA
ATOM      4  C   UNL     1       0.814  -9.771   3.909  0.00  0.00    +0.129 A 
ATOM      5  C   UNL     1       0.565 -10.458   5.098  0.00  0.00    +0.083 A 
ATOM      6  C   UNL     1       0.272 -11.899   5.119  0.00  0.00    +0.205 A 
ATOM      7  O   UNL     1       0.234 -12.556   4.093  0.00  0.00    -0.286 OA
ATOM      8  C   UNL     1       0.026 -12.513   6.436  0.00  0.00    +0.102 A 
ATOM      9  C   UNL     1       0.082 -11.720   7.561  0.00  0.00    +0.110 A 
ATOM     10  N   UNL     1       0.352 -10.405   7.500  0.00  0.00    -0.298 N 
ATOM     11  C   UNL     1       0.594  -9.752   6.317  0.00  0.00    +0.154 A 
ATOM     12  N   UNL     1       0.866  -8.452   6.289  0.00  0.00    -0.196 NA
ATOM     13  H   UNL     1       1.462  -6.016   5.992  0.00  0.00    +0.155 HD
ENDROOT
BRANCH  10  14
ATOM     14  C   UNL     1       0.389  -9.671   8.692  0.00  0.00    +0.066 A 
ATOM     15  C   UNL     1      -0.472  -8.594   8.888  0.00  0.00    +0.033 A 
ATOM     16  C   UNL     1      -0.399  -7.898  10.084  0.00  0.00    -0.024 A 
ATOM     17  C   UNL     1       0.519  -8.287  11.042  0.00  0.00    +0.045 A 
ATOM     18  N   UNL     1       1.323  -9.315  10.820  0.00  0.00    -0.258 NA
ATOM     19  C   UNL     1       1.282 -10.007   9.701  0.00  0.00    +0.137 A 
ATOM     20  C   UNL     1       0.407  -7.380  12.250  0.00  0.00    +0.056 C 
ATOM     21  C   UNL     1      -0.363  -6.138  11.754  0.00  0.00    +0.011 C 
ATOM     22  C   UNL     1      -1.187  -6.706  10.579  0.00  0.00    +0.037 C 
ENDBRANCH  10  14
BRANCH   1  27
ATOM     23  C   UNL     1       2.526  -4.045   2.656  0.00  0.00    -0.016 A 
ATOM     24  C   UNL     1       1.768  -4.411   1.559  0.00  0.00    +0.006 A 
ATOM     25  C   UNL     1       0.876  -5.463   1.651  0.00  0.00    +0.002 A 
ATOM     26  C   UNL     1       0.740  -6.153   2.840  0.00  0.00    +0.023 A 
ATOM     27  C   UNL     1       1.500  -5.788   3.943  0.00  0.00    +0.034 A 
ATOM     28  C   UNL     1       2.399  -4.734   3.846  0.00  0.00    +0.029 A 
BRANCH  23  33
ATOM     29  N   UNL     1       3.925  -0.764   1.423  0.00  0.00    +0.382 N 
ATOM     30  C   UNL     1       5.215  -1.248   0.920  0.00  0.00    -0.079 C 
ATOM     31  C   UNL     1       5.818  -2.238   1.919  0.00  0.00    -0.016 C 
ATOM     32  C   UNL     1       4.862  -3.421   2.097  0.00  0.00    +0.036 C 
ATOM     33  C   UNL     1       3.497  -2.897   2.552  0.00  0.00    +0.076 C 
ATOM     34  C   UNL     1       2.980  -1.882   1.529  0.00  0.00    -0.039 C 
ATOM     35  H   UNL     1       4.056  -0.348   2.333  0.00  0.00    -0.082 HD
BRANCH  29  37
ATOM     36  C   UNL     1       4.309   1.465   0.483  0.00  0.00    -0.017 C 
ATOM     37  C   UNL     1       3.387   0.244   0.499  0.00  0.00    -0.082 C 
ENDBRANCH  29  37
BRANCH  33  38
ATOM     38  O   UNL     1       3.628  -2.264   3.826  0.00  0.00    -0.386 OA
ATOM     39  H   UNL     1       3.956  -2.849   4.524  0.00  0.00    +0.211 HD
ENDBRANCH  33  38
ENDBRANCH  23  33
ENDBRANCH   1  27
BRANCH   8  40
ATOM     40  C   UNL     1      -0.275 -13.949   6.546  0.00  0.00    +0.272 C 
ATOM     41  O   UNL     1      -0.579 -14.425   7.624  0.00  0.00    -0.268 OA
ATOM     42  N   UNL     1      -0.213 -14.737   5.455  0.00  0.00    -0.191 N 
ATOM     43  H   UNL     1       0.105 -14.375   4.613  0.00  0.00    +0.183 HD
BRANCH  42  44
ATOM     44  O   UNL     1      -0.613 -16.093   5.536  0.00  0.00    -0.283 OA
ATOM     45  C   UNL     1      -0.495 -16.808   4.305  0.00  0.00    +0.226 C 
ENDBRANCH  42  44
ENDBRANCH   8  40
TORSDOF 7
