REMARK  Name = CHEMBL271259
REMARK  3 active torsions:
REMARK  status: ('A' for Active; 'I' for Inactive)
REMARK    1  A    between atoms: C_1  and  C_2
REMARK    2  A    between atoms: C_4  and  C_7
REMARK    3  A    between atoms: C_8  and  C_19
REMARK                            x       y       z     vdW  Elec       q    Type
REMARK                         _______ _______ _______ _____ _____    ______ ____
ROOT
ATOM      1  C   UNL     1       0.040  -3.307  -1.600  0.00  0.00    +0.094 A 
ATOM      2  C   UNL     1      -1.045  -4.192  -1.606  0.00  0.00    +0.007 A 
ATOM      3  C   UNL     1      -0.973  -5.314  -2.466  0.00  0.00    +0.013 A 
ATOM      4  C   UNL     1      -2.006  -6.258  -2.546  0.00  0.00    +0.050 A 
ATOM      5  C   UNL     1      -1.864  -7.315  -3.399  0.00  0.00    +0.130 A 
ATOM      6  N   UNL     1      -0.779  -7.464  -4.146  0.00  0.00    -0.241 NA
ATOM      7  C   UNL     1       0.224  -6.618  -4.119  0.00  0.00    +0.140 A 
ATOM      8  C   UNL     1       0.177  -5.497  -3.274  0.00  0.00    +0.094 A 
ATOM      9  N   UNL     1       1.183  -4.616  -3.225  0.00  0.00    -0.207 NA
ATOM     10  C   UNL     1       1.143  -3.562  -2.443  0.00  0.00    +0.282 A 
ATOM     11  O   UNL     1       2.190  -2.701  -2.441  0.00  0.00    -0.265 OA
ATOM     12 CL   UNL     1      -3.136  -8.492  -3.508  0.00  0.00    -0.062 Cl
ENDROOT
BRANCH   1  16
ATOM     13  C   UNL     1      -0.018   1.503   0.010  0.00  0.00    +0.069 C 
ATOM     14  C   UNL     1       0.002  -0.004   0.002  0.00  0.00    +0.081 A 
ATOM     15  C   UNL     1       0.008  -0.819  -1.139  0.00  0.00    +0.076 A 
ATOM     16  C   UNL     1       0.028  -2.118  -0.728  0.00  0.00    +0.173 A 
ATOM     17  O   UNL     1       0.035  -2.120   0.619  0.00  0.00    -0.354 OA
ATOM     18  N   UNL     1       0.023  -0.773   1.055  0.00  0.00    -0.083 NA
ENDBRANCH   1  16
BRANCH   2  19
ATOM     19  C   UNL     1      -2.225  -3.963  -0.744  0.00  0.00    -0.016 A 
ATOM     20  C   UNL     1      -2.527  -4.857   0.284  0.00  0.00    +0.008 A 
ATOM     21  C   UNL     1      -3.628  -4.637   1.085  0.00  0.00    +0.001 A 
ATOM     22  C   UNL     1      -4.434  -3.533   0.870  0.00  0.00    +0.000 A 
ATOM     23  C   UNL     1      -4.140  -2.642  -0.148  0.00  0.00    +0.001 A 
ATOM     24  C   UNL     1      -3.038  -2.847  -0.952  0.00  0.00    +0.008 A 
ENDBRANCH   2  19
TORSDOF 2
