REMARK  Name = CHEMBL1172345
REMARK  5 active torsions:
REMARK  status: ('A' for Active; 'I' for Inactive)
REMARK    1  A    between atoms: C_3  and  N_20
REMARK    2  A    between atoms: C_4  and  C_14
REMARK    3  A    between atoms: C_6  and  C_7
REMARK    4  A    between atoms: C_21  and  C_23
REMARK    5  A    between atoms: C_27  and  C_29
REMARK                            x       y       z     vdW  Elec       q    Type
REMARK                         _______ _______ _______ _____ _____    ______ ____
ROOT
ATOM      1  C   UNL     1      -0.020   1.405   0.031  0.00  0.00    +0.010 A 
ATOM      2  C   UNL     1       1.165   2.112   0.015  0.00  0.00    +0.024 A 
ATOM      3  C   UNL     1       2.379   1.438  -0.005  0.00  0.00    +0.041 A 
ATOM      4  C   UNL     1       2.402   0.036  -0.010  0.00  0.00    -0.000 A 
ATOM      5  C   UNL     1       1.205  -0.675   0.007  0.00  0.00    +0.018 A 
ATOM      6  C   UNL     1      -0.006   0.010   0.026  0.00  0.00    -0.017 A 
ENDROOT
BRANCH   6   7
ATOM      7  C   UNL     1      -1.284  -0.743   0.043  0.00  0.00    -0.015 A 
ATOM      8  C   UNL     1      -1.293  -2.141   0.045  0.00  0.00    +0.030 A 
ATOM      9  C   UNL     1      -2.503  -2.803   0.061  0.00  0.00    +0.134 A 
ATOM     10  N   UNL     1      -3.641  -2.133   0.074  0.00  0.00    -0.147 N 
ATOM     11  O   UNL     1      -4.861  -2.852   0.090  0.00  0.00    -0.164 OA
ATOM     12  C   UNL     1      -3.676  -0.813   0.072  0.00  0.00    +0.134 A 
ATOM     13  C   UNL     1      -2.511  -0.074   0.063  0.00  0.00    +0.030 A 
ENDBRANCH   6   7
BRANCH   4  14
ATOM     14  C   UNL     1       3.691  -0.684  -0.032  0.00  0.00    -0.042 C 
ATOM     15  C   UNL     1       4.361  -0.716  -1.159  0.00  0.00    -0.023 C 
ATOM     16  C   UNL     1       5.678  -1.417  -1.329  0.00  0.00    +0.027 C 
ATOM     17  C   UNL     1       6.306  -1.698   0.037  0.00  0.00    +0.004 C 
ATOM     18  C   UNL     1       5.251  -2.362   0.931  0.00  0.00    +0.005 C 
ATOM     19  C   UNL     1       4.161  -1.332   1.238  0.00  0.00    +0.035 C 
ENDBRANCH   4  14
BRANCH   3  20
ATOM     20  N   UNL     1       3.574   2.156  -0.022  0.00  0.00    -0.278 N 
ATOM     21  C   UNL     1       3.649   3.326  -0.686  0.00  0.00    +0.284 C 
ATOM     22  O   UNL     1       2.653   3.797  -1.202  0.00  0.00    -0.267 OA
ATOM     23  H   UNL     1       4.352   1.813   0.445  0.00  0.00    +0.155 HD
BRANCH  21  24
ATOM     24  C   UNL     1       4.938   4.036  -0.788  0.00  0.00    +0.195 A 
ATOM     25  N   UNL     1       5.142   5.228  -1.428  0.00  0.00    -0.340 N 
ATOM     26  H   UNL     1       4.470   5.753  -1.890  0.00  0.00    +0.167 HD
ATOM     27  C   UNL     1       6.447   5.541  -1.297  0.00  0.00    +0.123 A 
ATOM     28  C   UNL     1       7.032   4.523  -0.570  0.00  0.00    +0.158 A 
ATOM     29  N   UNL     1       6.076   3.629  -0.276  0.00  0.00    -0.213 NA
BRANCH  28  30
ATOM     30  C   UNL     1       8.411   4.439  -0.193  0.00  0.00    +0.121 C 
ATOM     31  N   UNL     1       9.505   4.372   0.106  0.00  0.00    -0.189 NA
ENDBRANCH  28  30
ENDBRANCH  21  24
ENDBRANCH   3  20
TORSDOF 5
