REMARK  Name = CHEMBL481402
REMARK  11 active torsions:
REMARK  status: ('A' for Active; 'I' for Inactive)
REMARK    1  A    between atoms: C_1  and  N_2
REMARK    2  A    between atoms: N_5  and  C_8
REMARK    3  A    between atoms: C_8  and  C_9
REMARK    4  A    between atoms: C_9  and  C_10
REMARK    5  A    between atoms: C_10  and  O_11
REMARK    6  A    between atoms: O_11  and  C_12
REMARK    7  A    between atoms: C_17  and  O_18
REMARK    8  A    between atoms: O_18  and  C_19
REMARK    9  A    between atoms: C_22  and  C_33
REMARK   10  A    between atoms: C_23  and  N_24
REMARK   11  A    between atoms: N_24  and  C_25
REMARK                            x       y       z     vdW  Elec       q    Type
REMARK                         _______ _______ _______ _____ _____    ______ ____
ROOT
ATOM      1  C   UNL     1       3.595  -9.238   3.499  0.00  0.00    +0.163 A 
ATOM      2  C   UNL     1       2.450  -9.438   2.783  0.00  0.00    +0.061 A 
ATOM      3  C   UNL     1       1.402 -10.186   3.338  0.00  0.00    +0.024 A 
ATOM      4  C   UNL     1       1.534 -10.731   4.638  0.00  0.00    +0.052 A 
ATOM      5  C   UNL     1       2.720 -10.512   5.354  0.00  0.00    +0.075 A 
ATOM      6  C   UNL     1       3.737  -9.779   4.784  0.00  0.00    +0.163 A 
ATOM      7  N   UNL     1       0.535 -11.449   5.175  0.00  0.00    -0.360 N 
ATOM      8  C   UNL     1      -0.582 -11.671   4.532  0.00  0.00    +0.098 A 
ATOM      9  C   UNL     1      -0.800 -11.168   3.239  0.00  0.00    +0.074 A 
ATOM     10  C   UNL     1       0.204 -10.409   2.619  0.00  0.00    +0.054 A 
ATOM     11  H   UNL     1       0.645 -11.814   6.066  0.00  0.00    +0.165 HD
ENDROOT
BRANCH   9  12
ATOM     12  C   UNL     1      -2.068 -11.436   2.541  0.00  0.00    +0.245 C 
ATOM     13  O   UNL     1      -2.213 -11.082   1.386  0.00  0.00    -0.270 OA
ATOM     14  N   UNL     1      -3.068 -12.073   3.181  0.00  0.00    -0.325 N 
ATOM     15  H   UNL     1      -2.952 -12.355   4.102  0.00  0.00    +0.145 HD
ATOM     16  H   UNL     1      -3.904 -12.249   2.721  0.00  0.00    +0.145 HD
ENDBRANCH   9  12
BRANCH   6  17
ATOM     17  O   UNL     1       4.887  -9.574   5.476  0.00  0.00    -0.491 OA
ATOM     18  C   UNL     1       4.971 -10.151   6.781  0.00  0.00    +0.277 C 
ENDBRANCH   6  17
BRANCH  10  19
ATOM     19  N   UNL     1       0.029  -9.897   1.351  0.00  0.00    -0.313 N 
ATOM     20  H   UNL     1      -0.361  -9.017   1.233  0.00  0.00    +0.152 HD
BRANCH  19  21
ATOM     21  C   UNL     1       0.415 -10.646   0.235  0.00  0.00    +0.033 A 
ATOM     22  C   UNL     1       0.786 -11.976   0.385  0.00  0.00    +0.026 A 
ATOM     23  C   UNL     1       1.165 -12.715  -0.718  0.00  0.00    +0.041 A 
ATOM     24  C   UNL     1       1.177 -12.131  -1.974  0.00  0.00    +0.142 A 
ATOM     25  C   UNL     1       0.808 -10.805  -2.126  0.00  0.00    +0.078 A 
ATOM     26  C   UNL     1       0.422 -10.063  -1.026  0.00  0.00    +0.046 A 
ATOM     27 CL   UNL     1       0.825 -10.075  -3.701  0.00  0.00    -0.081 Cl
ATOM     28  F   UNL     1       1.550 -12.856  -3.051  0.00  0.00    -0.204 F 
ENDBRANCH  19  21
ENDBRANCH  10  19
BRANCH   1  29
ATOM     29  O   UNL     1       4.610  -8.512   2.958  0.00  0.00    -0.488 OA
BRANCH  29  30
ATOM     30  C   UNL     1       4.404  -7.988   1.645  0.00  0.00    +0.230 C 
BRANCH  30  31
ATOM     31  C   UNL     1       5.645  -7.206   1.207  0.00  0.00    +0.056 C 
BRANCH  31  32
ATOM     32  C   UNL     1       5.424  -6.644  -0.199  0.00  0.00    +0.087 C 
BRANCH  32  37
ATOM     33  C   UNL     1       9.928  -4.459  -2.785  0.00  0.00    -0.096 C 
ATOM     34  N   UNL     1       8.739  -5.238  -2.412  0.00  0.00    +0.379 N 
ATOM     35  C   UNL     1       7.599  -4.331  -2.226  0.00  0.00    -0.064 C 
ATOM     36  C   UNL     1       6.356  -5.144  -1.856  0.00  0.00    +0.066 C 
ATOM     37  N   UNL     1       6.615  -5.894  -0.619  0.00  0.00    -0.306 NA
ATOM     38  C   UNL     1       7.770  -6.788  -0.782  0.00  0.00    +0.066 C 
ATOM     39  C   UNL     1       9.001  -5.962  -1.161  0.00  0.00    -0.064 C 
ATOM     40  H   UNL     1       8.527  -5.899  -3.145  0.00  0.00    -0.082 HD
ENDBRANCH  32  37
ENDBRANCH  31  32
ENDBRANCH  30  31
ENDBRANCH  29  30
ENDBRANCH   1  29
TORSDOF 9
