REMARK  Name = CHEMBL1169979
REMARK  10 active torsions:
REMARK  status: ('A' for Active; 'I' for Inactive)
REMARK    1  A    between atoms: C_1  and  C_2
REMARK    2  A    between atoms: C_2  and  C_35
REMARK    3  A    between atoms: C_5  and  C_8
REMARK    4  A    between atoms: C_10  and  C_24
REMARK    5  A    between atoms: C_13  and  N_14
REMARK    6  A    between atoms: C_15  and  C_17
REMARK    7  A    between atoms: C_20  and  C_22
REMARK    8  A    between atoms: N_26  and  C_34
REMARK    9  A    between atoms: N_28  and  C_29
REMARK   10  A    between atoms: N_31  and  C_33
REMARK                            x       y       z     vdW  Elec       q    Type
REMARK                         _______ _______ _______ _____ _____    ______ ____
ROOT
ATOM      1  C   UNL     1      -0.480  -4.140   0.999  0.00  0.00    -0.001 A 
ATOM      2  C   UNL     1      -1.488  -4.670   1.805  0.00  0.00    +0.014 A 
ATOM      3  C   UNL     1      -1.555  -6.031   2.018  0.00  0.00    -0.041 A 
ATOM      4  C   UNL     1      -0.625  -6.876   1.436  0.00  0.00    +0.006 A 
ATOM      5  C   UNL     1       0.379  -6.364   0.636  0.00  0.00    +0.024 A 
ATOM      6  C   UNL     1       0.457  -4.998   0.407  0.00  0.00    +0.041 A 
ENDROOT
BRANCH   3   7
ATOM      7  C   UNL     1      -2.645  -6.601   2.889  0.00  0.00    +0.054 C 
ATOM      8  C   UNL     1      -2.018  -7.347   4.072  0.00  0.00    +0.117 C 
ATOM      9  N   UNL     1      -3.092  -7.992   4.844  0.00  0.00    -0.305 N 
ATOM     10  C   UNL     1      -4.012  -8.744   4.148  0.00  0.00    +0.196 C 
ATOM     11  N   UNL     1      -4.426  -9.918   4.591  0.00  0.00    -0.142 NA
ATOM     12  N   UNL     1      -4.478  -8.211   2.966  0.00  0.00    -0.305 N 
ATOM     13  C   UNL     1      -3.494  -7.581   2.071  0.00  0.00    +0.117 C 
ATOM     14  C   UNL     1      -5.898  -8.269   2.614  0.00  0.00    +0.132 C 
ATOM     15  C   UNL     1      -3.181  -7.838   6.298  0.00  0.00    +0.132 C 
BRANCH  11  16
ATOM     16  C   UNL     1      -5.332 -10.630   3.877  0.00  0.00    +0.208 C 
ATOM     17  N   UNL     1      -6.092 -11.227   3.280  0.00  0.00    -0.169 NA
ENDBRANCH  11  16
ENDBRANCH   3   7
BRANCH   1  22
ATOM     18  C   UNL     1      -0.037   1.520   0.030  0.00  0.00    +0.011 C 
ATOM     19  C   UNL     1      -0.012  -0.010   0.014  0.00  0.00    -0.031 C 
ATOM     20  C   UNL     1      -1.448  -0.549   0.040  0.00  0.00    +0.011 C 
ATOM     21  C   UNL     1      -1.401  -2.064  -0.168  0.00  0.00    +0.036 C 
ATOM     22  C   UNL     1      -0.403  -2.683   0.766  0.00  0.00    -0.042 C 
ATOM     23  C   UNL     1       0.533  -2.007   1.389  0.00  0.00    -0.022 C 
ATOM     24  C   UNL     1       0.722  -0.524   1.254  0.00  0.00    +0.034 C 
ATOM     25  C   UNL     1       0.703  -0.500  -1.246  0.00  0.00    +0.011 C 
ENDBRANCH   1  22
BRANCH   6  26
ATOM     26  N   UNL     1       1.467  -4.481  -0.406  0.00  0.00    -0.278 N 
ATOM     27  C   UNL     1       2.689  -5.049  -0.407  0.00  0.00    +0.286 C 
ATOM     28  O   UNL     1       2.889  -6.061   0.236  0.00  0.00    -0.266 OA
ATOM     29  H   UNL     1       1.289  -3.712  -0.969  0.00  0.00    +0.155 HD
BRANCH  27  30
ATOM     30  C   UNL     1       3.783  -4.444  -1.189  0.00  0.00    +0.217 A 
ATOM     31  N   UNL     1       3.687  -3.307  -1.945  0.00  0.00    -0.229 NA
ATOM     32  C   UNL     1       4.896  -3.084  -2.499  0.00  0.00    +0.152 A 
ATOM     33  C   UNL     1       5.727  -4.101  -2.069  0.00  0.00    +0.161 A 
ATOM     34  N   UNL     1       5.010  -4.903  -1.268  0.00  0.00    -0.211 NA
BRANCH  33  35
ATOM     35  C   UNL     1       7.108  -4.264  -2.411  0.00  0.00    +0.121 C 
ATOM     36  N   UNL     1       8.203  -4.394  -2.683  0.00  0.00    -0.189 NA
ENDBRANCH  33  35
ENDBRANCH  27  30
ENDBRANCH   6  26
TORSDOF 6
