REMARK  Name = CHEMBL398237
REMARK  9 active torsions:
REMARK  status: ('A' for Active; 'I' for Inactive)
REMARK    1  A    between atoms: C_1  and  C_2
REMARK    2  A    between atoms: N_5  and  C_8
REMARK    3  A    between atoms: C_10  and  N_24
REMARK    4  A    between atoms: C_13  and  N_14
REMARK    5  A    between atoms: C_15  and  C_17
REMARK    6  A    between atoms: C_20  and  C_22
REMARK    7  A    between atoms: N_27  and  C_30
REMARK    8  A    between atoms: C_30  and  C_31
REMARK    9  A    between atoms: C_31  and  O_32
REMARK                            x       y       z     vdW  Elec       q    Type
REMARK                         _______ _______ _______ _____ _____    ______ ____
ROOT
ATOM      1  C   UNL     1      -1.164  -3.587   2.058  0.00  0.00    +0.053 A 
ATOM      2  C   UNL     1      -1.054  -4.957   1.878  0.00  0.00    +0.048 A 
ATOM      3  C   UNL     1      -1.571  -5.825   2.830  0.00  0.00    +0.032 A 
ATOM      4  C   UNL     1      -2.197  -5.321   3.964  0.00  0.00    +0.025 A 
ATOM      5  C   UNL     1      -2.308  -3.956   4.146  0.00  0.00    +0.027 A 
ATOM      6  C   UNL     1      -1.788  -3.084   3.200  0.00  0.00    +0.055 A 
ENDROOT
BRANCH   1  11
ATOM      7  C   UNL     1       0.035   1.294  -0.169  0.00  0.00    +0.007 C 
ATOM      8  C   UNL     1       0.005  -0.235  -0.103  0.00  0.00    -0.011 C 
ATOM      9  C   UNL     1      -1.448  -0.713  -0.049  0.00  0.00    +0.022 C 
ATOM     10  C   UNL     1      -1.476  -2.245  -0.018  0.00  0.00    +0.105 C 
ATOM     11  N   UNL     1      -0.644  -2.710   1.100  0.00  0.00    -0.328 N 
ATOM     12  C   UNL     1       0.744  -2.237   1.194  0.00  0.00    +0.105 C 
ATOM     13  C   UNL     1       0.747  -0.706   1.149  0.00  0.00    +0.022 C 
ENDBRANCH   1  11
BRANCH   3  14
ATOM     14  N   UNL     1      -1.461  -7.208   2.649  0.00  0.00    -0.327 N 
ATOM     15  C   UNL     1      -0.904  -7.764   1.407  0.00  0.00    +0.120 C 
ATOM     16  C   UNL     1       0.194  -8.769   1.773  0.00  0.00    +0.103 C 
ATOM     17  N   UNL     1      -0.349  -9.762   2.710  0.00  0.00    -0.297 NA
ATOM     18  C   UNL     1      -0.764  -9.133   3.971  0.00  0.00    +0.103 C 
ATOM     19  C   UNL     1      -1.895  -8.143   3.698  0.00  0.00    +0.120 C 
BRANCH  17  20
ATOM     20  C   UNL     1       0.619 -10.840   2.953  0.00  0.00    +0.112 C 
BRANCH  20  21
ATOM     21  C   UNL     1      -0.062 -11.972   3.725  0.00  0.00    +0.171 C 
BRANCH  21  22
ATOM     22  O   UNL     1      -1.083 -12.556   2.914  0.00  0.00    -0.394 OA
ATOM     23  H   UNL     1      -1.558 -13.282   3.341  0.00  0.00    +0.209 HD
ENDBRANCH  21  22
ENDBRANCH  20  21
ENDBRANCH  17  20
ENDBRANCH   3  14
BRANCH   6  24
ATOM     24  N   UNL     1      -1.896  -1.699   3.389  0.00  0.00    -0.277 N 
ATOM     25  C   UNL     1      -2.890  -1.197   4.147  0.00  0.00    +0.284 C 
ATOM     26  O   UNL     1      -3.652  -1.949   4.727  0.00  0.00    -0.266 OA
ATOM     27  H   UNL     1      -1.254  -1.102   2.973  0.00  0.00    +0.155 HD
BRANCH  25  28
ATOM     28  C   UNL     1      -3.055   0.258   4.275  0.00  0.00    +0.191 A 
ATOM     29  C   UNL     1      -4.015   0.890   5.014  0.00  0.00    +0.056 A 
ATOM     30  C   UNL     1      -3.811   2.266   4.859  0.00  0.00    +0.061 A 
ATOM     31  C   UNL     1      -2.726   2.416   4.024  0.00  0.00    +0.205 A 
ATOM     32  O   UNL     1      -2.282   1.191   3.688  0.00  0.00    -0.440 OA
BRANCH  31  33
ATOM     33  C   UNL     1      -2.164   3.660   3.592  0.00  0.00    +0.138 C 
ATOM     34  N   UNL     1      -1.718   4.648   3.250  0.00  0.00    -0.188 NA
ENDBRANCH  31  33
ENDBRANCH  25  28
ENDBRANCH   6  24
TORSDOF 8
