REMARK  Name = CHEMBL1172116
REMARK  5 active torsions:
REMARK  status: ('A' for Active; 'I' for Inactive)
REMARK    1  A    between atoms: C_6  and  C_8
REMARK    2  A    between atoms: C_11  and  N_20
REMARK    3  A    between atoms: C_12  and  C_14
REMARK    4  A    between atoms: C_21  and  C_23
REMARK    5  A    between atoms: C_26  and  C_28
REMARK                            x       y       z     vdW  Elec       q    Type
REMARK                         _______ _______ _______ _____ _____    ______ ____
ROOT
ATOM      1  C   UNL     1       1.284  -2.147   0.016  0.00  0.00    +0.003 A 
ATOM      2  C   UNL     1       2.506  -2.820   0.057  0.00  0.00    +0.012 A 
ATOM      3  C   UNL     1       2.541  -4.198   0.035  0.00  0.00    +0.024 A 
ATOM      4  C   UNL     1       1.360  -4.926  -0.029  0.00  0.00    +0.041 A 
ATOM      5  C   UNL     1       0.128  -4.258  -0.070  0.00  0.00    -0.000 A 
ATOM      6  C   UNL     1       0.095  -2.866  -0.042  0.00  0.00    +0.020 A 
ENDROOT
BRANCH   1  12
ATOM      7  C   UNL     1       2.280   1.440  -0.458  0.00  0.00    +0.004 A 
ATOM      8  C   UNL     1       1.169   2.058   0.099  0.00  0.00    +0.021 A 
ATOM      9  C   UNL     1       0.143   1.281   0.604  0.00  0.00    +0.134 A 
ATOM     10  N   UNL     1       0.208  -0.036   0.564  0.00  0.00    -0.139 N 
ATOM     11  O   UNL     1      -0.863  -0.797   1.091  0.00  0.00    -0.164 OA
ATOM     12  C   UNL     1       1.254  -0.665   0.039  0.00  0.00    +0.092 A 
ATOM     13  C   UNL     1       2.322   0.057  -0.488  0.00  0.00    +0.030 A 
ENDBRANCH   1  12
BRANCH   5  14
ATOM     14  C   UNL     1      -1.131  -5.028  -0.138  0.00  0.00    -0.042 C 
ATOM     15  C   UNL     1      -1.450  -5.591  -1.279  0.00  0.00    -0.023 C 
ATOM     16  C   UNL     1      -2.700  -6.393  -1.495  0.00  0.00    +0.027 C 
ATOM     17  C   UNL     1      -3.297  -6.810  -0.150  0.00  0.00    +0.004 C 
ATOM     18  C   UNL     1      -3.389  -5.569   0.747  0.00  0.00    +0.005 C 
ATOM     19  C   UNL     1      -1.967  -5.127   1.105  0.00  0.00    +0.035 C 
ENDBRANCH   5  14
BRANCH   4  20
ATOM     20  N   UNL     1       1.400  -6.319  -0.052  0.00  0.00    -0.278 N 
ATOM     21  C   UNL     1       2.477  -6.955  -0.555  0.00  0.00    +0.286 C 
ATOM     22  O   UNL     1       3.446  -6.315  -0.917  0.00  0.00    -0.266 OA
ATOM     23  H   UNL     1       0.653  -6.832   0.295  0.00  0.00    +0.155 HD
BRANCH  21  24
ATOM     24  C   UNL     1       2.479  -8.425  -0.668  0.00  0.00    +0.217 A 
ATOM     25  N   UNL     1       1.453  -9.253  -0.303  0.00  0.00    -0.229 NA
ATOM     26  C   UNL     1       1.841 -10.519  -0.561  0.00  0.00    +0.152 A 
ATOM     27  C   UNL     1       3.116 -10.448  -1.087  0.00  0.00    +0.161 A 
ATOM     28  N   UNL     1       3.464  -9.153  -1.140  0.00  0.00    -0.211 NA
BRANCH  27  29
ATOM     29  C   UNL     1       3.920 -11.556  -1.507  0.00  0.00    +0.121 C 
ATOM     30  N   UNL     1       4.558 -12.436  -1.839  0.00  0.00    -0.189 NA
ENDBRANCH  27  29
ENDBRANCH  21  24
ENDBRANCH   4  20
TORSDOF 5
