REMARK  Name = CHEMBL252832
REMARK  6 active torsions:
REMARK  status: ('A' for Active; 'I' for Inactive)
REMARK    1  A    between atoms: C_1  and  N_2
REMARK    2  A    between atoms: N_5  and  C_8
REMARK    3  A    between atoms: C_11  and  N_20
REMARK    4  A    between atoms: C_12  and  N_14
REMARK    5  A    between atoms: C_21  and  C_23
REMARK    6  A    between atoms: C_26  and  C_28
REMARK                            x       y       z     vdW  Elec       q    Type
REMARK                         _______ _______ _______ _____ _____    ______ ____
ROOT
ATOM      1  C   UNL     1      -1.005  -3.586   1.791  0.00  0.00    +0.031 A 
ATOM      2  C   UNL     1      -2.305  -4.059   1.664  0.00  0.00    +0.025 A 
ATOM      3  C   UNL     1      -2.753  -5.083   2.475  0.00  0.00    +0.027 A 
ATOM      4  C   UNL     1      -1.906  -5.643   3.420  0.00  0.00    +0.055 A 
ATOM      5  C   UNL     1      -0.600  -5.170   3.551  0.00  0.00    +0.053 A 
ATOM      6  C   UNL     1      -0.151  -4.146   2.731  0.00  0.00    +0.048 A 
ENDROOT
BRANCH   1  11
ATOM      7  C   UNL     1      -0.131   1.506   0.029  0.00  0.00    -0.096 C 
ATOM      8  N   UNL     1      -0.082   0.038   0.022  0.00  0.00    +0.380 N 
ATOM      9  C   UNL     1      -1.450  -0.496   0.006  0.00  0.00    -0.060 C 
ATOM     10  C   UNL     1      -1.399  -2.023  -0.116  0.00  0.00    +0.086 C 
ATOM     11  N   UNL     1      -0.555  -2.550   0.967  0.00  0.00    -0.333 N 
ATOM     12  C   UNL     1       0.777  -1.954   1.160  0.00  0.00    +0.086 C 
ATOM     13  C   UNL     1       0.624  -0.431   1.222  0.00  0.00    -0.060 C 
ATOM     14  H   UNL     1       0.410  -0.277  -0.800  0.00  0.00    -0.082 HD
ENDBRANCH   1  11
BRANCH   5  15
ATOM     15  N   UNL     1       0.257  -5.733   4.503  0.00  0.00    -0.324 N 
ATOM     16  C   UNL     1       1.116  -6.879   4.165  0.00  0.00    +0.133 C 
ATOM     17  C   UNL     1       2.550  -6.552   4.598  0.00  0.00    +0.178 C 
ATOM     18  O   UNL     1       2.546  -6.142   5.968  0.00  0.00    -0.377 OA
ATOM     19  C   UNL     1       1.798  -4.951   6.221  0.00  0.00    +0.178 C 
ATOM     20  C   UNL     1       0.330  -5.192   5.869  0.00  0.00    +0.133 C 
ENDBRANCH   5  15
BRANCH   4  21
ATOM     21  N   UNL     1      -2.362  -6.682   4.244  0.00  0.00    -0.277 N 
ATOM     22  C   UNL     1      -3.244  -7.583   3.767  0.00  0.00    +0.284 C 
ATOM     23  O   UNL     1      -3.566  -7.556   2.594  0.00  0.00    -0.266 OA
ATOM     24  H   UNL     1      -2.042  -6.753   5.157  0.00  0.00    +0.155 HD
BRANCH  22  25
ATOM     25  C   UNL     1      -3.817  -8.597   4.663  0.00  0.00    +0.191 A 
ATOM     26  C   UNL     1      -4.713  -9.564   4.304  0.00  0.00    +0.056 A 
ATOM     27  C   UNL     1      -4.992 -10.310   5.455  0.00  0.00    +0.061 A 
ATOM     28  C   UNL     1      -4.249  -9.761   6.476  0.00  0.00    +0.205 A 
ATOM     29  O   UNL     1      -3.543  -8.731   5.975  0.00  0.00    -0.440 OA
BRANCH  28  30
ATOM     30  C   UNL     1      -4.227 -10.212   7.835  0.00  0.00    +0.138 C 
ATOM     31  N   UNL     1      -4.210 -10.569   8.913  0.00  0.00    -0.188 NA
ENDBRANCH  28  30
ENDBRANCH  22  25
ENDBRANCH   4  21
TORSDOF 5
