REMARK  Name = CHEMBL521255
REMARK  10 active torsions:
REMARK  status: ('A' for Active; 'I' for Inactive)
REMARK    1  A    between atoms: C_1  and  O_2
REMARK    2  A    between atoms: O_2  and  C_3
REMARK    3  A    between atoms: C_8  and  O_9
REMARK    4  A    between atoms: O_9  and  C_10
REMARK    5  A    between atoms: C_10  and  C_11
REMARK    6  A    between atoms: C_11  and  N_12
REMARK    7  A    between atoms: N_12  and  C_13
REMARK    8  A    between atoms: C_18  and  C_29
REMARK    9  A    between atoms: C_19  and  N_20
REMARK   10  A    between atoms: N_20  and  C_21
REMARK                            x       y       z     vdW  Elec       q    Type
REMARK                         _______ _______ _______ _____ _____    ______ ____
ROOT
ATOM      1  C   UNL     1       4.109  -1.768  -0.789  0.00  0.00    +0.162 A 
ATOM      2  C   UNL     1       3.725  -0.763  -1.629  0.00  0.00    +0.061 A 
ATOM      3  C   UNL     1       2.895  -1.047  -2.723  0.00  0.00    +0.026 A 
ATOM      4  C   UNL     1       2.458  -2.374  -2.953  0.00  0.00    +0.076 A 
ATOM      5  C   UNL     1       2.865  -3.389  -2.075  0.00  0.00    +0.077 A 
ATOM      6  C   UNL     1       3.685  -3.086  -1.012  0.00  0.00    +0.164 A 
ATOM      7  N   UNL     1       1.664  -2.652  -3.998  0.00  0.00    -0.254 NA
ATOM      8  C   UNL     1       1.268  -1.727  -4.834  0.00  0.00    +0.126 A 
ATOM      9  C   UNL     1       1.653  -0.385  -4.683  0.00  0.00    +0.076 A 
ATOM     10  C   UNL     1       2.483  -0.025  -3.610  0.00  0.00    +0.054 A 
ENDROOT
BRANCH   9  11
ATOM     11  C   UNL     1       1.191   0.633  -5.640  0.00  0.00    +0.245 C 
ATOM     12  O   UNL     1       1.447   1.807  -5.450  0.00  0.00    -0.270 OA
ATOM     13  N   UNL     1       0.485   0.265  -6.728  0.00  0.00    -0.325 N 
ATOM     14  H   UNL     1       0.282  -0.671  -6.879  0.00  0.00    +0.145 HD
ATOM     15  H   UNL     1       0.181   0.936  -7.358  0.00  0.00    +0.145 HD
ENDBRANCH   9  11
BRANCH   1  17
ATOM     16  C   UNL     1       5.311  -0.129   0.445  0.00  0.00    +0.277 C 
ATOM     17  O   UNL     1       4.914  -1.490   0.271  0.00  0.00    -0.491 OA
ENDBRANCH   1  17
BRANCH  10  18
ATOM     18  N   UNL     1       2.882   1.282  -3.426  0.00  0.00    -0.313 N 
ATOM     19  H   UNL     1       2.387   1.861  -2.825  0.00  0.00    +0.152 HD
BRANCH  18  20
ATOM     20  C   UNL     1       4.002   1.773  -4.104  0.00  0.00    +0.033 A 
ATOM     21  C   UNL     1       4.628   0.993  -5.068  0.00  0.00    +0.026 A 
ATOM     22  C   UNL     1       5.734   1.480  -5.738  0.00  0.00    +0.041 A 
ATOM     23  C   UNL     1       6.219   2.744  -5.449  0.00  0.00    +0.142 A 
ATOM     24  C   UNL     1       5.596   3.524  -4.488  0.00  0.00    +0.078 A 
ATOM     25  C   UNL     1       4.486   3.043  -3.820  0.00  0.00    +0.046 A 
ATOM     26 CL   UNL     1       6.207   5.109  -4.128  0.00  0.00    -0.081 Cl
ATOM     27  F   UNL     1       7.301   3.218  -6.106  0.00  0.00    -0.204 F 
ENDBRANCH  18  20
ENDBRANCH  10  18
BRANCH   6  28
ATOM     28  O   UNL     1       4.084  -4.072  -0.168  0.00  0.00    -0.490 OA
BRANCH  28  29
ATOM     29  C   UNL     1       3.619  -5.394  -0.449  0.00  0.00    +0.210 C 
BRANCH  29  30
ATOM     30  C   UNL     1       4.167  -6.362   0.603  0.00  0.00    -0.041 C 
BRANCH  30  31
ATOM     31  N   UNL     1       3.607  -6.024   1.918  0.00  0.00    +0.383 N 
ATOM     32  H   UNL     1       3.866  -5.080   2.162  0.00  0.00    -0.085 HD
ATOM     33  H   UNL     1       2.601  -6.098   1.885  0.00  0.00    -0.085 HD
BRANCH  31  34
ATOM     34  C   UNL     1       4.133  -6.953   2.927  0.00  0.00    -0.072 C 
ATOM     35  C   UNL     1       3.132  -7.869   3.634  0.00  0.00    -0.017 C 
ATOM     36  C   UNL     1       3.759  -6.695   4.388  0.00  0.00    -0.017 C 
ENDBRANCH  31  34
ENDBRANCH  30  31
ENDBRANCH  29  30
ENDBRANCH  28  29
ENDBRANCH   6  28
TORSDOF 9
