REMARK  Name = CHEMBL455591
REMARK  8 active torsions:
REMARK  status: ('A' for Active; 'I' for Inactive)
REMARK    1  A    between atoms: C_1  and  O_2
REMARK    2  A    between atoms: O_2  and  N_3
REMARK    3  A    between atoms: C_4  and  C_6
REMARK    4  A    between atoms: N_8  and  C_34
REMARK    5  A    between atoms: N_17  and  C_18
REMARK    6  A    between atoms: C_21  and  C_24
REMARK    7  A    between atoms: C_24  and  C_25
REMARK    8  A    between atoms: C_25  and  N_26
REMARK                            x       y       z     vdW  Elec       q    Type
REMARK                         _______ _______ _______ _____ _____    ______ ____
ROOT
ATOM      1  C   UNL     1      -2.697  -2.828   0.053  0.00  0.00    +0.102 A 
ATOM      2  C   UNL     1      -3.149  -4.122  -0.092  0.00  0.00    +0.110 A 
ATOM      3  N   UNL     1      -4.445  -4.451   0.050  0.00  0.00    -0.300 N 
ATOM      4  C   UNL     1      -5.415  -3.526   0.348  0.00  0.00    +0.154 A 
ATOM      5  C   UNL     1      -5.074  -2.169   0.520  0.00  0.00    +0.083 A 
ATOM      6  C   UNL     1      -3.667  -1.768   0.380  0.00  0.00    +0.205 A 
ATOM      7  O   UNL     1      -3.319  -0.609   0.523  0.00  0.00    -0.286 OA
ATOM      8  C   UNL     1      -6.079  -1.250   0.824  0.00  0.00    +0.129 A 
ATOM      9  N   UNL     1      -7.321  -1.689   0.940  0.00  0.00    -0.222 NA
ATOM     10  C   UNL     1      -7.610  -2.975   0.772  0.00  0.00    +0.221 A 
ATOM     11  N   UNL     1      -6.688  -3.881   0.482  0.00  0.00    -0.196 NA
ATOM     12  N   UNL     1      -8.923  -3.382   0.903  0.00  0.00    -0.284 N 
ATOM     13  H   UNL     1      -9.145  -4.326   0.864  0.00  0.00    +0.155 HD
ENDROOT
BRANCH   3  14
ATOM     14  C   UNL     1      -4.820  -5.789  -0.114  0.00  0.00    +0.048 A 
ATOM     15  C   UNL     1      -4.437  -6.740   0.824  0.00  0.00    +0.026 A 
ATOM     16  C   UNL     1      -4.810  -8.058   0.658  0.00  0.00    +0.006 A 
ATOM     17  C   UNL     1      -5.565  -8.438  -0.440  0.00  0.00    -0.044 A 
ATOM     18  C   UNL     1      -5.947  -7.494  -1.376  0.00  0.00    -0.042 A 
ATOM     19  C   UNL     1      -5.580  -6.170  -1.210  0.00  0.00    +0.030 A 
ATOM     20  C   UNL     1      -6.758  -8.156  -2.470  0.00  0.00    +0.036 C 
ATOM     21  C   UNL     1      -6.460  -9.665  -2.336  0.00  0.00    +0.009 C 
ATOM     22  C   UNL     1      -6.093  -9.799  -0.843  0.00  0.00    +0.036 C 
ENDBRANCH   3  14
BRANCH  12  23
ATOM     23  C   UNL     1      -9.934  -2.435   1.093  0.00  0.00    +0.034 A 
ATOM     24  C   UNL     1      -9.886  -1.222   0.418  0.00  0.00    +0.023 A 
ATOM     25  C   UNL     1     -10.886  -0.288   0.608  0.00  0.00    +0.005 A 
ATOM     26  C   UNL     1     -11.933  -0.559   1.469  0.00  0.00    -0.049 A 
ATOM     27  C   UNL     1     -11.984  -1.766   2.142  0.00  0.00    +0.005 A 
ATOM     28  C   UNL     1     -10.991  -2.707   1.952  0.00  0.00    +0.023 A 
BRANCH  26  29
ATOM     29  C   UNL     1     -13.022   0.463   1.674  0.00  0.00    +0.016 C 
BRANCH  29  30
ATOM     30  C   UNL     1     -14.137   0.232   0.653  0.00  0.00    -0.074 C 
BRANCH  30  31
ATOM     31  N   UNL     1     -15.198   1.228   0.853  0.00  0.00    +0.380 N 
ATOM     32  C   UNL     1     -15.817   1.024   2.168  0.00  0.00    -0.073 C 
ATOM     33  C   UNL     1     -16.867   2.109   2.416  0.00  0.00    +0.057 C 
ATOM     34  C   UNL     1     -17.941   2.029   1.327  0.00  0.00    +0.246 C 
ATOM     35  C   UNL     1     -17.275   2.168  -0.045  0.00  0.00    +0.057 C 
ATOM     36  C   UNL     1     -16.209   1.081  -0.201  0.00  0.00    -0.073 C 
ATOM     37  F   UNL     1     -18.866   3.064   1.505  0.00  0.00    -0.206 F 
ATOM     38  F   UNL     1     -18.597   0.795   1.406  0.00  0.00    -0.206 F 
ATOM     39  H   UNL     1     -14.801   2.154   0.810  0.00  0.00    -0.082 HD
ENDBRANCH  30  31
ENDBRANCH  29  30
ENDBRANCH  26  29
ENDBRANCH  12  23
BRANCH   1  41
ATOM     40  N   UNL     1      -0.824  -1.264   0.134  0.00  0.00    -0.191 N 
ATOM     41  C   UNL     1      -1.270  -2.511  -0.111  0.00  0.00    +0.272 C 
ATOM     42  O   UNL     1      -0.492  -3.376  -0.469  0.00  0.00    -0.268 OA
ATOM     43  H   UNL     1      -1.453  -0.558   0.352  0.00  0.00    +0.183 HD
BRANCH  40  45
ATOM     44  C   UNL     1       0.892   0.379   0.356  0.00  0.00    +0.226 C 
ATOM     45  O   UNL     1       0.563  -0.983   0.074  0.00  0.00    -0.283 OA
ENDBRANCH  40  45
ENDBRANCH   1  41
TORSDOF 7
