REMARK  Name = CHEMBL521422
REMARK  9 active torsions:
REMARK  status: ('A' for Active; 'I' for Inactive)
REMARK    1  A    between atoms: C_1  and  O_2
REMARK    2  A    between atoms: O_2  and  C_3
REMARK    3  A    between atoms: C_8  and  O_9
REMARK    4  A    between atoms: O_9  and  C_10
REMARK    5  A    between atoms: C_10  and  C_11
REMARK    6  A    between atoms: C_11  and  N_12
REMARK    7  A    between atoms: C_19  and  C_30
REMARK    8  A    between atoms: C_20  and  N_21
REMARK    9  A    between atoms: N_21  and  C_22
REMARK                            x       y       z     vdW  Elec       q    Type
REMARK                         _______ _______ _______ _____ _____    ______ ____
ROOT
ATOM      1  C   UNL     1      -1.476  -1.739   3.572  0.00  0.00    +0.162 A 
ATOM      2  C   UNL     1      -0.538  -0.749   3.646  0.00  0.00    +0.061 A 
ATOM      3  C   UNL     1       0.825  -1.079   3.646  0.00  0.00    +0.024 A 
ATOM      4  C   UNL     1       1.224  -2.435   3.569  0.00  0.00    +0.052 A 
ATOM      5  C   UNL     1       0.242  -3.434   3.493  0.00  0.00    +0.075 A 
ATOM      6  C   UNL     1      -1.090  -3.084   3.502  0.00  0.00    +0.164 A 
ATOM      7  N   UNL     1       2.527  -2.757   3.569  0.00  0.00    -0.360 N 
ATOM      8  C   UNL     1       3.466  -1.849   3.639  0.00  0.00    +0.098 A 
ATOM      9  C   UNL     1       3.161  -0.480   3.719  0.00  0.00    +0.074 A 
ATOM     10  C   UNL     1       1.818  -0.074   3.722  0.00  0.00    +0.054 A 
ATOM     11  H   UNL     1       2.780  -3.692   3.516  0.00  0.00    +0.165 HD
ENDROOT
BRANCH   9  12
ATOM     12  C   UNL     1       4.240   0.518   3.797  0.00  0.00    +0.245 C 
ATOM     13  O   UNL     1       3.971   1.693   3.963  0.00  0.00    -0.270 OA
ATOM     14  N   UNL     1       5.526   0.131   3.685  0.00  0.00    -0.325 N 
ATOM     15  H   UNL     1       5.741  -0.806   3.552  0.00  0.00    +0.145 HD
ATOM     16  H   UNL     1       6.237   0.789   3.736  0.00  0.00    +0.145 HD
ENDBRANCH   9  12
BRANCH   1  18
ATOM     17  C   UNL     1      -3.126  -0.028   3.647  0.00  0.00    +0.277 C 
ATOM     18  O   UNL     1      -2.797  -1.417   3.573  0.00  0.00    -0.491 OA
ENDBRANCH   1  18
BRANCH  10  19
ATOM     19  N   UNL     1       1.477   1.260   3.798  0.00  0.00    -0.313 N 
ATOM     20  H   UNL     1       1.372   1.780   2.986  0.00  0.00    +0.152 HD
BRANCH  19  21
ATOM     21  C   UNL     1       1.284   1.862   5.045  0.00  0.00    +0.033 A 
ATOM     22  C   UNL     1       1.625   1.182   6.207  0.00  0.00    +0.026 A 
ATOM     23  C   UNL     1       1.434   1.779   7.437  0.00  0.00    +0.041 A 
ATOM     24  C   UNL     1       0.901   3.055   7.514  0.00  0.00    +0.142 A 
ATOM     25  C   UNL     1       0.559   3.735   6.357  0.00  0.00    +0.078 A 
ATOM     26  C   UNL     1       0.755   3.144   5.123  0.00  0.00    +0.046 A 
ATOM     27 CL   UNL     1      -0.109   5.335   6.457  0.00  0.00    -0.081 Cl
ATOM     28  F   UNL     1       0.715   3.636   8.719  0.00  0.00    -0.204 F 
ENDBRANCH  19  21
ENDBRANCH  10  19
BRANCH   6  29
ATOM     29  O   UNL     1      -2.039  -4.054   3.435  0.00  0.00    -0.490 OA
BRANCH  29  30
ATOM     30  C   UNL     1      -1.582  -5.406   3.365  0.00  0.00    +0.211 C 
BRANCH  30  31
ATOM     31  C   UNL     1      -2.785  -6.348   3.296  0.00  0.00    -0.037 C 
BRANCH  31  32
ATOM     32  N   UNL     1      -3.516  -6.119   2.042  0.00  0.00    +0.382 N 
ATOM     33  C   UNL     1      -2.702  -6.573   0.885  0.00  0.00    -0.079 C 
ATOM     34  C   UNL     1      -3.759  -6.800  -0.225  0.00  0.00    -0.020 C 
ATOM     35  C   UNL     1      -4.959  -7.384   0.555  0.00  0.00    -0.020 C 
ATOM     36  C   UNL     1      -4.748  -6.936   2.013  0.00  0.00    -0.079 C 
ATOM     37  H   UNL     1      -3.744  -5.141   1.946  0.00  0.00    -0.082 HD
ENDBRANCH  31  32
ENDBRANCH  30  31
ENDBRANCH  29  30
ENDBRANCH   6  29
TORSDOF 8
