REMARK  Name = CHEMBL249138
REMARK  6 active torsions:
REMARK  status: ('A' for Active; 'I' for Inactive)
REMARK    1  A    between atoms: C_4  and  N_7
REMARK    2  A    between atoms: N_7  and  C_8
REMARK    3  A    between atoms: C_12  and  C_21
REMARK    4  A    between atoms: C_17  and  C_18
REMARK    5  A    between atoms: C_24  and  C_27
REMARK    6  A    between atoms: C_27  and  C_29
REMARK                            x       y       z     vdW  Elec       q    Type
REMARK                         _______ _______ _______ _____ _____    ______ ____
ROOT
ATOM      1  C   UNL     1       3.636  -2.023  -0.146  0.00  0.00    +0.054 A 
ATOM      2  C   UNL     1       4.804  -2.767   0.152  0.00  0.00    +0.020 A 
ATOM      3  C   UNL     1       5.980  -2.127   0.573  0.00  0.00    +0.012 A 
ATOM      4  C   UNL     1       7.090  -2.861   0.854  0.00  0.00    +0.009 A 
ATOM      5  C   UNL     1       7.074  -4.258   0.727  0.00  0.00    -0.016 A 
ATOM      6  C   UNL     1       5.927  -4.915   0.314  0.00  0.00    +0.034 A 
ATOM      7  C   UNL     1       4.773  -4.176   0.019  0.00  0.00    +0.049 A 
ATOM      8  N   UNL     1       3.651  -4.792  -0.382  0.00  0.00    -0.360 N 
ATOM      9  C   UNL     1       2.559  -4.130  -0.664  0.00  0.00    +0.098 A 
ATOM     10  C   UNL     1       2.497  -2.731  -0.556  0.00  0.00    +0.074 A 
ATOM     11  H   UNL     1       3.650  -5.758  -0.466  0.00  0.00    +0.165 HD
ENDROOT
BRANCH   5  12
ATOM     12  C   UNL     1       8.295  -5.038   1.039  0.00  0.00    -0.018 A 
ATOM     13  C   UNL     1       8.287  -6.428   0.909  0.00  0.00    +0.009 A 
ATOM     14  C   UNL     1       9.415  -7.151   1.198  0.00  0.00    +0.012 A 
ATOM     15  C   UNL     1      10.576  -6.495   1.622  0.00  0.00    +0.018 A 
ATOM     16  C   UNL     1      10.583  -5.101   1.751  0.00  0.00    +0.012 A 
ATOM     17  C   UNL     1       9.454  -4.381   1.456  0.00  0.00    +0.009 A 
BRANCH  15  18
ATOM     18  C   UNL     1      11.788  -7.269   1.932  0.00  0.00    +0.166 C 
ATOM     19  O   UNL     1      11.781  -8.476   1.821  0.00  0.00    -0.292 OA
BRANCH  18  20
ATOM     20  C   UNL     1      13.037  -6.561   2.389  0.00  0.00    +0.060 C 
ATOM     21  C   UNL     1      13.882  -6.140   1.168  0.00  0.00    +0.011 C 
ATOM     22  C   UNL     1      15.346  -6.349   1.629  0.00  0.00    +0.001 C 
ATOM     23  C   UNL     1      15.256  -7.644   2.474  0.00  0.00    +0.001 C 
ATOM     24  C   UNL     1      13.911  -7.518   3.219  0.00  0.00    +0.011 C 
ENDBRANCH  18  20
ENDBRANCH  15  18
ENDBRANCH   5  12
BRANCH  10  25
ATOM     25  C   UNL     1       1.251  -2.015  -0.874  0.00  0.00    +0.245 C 
ATOM     26  O   UNL     1       1.231  -0.799  -0.873  0.00  0.00    -0.270 OA
ATOM     27  N   UNL     1       0.131  -2.707  -1.166  0.00  0.00    -0.325 N 
ATOM     28  H   UNL     1       0.147  -3.677  -1.167  0.00  0.00    +0.145 HD
ATOM     29  H   UNL     1      -0.690  -2.235  -1.376  0.00  0.00    +0.145 HD
ENDBRANCH  10  25
BRANCH   1  30
ATOM     30  N   UNL     1       3.619  -0.650  -0.032  0.00  0.00    -0.313 N 
ATOM     31  H   UNL     1       3.339  -0.236   0.800  0.00  0.00    +0.152 HD
BRANCH  30  35
ATOM     32  C   UNL     1       4.767   1.723  -3.256  0.00  0.00    +0.000 A 
ATOM     33  C   UNL     1       4.496   2.306  -2.031  0.00  0.00    +0.002 A 
ATOM     34  C   UNL     1       4.115   1.522  -0.960  0.00  0.00    +0.023 A 
ATOM     35  C   UNL     1       4.003   0.146  -1.114  0.00  0.00    +0.031 A 
ATOM     36  C   UNL     1       4.276  -0.436  -2.345  0.00  0.00    +0.023 A 
ATOM     37  C   UNL     1       4.657   0.353  -3.412  0.00  0.00    +0.002 A 
ENDBRANCH  30  35
ENDBRANCH   1  30
TORSDOF 6
