REMARK  Name = CHEMBL254498
REMARK  7 active torsions:
REMARK  status: ('A' for Active; 'I' for Inactive)
REMARK    1  A    between atoms: C_1  and  N_2
REMARK    2  A    between atoms: N_10  and  C_11
REMARK    3  A    between atoms: N_10  and  C_12
REMARK    4  A    between atoms: C_15  and  N_24
REMARK    5  A    between atoms: C_16  and  N_18
REMARK    6  A    between atoms: C_25  and  C_27
REMARK    7  A    between atoms: C_30  and  C_32
REMARK                            x       y       z     vdW  Elec       q    Type
REMARK                         _______ _______ _______ _____ _____    ______ ____
ROOT
ATOM      1  C   UNL     1       3.785  -4.833   1.171  0.00  0.00    +0.039 A 
ATOM      2  C   UNL     1       4.245  -5.448   0.013  0.00  0.00    +0.025 A 
ATOM      3  C   UNL     1       5.294  -6.344   0.074  0.00  0.00    +0.027 A 
ATOM      4  C   UNL     1       5.892  -6.634   1.292  0.00  0.00    +0.055 A 
ATOM      5  C   UNL     1       5.432  -6.018   2.456  0.00  0.00    +0.053 A 
ATOM      6  C   UNL     1       4.383  -5.115   2.392  0.00  0.00    +0.048 A 
ENDROOT
BRANCH   1  16
ATOM      7  C   UNL     1      -1.078   0.690   0.576  0.00  0.00    -0.096 C 
ATOM      8  N   UNL     1      -0.646  -0.650   0.157  0.00  0.00    +0.380 N 
ATOM      9  C   UNL     1       0.475  -0.529  -0.783  0.00  0.00    -0.060 C 
ATOM     10  C   UNL     1       0.852  -1.918  -1.309  0.00  0.00    +0.091 C 
ATOM     11  N   UNL     1       1.115  -2.797  -0.159  0.00  0.00    -0.289 N 
ATOM     12  C   UNL     1       0.111  -2.853   0.914  0.00  0.00    +0.091 C 
ATOM     13  C   UNL     1      -0.230  -1.420   1.336  0.00  0.00    -0.060 C 
ATOM     14  C   UNL     1       2.244  -3.530  -0.092  0.00  0.00    +0.309 C 
ATOM     15  O   UNL     1       2.833  -3.836  -1.111  0.00  0.00    -0.252 OA
ATOM     16  N   UNL     1       2.721  -3.925   1.105  0.00  0.00    -0.258 N 
ATOM     17  C   UNL     1       2.126  -3.404   2.339  0.00  0.00    +0.140 C 
ATOM     18  H   UNL     1      -1.413  -1.123  -0.298  0.00  0.00    -0.082 HD
ENDBRANCH   1  16
BRANCH   5  19
ATOM     19  N   UNL     1       6.032  -6.308   3.686  0.00  0.00    -0.328 N 
ATOM     20  C   UNL     1       7.169  -5.513   4.170  0.00  0.00    +0.105 C 
ATOM     21  C   UNL     1       6.848  -4.998   5.577  0.00  0.00    +0.019 C 
ATOM     22  C   UNL     1       6.479  -6.180   6.476  0.00  0.00    +0.003 C 
ATOM     23  C   UNL     1       5.235  -6.877   5.921  0.00  0.00    +0.019 C 
ATOM     24  C   UNL     1       5.534  -7.410   4.521  0.00  0.00    +0.105 C 
ENDBRANCH   5  19
BRANCH   4  25
ATOM     25  N   UNL     1       6.956  -7.544   1.353  0.00  0.00    -0.277 N 
ATOM     26  C   UNL     1       7.080  -8.499   0.410  0.00  0.00    +0.284 C 
ATOM     27  O   UNL     1       6.316  -8.524  -0.536  0.00  0.00    -0.266 OA
ATOM     28  H   UNL     1       7.603  -7.487   2.073  0.00  0.00    +0.155 HD
BRANCH  26  29
ATOM     29  C   UNL     1       8.140  -9.512   0.524  0.00  0.00    +0.191 A 
ATOM     30  C   UNL     1       8.375 -10.524  -0.362  0.00  0.00    +0.056 A 
ATOM     31  C   UNL     1       9.468 -11.249   0.124  0.00  0.00    +0.061 A 
ATOM     32  C   UNL     1       9.857 -10.643   1.298  0.00  0.00    +0.205 A 
ATOM     33  O   UNL     1       9.045  -9.593   1.518  0.00  0.00    -0.440 OA
BRANCH  32  34
ATOM     34  C   UNL     1      10.943 -11.055   2.136  0.00  0.00    +0.138 C 
ATOM     35  N   UNL     1      11.803 -11.382   2.802  0.00  0.00    -0.188 NA
ENDBRANCH  32  34
ENDBRANCH  26  29
ENDBRANCH   4  25
TORSDOF 5
