REMARK  Name = CHEMBL496129
REMARK  8 active torsions:
REMARK  status: ('A' for Active; 'I' for Inactive)
REMARK    1  A    between atoms: C_1  and  C_2
REMARK    2  A    between atoms: C_5  and  N_20
REMARK    3  A    between atoms: C_7  and  C_8
REMARK    4  A    between atoms: C_11  and  C_14
REMARK    5  A    between atoms: C_21  and  C_23
REMARK    6  A    between atoms: C_26  and  C_29
REMARK    7  A    between atoms: C_29  and  N_30
REMARK    8  A    between atoms: N_33  and  C_36
REMARK                            x       y       z     vdW  Elec       q    Type
REMARK                         _______ _______ _______ _____ _____    ______ ____
ROOT
ATOM      1  C   UNL     1       0.005   1.502   0.058  0.00  0.00    +0.044 C 
ATOM      2  C   UNL     1       0.020  -0.004   0.031  0.00  0.00    -0.043 A 
ATOM      3  C   UNL     1      -0.571  -0.719   1.054  0.00  0.00    +0.006 A 
ATOM      4  C   UNL     1      -0.560  -2.100   1.034  0.00  0.00    +0.023 A 
ATOM      5  C   UNL     1       0.047  -2.779  -0.016  0.00  0.00    +0.034 A 
ATOM      6  C   UNL     1       0.643  -2.069  -1.047  0.00  0.00    +0.032 A 
ATOM      7  C   UNL     1       0.626  -0.676  -1.029  0.00  0.00    -0.013 A 
ENDROOT
BRANCH   7   8
ATOM      8  C   UNL     1       1.256   0.090  -2.132  0.00  0.00    -0.018 A 
ATOM      9  C   UNL     1       0.552   1.118  -2.757  0.00  0.00    +0.009 A 
ATOM     10  C   UNL     1       1.137   1.830  -3.781  0.00  0.00    +0.010 A 
ATOM     11  C   UNL     1       2.434   1.521  -4.193  0.00  0.00    +0.001 A 
ATOM     12  C   UNL     1       3.138   0.492  -3.567  0.00  0.00    +0.010 A 
ATOM     13  C   UNL     1       2.554  -0.215  -2.539  0.00  0.00    +0.009 A 
BRANCH  11  14
ATOM     14  C   UNL     1       3.063   2.286  -5.295  0.00  0.00    +0.080 A 
ATOM     15  C   UNL     1       4.332   1.987  -5.707  0.00  0.00    +0.076 A 
ATOM     16  S   UNL     1       4.551   3.189  -7.012  0.00  0.00    -0.060 S 
ATOM     17  C   UNL     1       2.945   3.963  -6.878  0.00  0.00    +0.156 A 
ATOM     18  N   UNL     1       2.398   3.269  -5.898  0.00  0.00    -0.225 NA
ATOM     19  N   UNL     1       2.415   5.011  -7.612  0.00  0.00    -0.338 N 
ATOM     20  H   UNL     1       2.940   5.427  -8.314  0.00  0.00    +0.144 HD
ATOM     21  H   UNL     1       1.518   5.329  -7.425  0.00  0.00    +0.144 HD
ENDBRANCH  11  14
ENDBRANCH   7   8
BRANCH   5  22
ATOM     22  N   UNL     1       0.057  -4.177  -0.032  0.00  0.00    -0.281 N 
ATOM     23  C   UNL     1      -0.042  -4.838  -1.203  0.00  0.00    +0.248 C 
ATOM     24  O   UNL     1      -0.055  -4.221  -2.250  0.00  0.00    -0.270 OA
ATOM     25  H   UNL     1       0.136  -4.671   0.799  0.00  0.00    +0.155 HD
BRANCH  23  26
ATOM     26  C   UNL     1      -0.134  -6.314  -1.213  0.00  0.00    +0.037 A 
ATOM     27  C   UNL     1      -0.125  -7.025  -0.012  0.00  0.00    +0.013 A 
ATOM     28  C   UNL     1      -0.211  -8.402  -0.028  0.00  0.00    +0.002 A 
ATOM     29  C   UNL     1      -0.307  -9.077  -1.232  0.00  0.00    -0.064 A 
ATOM     30  C   UNL     1      -0.317  -8.379  -2.426  0.00  0.00    +0.002 A 
ATOM     31  C   UNL     1      -0.237  -7.001  -2.423  0.00  0.00    +0.013 A 
BRANCH  29  32
ATOM     32  C   UNL     1      -0.400 -10.582  -1.242  0.00  0.00    -0.043 C 
BRANCH  32  33
ATOM     33  N   UNL     1      -1.811 -10.985  -1.183  0.00  0.00    +0.384 N 
ATOM     34  C   UNL     1      -2.387 -10.567   0.102  0.00  0.00    -0.063 C 
ATOM     35  C   UNL     1      -3.862 -10.971   0.155  0.00  0.00    +0.065 C 
ATOM     36  N   UNL     1      -3.974 -12.428  -0.001  0.00  0.00    -0.309 NA
ATOM     37  C   UNL     1      -3.379 -12.864  -1.272  0.00  0.00    +0.065 C 
ATOM     38  C   UNL     1      -1.908 -12.445  -1.314  0.00  0.00    -0.063 C 
ATOM     39  C   UNL     1      -5.374 -12.862   0.102  0.00  0.00    +0.104 C 
ATOM     40  H   UNL     1      -2.318 -10.546  -1.937  0.00  0.00    -0.081 HD
ENDBRANCH  32  33
ENDBRANCH  29  32
ENDBRANCH  23  26
ENDBRANCH   5  22
TORSDOF 6
