REMARK  Name = CHEMBL255213
REMARK  5 active torsions:
REMARK  status: ('A' for Active; 'I' for Inactive)
REMARK    1  A    between atoms: C_1  and  C_2
REMARK    2  A    between atoms: C_2  and  C_3
REMARK    3  A    between atoms: C_6  and  C_9
REMARK    4  A    between atoms: C_20  and  C_21
REMARK    5  A    between atoms: C_23  and  C_26
REMARK                            x       y       z     vdW  Elec       q    Type
REMARK                         _______ _______ _______ _____ _____    ______ ____
ROOT
ATOM      1  C   UNL     1       2.695  -1.859  -4.732  0.00  0.00    +0.007 A 
ATOM      2  C   UNL     1       3.330  -3.184  -4.768  0.00  0.00    +0.008 A 
ATOM      3  C   UNL     1       3.290  -4.022  -3.649  0.00  0.00    +0.030 A 
ATOM      4  C   UNL     1       3.890  -5.260  -3.701  0.00  0.00    +0.042 A 
ATOM      5  C   UNL     1       4.532  -5.679  -4.859  0.00  0.00    +0.022 A 
ATOM      6  C   UNL     1       4.580  -4.865  -5.970  0.00  0.00    +0.028 A 
ATOM      7  C   UNL     1       3.980  -3.609  -5.940  0.00  0.00    +0.050 A 
ATOM      8  N   UNL     1       4.026  -2.792  -7.052  0.00  0.00    -0.321 N 
ATOM      9  H   UNL     1       4.480  -3.106  -7.849  0.00  0.00    +0.169 HD
ATOM     10  C   UNL     1       3.458  -1.574  -7.059  0.00  0.00    +0.261 A 
ATOM     11  O   UNL     1       3.523  -0.887  -8.062  0.00  0.00    -0.267 OA
ATOM     12  C   UNL     1       2.758  -1.064  -5.878  0.00  0.00    +0.092 A 
ATOM     13 CL   UNL     1       3.843  -6.302  -2.314  0.00  0.00    -0.084 Cl
ENDROOT
BRANCH   1  17
ATOM     14  C   UNL     1       0.707  -0.490  -1.238  0.00  0.00    -0.048 A 
ATOM     15  C   UNL     1      -0.015  -0.718  -2.396  0.00  0.00    +0.004 A 
ATOM     16  C   UNL     1       0.625  -1.162  -3.535  0.00  0.00    +0.009 A 
ATOM     17  C   UNL     1       2.004  -1.382  -3.517  0.00  0.00    -0.016 A 
ATOM     18  C   UNL     1       2.726  -1.151  -2.344  0.00  0.00    +0.009 A 
ATOM     19  C   UNL     1       2.075  -0.701  -1.214  0.00  0.00    +0.004 A 
BRANCH  14  21
ATOM     20  C   UNL     1      -0.019   1.526   0.010  0.00  0.00    +0.009 C 
ATOM     21  C   UNL     1       0.002  -0.004   0.002  0.00  0.00    +0.032 C 
ENDBRANCH  14  21
ENDBRANCH   1  17
BRANCH  12  22
ATOM     22  C   UNL     1       2.135   0.269  -5.898  0.00  0.00    +0.173 A 
ATOM     23  C   UNL     1       2.786   1.461  -6.027  0.00  0.00    +0.076 A 
ATOM     24  C   UNL     1       1.828   2.483  -5.998  0.00  0.00    +0.081 A 
ATOM     25  N   UNL     1       0.651   1.938  -5.858  0.00  0.00    -0.083 NA
ATOM     26  O   UNL     1       0.818   0.533  -5.797  0.00  0.00    -0.354 OA
ATOM     27  C   UNL     1       2.109   3.959  -6.110  0.00  0.00    +0.069 C 
ENDBRANCH  12  22
TORSDOF 3
