REMARK  Name = CHEMBL491078
REMARK  7 active torsions:
REMARK  status: ('A' for Active; 'I' for Inactive)
REMARK    1  A    between atoms: C_1  and  O_2
REMARK    2  A    between atoms: O_2  and  C_3
REMARK    3  A    between atoms: C_6  and  N_9
REMARK    4  A    between atoms: C_16  and  C_30
REMARK    5  A    between atoms: N_18  and  C_21
REMARK    6  A    between atoms: N_32  and  O_33
REMARK    7  A    between atoms: O_33  and  C_34
REMARK                            x       y       z     vdW  Elec       q    Type
REMARK                         _______ _______ _______ _____ _____    ______ ____
ROOT
ATOM      1  N   UNL     1       2.787  -2.312  -3.971  0.00  0.00    -0.282 N 
ATOM      2  C   UNL     1       3.134  -1.516  -5.045  0.00  0.00    +0.221 A 
ATOM      3  N   UNL     1       3.042  -0.197  -4.918  0.00  0.00    -0.222 NA
ATOM      4  C   UNL     1       3.362   0.608  -5.917  0.00  0.00    +0.129 A 
ATOM      5  C   UNL     1       3.800   0.039  -7.114  0.00  0.00    +0.083 A 
ATOM      6  C   UNL     1       4.176   0.859  -8.275  0.00  0.00    +0.205 A 
ATOM      7  O   UNL     1       4.120   2.076  -8.239  0.00  0.00    -0.286 OA
ATOM      8  C   UNL     1       4.624   0.144  -9.483  0.00  0.00    +0.102 A 
ATOM      9  C   UNL     1       4.667  -1.233  -9.465  0.00  0.00    +0.110 A 
ATOM     10  N   UNL     1       4.314  -1.948  -8.382  0.00  0.00    -0.300 N 
ATOM     11  C   UNL     1       3.886  -1.364  -7.216  0.00  0.00    +0.154 A 
ATOM     12  N   UNL     1       3.549  -2.097  -6.160  0.00  0.00    -0.196 NA
ATOM     13  H   UNL     1       2.920  -3.272  -4.016  0.00  0.00    +0.155 HD
ENDROOT
BRANCH  10  14
ATOM     14  C   UNL     1       4.386  -3.345  -8.447  0.00  0.00    +0.048 A 
ATOM     15  C   UNL     1       5.605  -3.970  -8.677  0.00  0.00    +0.026 A 
ATOM     16  C   UNL     1       5.671  -5.346  -8.739  0.00  0.00    +0.006 A 
ATOM     17  C   UNL     1       4.526  -6.109  -8.574  0.00  0.00    -0.044 A 
ATOM     18  C   UNL     1       3.311  -5.490  -8.345  0.00  0.00    -0.042 A 
ATOM     19  C   UNL     1       3.241  -4.109  -8.276  0.00  0.00    +0.030 A 
ATOM     20  C   UNL     1       2.224  -6.534  -8.200  0.00  0.00    +0.036 C 
ATOM     21  C   UNL     1       2.822  -7.825  -8.797  0.00  0.00    +0.009 C 
ATOM     22  C   UNL     1       4.337  -7.611  -8.598  0.00  0.00    +0.036 C 
ENDBRANCH  10  14
BRANCH   1  26
ATOM     23  C   UNL     1       1.224  -0.666  -0.527  0.00  0.00    +0.214 A 
ATOM     24  C   UNL     1       0.911  -0.071  -1.743  0.00  0.00    +0.069 A 
ATOM     25  C   UNL     1       1.425  -0.609  -2.909  0.00  0.00    +0.030 A 
ATOM     26  C   UNL     1       2.244  -1.733  -2.817  0.00  0.00    +0.052 A 
ATOM     27  C   UNL     1       2.513  -2.272  -1.568  0.00  0.00    +0.138 A 
ATOM     28  N   UNL     1       2.008  -1.729  -0.476  0.00  0.00    -0.219 NA
BRANCH  23  30
ATOM     29  C   UNL     1       1.087  -0.797   1.841  0.00  0.00    +0.279 C 
ATOM     30  O   UNL     1       0.724  -0.145   0.622  0.00  0.00    -0.480 OA
ENDBRANCH  23  30
ENDBRANCH   1  26
BRANCH   8  31
ATOM     31  C   UNL     1       5.018   0.888 -10.690  0.00  0.00    +0.272 C 
ATOM     32  O   UNL     1       5.285   0.289 -11.714  0.00  0.00    -0.268 OA
ATOM     33  N   UNL     1       5.084   2.234 -10.659  0.00  0.00    -0.191 N 
ATOM     34  H   UNL     1       4.951   2.708  -9.823  0.00  0.00    +0.183 HD
BRANCH  33  35
ATOM     35  O   UNL     1       5.348   2.957 -11.848  0.00  0.00    -0.283 OA
ATOM     36  C   UNL     1       5.390   4.374 -11.670  0.00  0.00    +0.226 C 
ENDBRANCH  33  35
ENDBRANCH   8  31
TORSDOF 5
