REMARK  Name = CHEMBL256893
REMARK  6 active torsions:
REMARK  status: ('A' for Active; 'I' for Inactive)
REMARK    1  A    between atoms: C_1  and  N_2
REMARK    2  A    between atoms: N_5  and  C_8
REMARK    3  A    between atoms: C_8  and  C_9
REMARK    4  A    between atoms: C_12  and  N_15
REMARK    5  A    between atoms: C_22  and  C_36
REMARK    6  A    between atoms: N_24  and  C_27
REMARK                            x       y       z     vdW  Elec       q    Type
REMARK                         _______ _______ _______ _____ _____    ______ ____
ROOT
ATOM      1  N   UNL     1       1.381  -6.853   5.990  0.00  0.00    -0.284 N 
ATOM      2  C   UNL     1       0.548  -6.677   7.078  0.00  0.00    +0.221 A 
ATOM      3  N   UNL     1      -0.743  -6.449   6.863  0.00  0.00    -0.222 NA
ATOM      4  C   UNL     1      -1.581  -6.275   7.870  0.00  0.00    +0.129 A 
ATOM      5  C   UNL     1      -1.078  -6.335   9.171  0.00  0.00    +0.083 A 
ATOM      6  C   UNL     1      -1.939  -6.154  10.349  0.00  0.00    +0.204 A 
ATOM      7  O   UNL     1      -3.134  -5.941  10.237  0.00  0.00    -0.286 OA
ATOM      8  C   UNL     1      -1.293  -6.240  11.671  0.00  0.00    +0.100 A 
ATOM      9  C   UNL     1       0.062  -6.482  11.735  0.00  0.00    +0.110 A 
ATOM     10  N   UNL     1       0.816  -6.644  10.634  0.00  0.00    -0.300 N 
ATOM     11  C   UNL     1       0.296  -6.579   9.364  0.00  0.00    +0.154 A 
ATOM     12  N   UNL     1       1.066  -6.747   8.294  0.00  0.00    -0.196 NA
ATOM     13  H   UNL     1       2.310  -7.099   6.125  0.00  0.00    +0.155 HD
ENDROOT
BRANCH  10  14
ATOM     14  C   UNL     1       2.186  -6.887  10.787  0.00  0.00    +0.048 A 
ATOM     15  C   UNL     1       2.623  -8.088  11.330  0.00  0.00    +0.026 A 
ATOM     16  C   UNL     1       3.975  -8.323  11.479  0.00  0.00    +0.006 A 
ATOM     17  C   UNL     1       4.898  -7.366  11.089  0.00  0.00    -0.044 A 
ATOM     18  C   UNL     1       4.465  -6.169  10.549  0.00  0.00    -0.042 A 
ATOM     19  C   UNL     1       3.111  -5.931  10.393  0.00  0.00    +0.030 A 
ATOM     20  C   UNL     1       5.658  -5.301  10.208  0.00  0.00    +0.036 C 
ATOM     21  C   UNL     1       6.838  -5.908  10.996  0.00  0.00    +0.009 C 
ATOM     22  C   UNL     1       6.410  -7.383  11.148  0.00  0.00    +0.036 C 
ENDBRANCH  10  14
BRANCH   1  26
ATOM     23  C   UNL     1      -0.093  -6.326   2.130  0.00  0.00    -0.033 A 
ATOM     24  C   UNL     1      -0.593  -5.564   3.170  0.00  0.00    +0.007 A 
ATOM     25  C   UNL     1      -0.107  -5.736   4.451  0.00  0.00    +0.023 A 
ATOM     26  C   UNL     1       0.886  -6.676   4.695  0.00  0.00    +0.034 A 
ATOM     27  C   UNL     1       1.387  -7.440   3.648  0.00  0.00    +0.023 A 
ATOM     28  C   UNL     1       0.892  -7.266   2.370  0.00  0.00    +0.007 A 
BRANCH  23  29
ATOM     29  C   UNL     1      -0.626  -6.136   0.734  0.00  0.00    +0.119 C 
BRANCH  29  34
ATOM     30  C   UNL     1      -5.573  -8.566  -0.438  0.00  0.00    -0.096 C 
ATOM     31  N   UNL     1      -4.458  -7.629  -0.242  0.00  0.00    +0.379 N 
ATOM     32  C   UNL     1      -3.324  -8.035  -1.083  0.00  0.00    -0.064 C 
ATOM     33  C   UNL     1      -2.170  -7.049  -0.894  0.00  0.00    +0.066 C 
ATOM     34  N   UNL     1      -1.772  -7.030   0.521  0.00  0.00    -0.302 NA
ATOM     35  C   UNL     1      -2.904  -6.649   1.377  0.00  0.00    +0.066 C 
ATOM     36  C   UNL     1      -4.052  -7.639   1.169  0.00  0.00    -0.064 C 
ATOM     37  H   UNL     1      -4.752  -6.699  -0.501  0.00  0.00    -0.082 HD
ENDBRANCH  29  34
ENDBRANCH  23  29
ENDBRANCH   1  26
BRANCH   8  38
ATOM     38  C   UNL     1      -2.082  -6.069  12.901  0.00  0.00    +0.247 C 
ATOM     39  O   UNL     1      -1.524  -6.037  13.982  0.00  0.00    -0.270 OA
ATOM     40  N   UNL     1      -3.422  -5.949  12.831  0.00  0.00    -0.325 N 
ATOM     41  H   UNL     1      -3.874  -6.047  11.978  0.00  0.00    +0.145 HD
ATOM     42  H   UNL     1      -3.935  -5.763  13.633  0.00  0.00    +0.145 HD
ENDBRANCH   8  38
TORSDOF 5
