REMARK  Name = CHEMBL477772
REMARK  9 active torsions:
REMARK  status: ('A' for Active; 'I' for Inactive)
REMARK    1  A    between atoms: C_1  and  C_2
REMARK    2  A    between atoms: C_5  and  N_12
REMARK    3  A    between atoms: C_7  and  S_8
REMARK    4  A    between atoms: S_8  and  N_11
REMARK    5  A    between atoms: C_17  and  N_19
REMARK    6  A    between atoms: N_19  and  C_20
REMARK    7  A    between atoms: N_19  and  C_21
REMARK    8  A    between atoms: C_25  and  C_31
REMARK    9  A    between atoms: N_26  and  C_30
REMARK                            x       y       z     vdW  Elec       q    Type
REMARK                         _______ _______ _______ _____ _____    ______ ____
ROOT
ATOM      1  N   UNL     1       2.062  -4.872  -0.084  0.00  0.00    -0.285 N 
ATOM      2  C   UNL     1       1.651  -5.452  -1.272  0.00  0.00    +0.199 A 
ATOM      3  N   UNL     1       2.029  -4.911  -2.421  0.00  0.00    -0.334 N 
ATOM      4  C   UNL     1       1.656  -5.437  -3.578  0.00  0.00    +0.089 A 
ATOM      5  C   UNL     1       0.861  -6.567  -3.581  0.00  0.00    +0.061 A 
ATOM      6  C   UNL     1       0.478  -7.116  -2.355  0.00  0.00    +0.130 A 
ATOM      7  N   UNL     1       0.893  -6.538  -1.232  0.00  0.00    -0.201 NA
ATOM      8  H   UNL     1       1.872  -5.309   0.761  0.00  0.00    +0.155 HD
ATOM      9  H   UNL     1       2.587  -4.118  -2.415  0.00  0.00    +0.168 HD
ENDROOT
BRANCH   1  14
ATOM     10  C   UNL     1       4.855   0.064  -0.156  0.00  0.00    +0.046 C 
ATOM     11  C   UNL     1       4.113  -1.247  -0.137  0.00  0.00    -0.024 A 
ATOM     12  C   UNL     1       3.020  -1.433  -0.964  0.00  0.00    +0.007 A 
ATOM     13  C   UNL     1       2.338  -2.634  -0.949  0.00  0.00    +0.024 A 
ATOM     14  C   UNL     1       2.751  -3.655  -0.102  0.00  0.00    +0.035 A 
ATOM     15  C   UNL     1       3.849  -3.465   0.727  0.00  0.00    +0.052 A 
ATOM     16  C   UNL     1       4.530  -2.263   0.703  0.00  0.00    +0.110 A 
BRANCH  16  17
ATOM     17  S   UNL     1       5.928  -2.023   1.748  0.00  0.00    +0.056 S 
ATOM     18  O   UNL     1       5.734  -0.779   2.406  0.00  0.00    -0.153 OA
ATOM     19  O   UNL     1       6.117  -3.239   2.458  0.00  0.00    -0.153 OA
BRANCH  17  20
ATOM     20  N   UNL     1       7.248  -1.838   0.765  0.00  0.00    -0.204 NA
ATOM     21  H   UNL     1       7.144  -1.875  -0.198  0.00  0.00    +0.144 HD
ATOM     22  H   UNL     1       8.125  -1.693   1.154  0.00  0.00    +0.144 HD
ENDBRANCH  17  20
ENDBRANCH  16  17
ENDBRANCH   1  14
BRANCH   6  23
ATOM     23  N   UNL     1      -0.319  -8.249  -2.310  0.00  0.00    -0.288 N 
ATOM     24  C   UNL     1      -0.954  -8.747  -3.533  0.00  0.00    +0.137 C 
BRANCH  23  25
ATOM     25  C   UNL     1      -0.518  -8.916  -1.098  0.00  0.00    +0.037 A 
ATOM     26  C   UNL     1      -1.615  -8.568  -0.297  0.00  0.00    +0.024 A 
ATOM     27  C   UNL     1      -1.855  -9.181   0.887  0.00  0.00    +0.013 A 
ATOM     28  C   UNL     1      -0.985 -10.199   1.335  0.00  0.00    +0.023 A 
ATOM     29  C   UNL     1      -0.930 -11.008   2.454  0.00  0.00    +0.044 A 
ATOM     30  N   UNL     1       0.142 -11.803   2.335  0.00  0.00    -0.270 N 
ATOM     31  N   UNL     1       0.810 -11.529   1.136  0.00  0.00    -0.171 NA
ATOM     32  C   UNL     1       0.168 -10.568   0.498  0.00  0.00    +0.095 A 
ATOM     33  C   UNL     1       0.357  -9.893  -0.727  0.00  0.00    +0.053 A 
ATOM     34  C   UNL     1       0.555 -12.811   3.316  0.00  0.00    +0.172 C 
ATOM     35  C   UNL     1      -1.903 -10.998   3.604  0.00  0.00    +0.066 C 
ENDBRANCH  23  25
ENDBRANCH   6  23
TORSDOF 5
