REMARK  Name = CHEMBL261699
REMARK  7 active torsions:
REMARK  status: ('A' for Active; 'I' for Inactive)
REMARK    1  A    between atoms: C_1  and  C_2
REMARK    2  A    between atoms: N_5  and  C_8
REMARK    3  A    between atoms: C_10  and  C_24
REMARK    4  A    between atoms: C_13  and  N_14
REMARK    5  A    between atoms: C_15  and  C_17
REMARK    6  A    between atoms: C_20  and  C_22
REMARK    7  A    between atoms: C_25  and  C_26
REMARK                            x       y       z     vdW  Elec       q    Type
REMARK                         _______ _______ _______ _____ _____    ______ ____
ROOT
ATOM      1  C   UNL     1      -0.747  -3.901   1.416  0.00  0.00    +0.036 A 
ATOM      2  C   UNL     1      -0.258  -4.688   0.398  0.00  0.00    +0.031 A 
ATOM      3  C   UNL     1      -0.262  -6.082   0.533  0.00  0.00    -0.023 A 
ATOM      4  C   UNL     1      -0.765  -6.667   1.702  0.00  0.00    +0.010 A 
ATOM      5  C   UNL     1      -1.249  -5.879   2.707  0.00  0.00    +0.026 A 
ATOM      6  C   UNL     1      -1.240  -4.492   2.576  0.00  0.00    +0.054 A 
ENDROOT
BRANCH   1  11
ATOM      7  C   UNL     1      -0.169   1.492  -0.104  0.00  0.00    +0.007 C 
ATOM      8  C   UNL     1      -0.106  -0.036  -0.080  0.00  0.00    -0.011 C 
ATOM      9  C   UNL     1      -1.527  -0.606  -0.044  0.00  0.00    +0.020 C 
ATOM     10  C   UNL     1      -1.456  -2.131   0.060  0.00  0.00    +0.085 C 
ATOM     11  N   UNL     1      -0.745  -2.509   1.287  0.00  0.00    -0.392 NA
ATOM     12  C   UNL     1       0.641  -2.027   1.228  0.00  0.00    +0.085 C 
ATOM     13  C   UNL     1       0.651  -0.498   1.168  0.00  0.00    +0.020 C 
ATOM     14  H   UNL     1      -1.208  -2.099   2.084  0.00  0.00    +0.126 HD
ENDBRANCH   1  11
BRANCH   6  15
ATOM     15  N   UNL     1      -1.730  -3.695   3.608  0.00  0.00    -0.277 N 
ATOM     16  C   UNL     1      -2.654  -4.185   4.457  0.00  0.00    +0.284 C 
ATOM     17  O   UNL     1      -3.010  -5.344   4.366  0.00  0.00    -0.266 OA
ATOM     18  H   UNL     1      -1.405  -2.787   3.714  0.00  0.00    +0.155 HD
BRANCH  16  19
ATOM     19  C   UNL     1      -3.231  -3.318   5.495  0.00  0.00    +0.191 A 
ATOM     20  C   UNL     1      -4.167  -3.693   6.417  0.00  0.00    +0.056 A 
ATOM     21  C   UNL     1      -4.435  -2.570   7.208  0.00  0.00    +0.061 A 
ATOM     22  C   UNL     1      -3.643  -1.549   6.730  0.00  0.00    +0.205 A 
ATOM     23  O   UNL     1      -2.921  -2.024   5.699  0.00  0.00    -0.440 OA
BRANCH  22  24
ATOM     24  C   UNL     1      -3.594  -0.213   7.246  0.00  0.00    +0.138 C 
ATOM     25  N   UNL     1      -3.555   0.846   7.654  0.00  0.00    -0.188 NA
ENDBRANCH  22  24
ENDBRANCH  16  19
ENDBRANCH   6  15
BRANCH   3  26
ATOM     26  C   UNL     1       0.258  -6.928  -0.549  0.00  0.00    +0.015 C 
ATOM     27  C   UNL     1       0.253  -8.275  -0.417  0.00  0.00    +0.096 C 
BRANCH  27  28
ATOM     28  C   UNL     1       0.753  -9.089  -1.458  0.00  0.00    +0.380 C 
ATOM     29  O   UNL     1       1.192  -8.575  -2.480  0.00  0.00    -0.241 OA
ATOM     30  O   UNL     1       0.748 -10.308  -1.338  0.00  0.00    -0.241 OA
ENDBRANCH  27  28
ENDBRANCH   3  26
TORSDOF 6
