REMARK  Name = CHEMBL265432
REMARK  6 active torsions:
REMARK  status: ('A' for Active; 'I' for Inactive)
REMARK    1  A    between atoms: C_1  and  N_2
REMARK    2  A    between atoms: N_5  and  C_8
REMARK    3  A    between atoms: C_11  and  N_20
REMARK    4  A    between atoms: C_12  and  C_14
REMARK    5  A    between atoms: C_21  and  C_23
REMARK    6  A    between atoms: C_26  and  C_28
REMARK                            x       y       z     vdW  Elec       q    Type
REMARK                         _______ _______ _______ _____ _____    ______ ____
ROOT
ATOM      1  C   UNL     1      -0.980  -3.654   1.722  0.00  0.00    +0.030 A 
ATOM      2  C   UNL     1      -2.283  -4.125   1.598  0.00  0.00    +0.025 A 
ATOM      3  C   UNL     1      -2.743  -5.126   2.430  0.00  0.00    +0.026 A 
ATOM      4  C   UNL     1      -1.908  -5.670   3.395  0.00  0.00    +0.041 A 
ATOM      5  C   UNL     1      -0.594  -5.200   3.524  0.00  0.00    +0.001 A 
ATOM      6  C   UNL     1      -0.133  -4.192   2.678  0.00  0.00    +0.033 A 
ENDROOT
BRANCH   1  11
ATOM      7  C   UNL     1      -0.071   1.391  -0.158  0.00  0.00    -0.096 C 
ATOM      8  N   UNL     1      -0.030  -0.077  -0.129  0.00  0.00    +0.380 N 
ATOM      9  C   UNL     1      -1.401  -0.604  -0.137  0.00  0.00    -0.060 C 
ATOM     10  C   UNL     1      -1.360  -2.133  -0.222  0.00  0.00    +0.086 C 
ATOM     11  N   UNL     1      -0.521  -2.639   0.875  0.00  0.00    -0.333 N 
ATOM     12  C   UNL     1       0.813  -2.047   1.057  0.00  0.00    +0.086 C 
ATOM     13  C   UNL     1       0.669  -0.522   1.083  0.00  0.00    -0.060 C 
ATOM     14  H   UNL     1       0.461  -0.415  -0.943  0.00  0.00    -0.082 HD
ENDBRANCH   1  11
BRANCH   5  15
ATOM     15  C   UNL     1       0.302  -5.774   4.549  0.00  0.00    -0.042 C 
ATOM     16  C   UNL     1       0.106  -5.433   5.801  0.00  0.00    -0.023 C 
ATOM     17  C   UNL     1       0.943  -5.931   6.943  0.00  0.00    +0.027 C 
ATOM     18  C   UNL     1       1.733  -7.170   6.517  0.00  0.00    +0.004 C 
ATOM     19  C   UNL     1       2.441  -6.863   5.191  0.00  0.00    +0.005 C 
ATOM     20  C   UNL     1       1.378  -6.719   4.098  0.00  0.00    +0.035 C 
ENDBRANCH   5  15
BRANCH   4  21
ATOM     21  N   UNL     1      -2.376  -6.683   4.236  0.00  0.00    -0.278 N 
ATOM     22  C   UNL     1      -3.694  -6.789   4.495  0.00  0.00    +0.284 C 
ATOM     23  O   UNL     1      -4.484  -6.048   3.940  0.00  0.00    -0.266 OA
ATOM     24  H   UNL     1      -1.751  -7.309   4.634  0.00  0.00    +0.155 HD
BRANCH  22  25
ATOM     25  C   UNL     1      -4.178  -7.800   5.446  0.00  0.00    +0.191 A 
ATOM     26  C   UNL     1      -5.483  -8.012   5.789  0.00  0.00    +0.056 A 
ATOM     27  C   UNL     1      -5.497  -9.060   6.716  0.00  0.00    +0.061 A 
ATOM     28  C   UNL     1      -4.188  -9.445   6.902  0.00  0.00    +0.205 A 
ATOM     29  O   UNL     1      -3.409  -8.675   6.120  0.00  0.00    -0.440 OA
BRANCH  28  30
ATOM     30  C   UNL     1      -3.735 -10.489   7.771  0.00  0.00    +0.138 C 
ATOM     31  N   UNL     1      -3.376 -11.318   8.460  0.00  0.00    -0.188 NA
ENDBRANCH  28  30
ENDBRANCH  22  25
ENDBRANCH   4  21
TORSDOF 5
