REMARK  Name = CHEMBL258709
REMARK  6 active torsions:
REMARK  status: ('A' for Active; 'I' for Inactive)
REMARK    1  A    between atoms: C_1  and  C_2
REMARK    2  A    between atoms: N_5  and  C_8
REMARK    3  A    between atoms: C_10  and  C_24
REMARK    4  A    between atoms: C_13  and  N_14
REMARK    5  A    between atoms: C_15  and  C_17
REMARK    6  A    between atoms: C_20  and  C_22
REMARK                            x       y       z     vdW  Elec       q    Type
REMARK                         _______ _______ _______ _____ _____    ______ ____
ROOT
ATOM      1  C   UNL     1      -1.095  -3.501   1.981  0.00  0.00    +0.052 A 
ATOM      2  C   UNL     1      -0.947  -4.855   1.735  0.00  0.00    +0.033 A 
ATOM      3  C   UNL     1      -1.458  -5.785   2.639  0.00  0.00    -0.016 A 
ATOM      4  C   UNL     1      -2.116  -5.349   3.789  0.00  0.00    +0.010 A 
ATOM      5  C   UNL     1      -2.263  -3.999   4.031  0.00  0.00    +0.026 A 
ATOM      6  C   UNL     1      -1.750  -3.070   3.136  0.00  0.00    +0.055 A 
ENDROOT
BRANCH   1  11
ATOM      7  C   UNL     1       0.010   1.513   0.015  0.00  0.00    +0.007 C 
ATOM      8  C   UNL     1       0.018  -0.017   0.005  0.00  0.00    -0.011 C 
ATOM      9  C   UNL     1      -1.422  -0.534   0.013  0.00  0.00    +0.022 C 
ATOM     10  C   UNL     1      -1.410  -2.066  -0.032  0.00  0.00    +0.105 C 
ATOM     11  N   UNL     1      -0.584  -2.565   1.075  0.00  0.00    -0.328 N 
ATOM     12  C   UNL     1       0.790  -2.062   1.214  0.00  0.00    +0.105 C 
ATOM     13  C   UNL     1       0.753  -0.531   1.245  0.00  0.00    +0.022 C 
ENDBRANCH   1  11
BRANCH   3  14
ATOM     14  C   UNL     1      -1.301  -7.236   2.379  0.00  0.00    -0.015 A 
ATOM     15  C   UNL     1      -0.640  -7.694   1.236  0.00  0.00    +0.028 A 
ATOM     16  C   UNL     1      -0.516  -9.053   1.032  0.00  0.00    +0.111 A 
ATOM     17  N   UNL     1      -1.013  -9.915   1.899  0.00  0.00    -0.263 NA
ATOM     18  C   UNL     1      -1.643  -9.525   2.990  0.00  0.00    +0.111 A 
ATOM     19  C   UNL     1      -1.806  -8.185   3.274  0.00  0.00    +0.028 A 
ENDBRANCH   3  14
BRANCH   6  20
ATOM     20  N   UNL     1      -1.895  -1.702   3.388  0.00  0.00    -0.277 N 
ATOM     21  C   UNL     1      -2.054  -1.264   4.653  0.00  0.00    +0.284 C 
ATOM     22  O   UNL     1      -1.971  -2.044   5.582  0.00  0.00    -0.266 OA
ATOM     23  H   UNL     1      -1.881  -1.069   2.653  0.00  0.00    +0.155 HD
BRANCH  21  24
ATOM     24  C   UNL     1      -2.328   0.158   4.908  0.00  0.00    +0.191 A 
ATOM     25  C   UNL     1      -2.503   0.728   6.138  0.00  0.00    +0.056 A 
ATOM     26  C   UNL     1      -2.739   2.091   5.928  0.00  0.00    +0.061 A 
ATOM     27  C   UNL     1      -2.697   2.296   4.566  0.00  0.00    +0.205 A 
ATOM     28  O   UNL     1      -2.442   1.117   3.970  0.00  0.00    -0.440 OA
BRANCH  27  29
ATOM     29  C   UNL     1      -2.887   3.550   3.900  0.00  0.00    +0.138 C 
ATOM     30  N   UNL     1      -3.038   4.544   3.372  0.00  0.00    -0.188 NA
ENDBRANCH  27  29
ENDBRANCH  21  24
ENDBRANCH   6  20
TORSDOF 5
