REMARK  Name = CHEMBL461573
REMARK  6 active torsions:
REMARK  status: ('A' for Active; 'I' for Inactive)
REMARK    1  A    between atoms: C_1  and  C_2
REMARK    2  A    between atoms: C_4  and  C_26
REMARK    3  A    between atoms: C_6  and  C_8
REMARK    4  A    between atoms: N_10  and  C_11
REMARK    5  A    between atoms: C_15  and  C_17
REMARK    6  A    between atoms: N_19  and  C_20
REMARK                            x       y       z     vdW  Elec       q    Type
REMARK                         _______ _______ _______ _____ _____    ______ ____
ROOT
ATOM      1  C   UNL     1      -0.027  -2.845   4.861  0.00  0.00    +0.034 A 
ATOM      2  C   UNL     1       0.004  -4.235   4.904  0.00  0.00    +0.025 A 
ATOM      3  C   UNL     1      -0.071  -4.895   6.116  0.00  0.00    +0.022 A 
ATOM      4  C   UNL     1      -0.176  -4.178   7.293  0.00  0.00    +0.053 A 
ATOM      5  C   UNL     1      -0.208  -2.782   7.259  0.00  0.00    +0.057 A 
ATOM      6  C   UNL     1      -0.127  -2.116   6.035  0.00  0.00    +0.037 A 
ATOM      7 CL   UNL     1      -0.271  -5.013   8.812  0.00  0.00    -0.083 Cl
ENDROOT
BRANCH   1  10
ATOM      8  C   UNL     1      -0.534  -2.718   2.540  0.00  0.00    +0.248 C 
ATOM      9  O   UNL     1      -1.053  -3.815   2.605  0.00  0.00    -0.270 OA
ATOM     10  N   UNL     1       0.049  -2.182   3.631  0.00  0.00    -0.281 N 
ATOM     11  H   UNL     1       0.521  -1.338   3.563  0.00  0.00    +0.155 HD
BRANCH   8  17
ATOM     12  C   UNL     1       0.680   1.344  -0.092  0.00  0.00    +0.044 C 
ATOM     13  C   UNL     1       0.039  -0.017  -0.006  0.00  0.00    -0.049 A 
ATOM     14  C   UNL     1      -0.560  -0.570  -1.124  0.00  0.00    +0.006 A 
ATOM     15  C   UNL     1      -1.151  -1.819  -1.054  0.00  0.00    -0.049 A 
ATOM     16  C   UNL     1      -1.146  -2.522   0.133  0.00  0.00    +0.016 A 
ATOM     17  C   UNL     1      -0.543  -1.970   1.265  0.00  0.00    +0.038 A 
ATOM     18  C   UNL     1       0.056  -0.712   1.186  0.00  0.00    +0.016 A 
ATOM     19  C   UNL     1      -1.802  -2.412  -2.276  0.00  0.00    +0.044 C 
ENDBRANCH   8  17
ENDBRANCH   1  10
BRANCH   5  20
ATOM     20  C   UNL     1      -0.321  -2.012   8.515  0.00  0.00    +0.250 C 
ATOM     21  O   UNL     1      -0.388  -2.594   9.581  0.00  0.00    -0.270 OA
ATOM     22  N   UNL     1      -0.351  -0.665   8.480  0.00  0.00    -0.275 N 
ATOM     23  H   UNL     1      -0.298  -0.201   7.630  0.00  0.00    +0.156 HD
BRANCH  22  24
ATOM     24  C   UNL     1      -0.459   0.062   9.668  0.00  0.00    +0.092 A 
ATOM     25  C   UNL     1      -0.512   1.413   9.861  0.00  0.00    +0.142 A 
ATOM     26  N   UNL     1      -0.615   1.829  11.108  0.00  0.00    -0.254 NA
ATOM     27  C   UNL     1      -0.664   0.986  12.108  0.00  0.00    +0.157 A 
ATOM     28  S   UNL     1      -0.573  -0.516  11.353  0.00  0.00    -0.061 S 
ENDBRANCH  22  24
ENDBRANCH   5  20
TORSDOF 4
