REMARK  Name = CHEMBL258474
REMARK  7 active torsions:
REMARK  status: ('A' for Active; 'I' for Inactive)
REMARK    1  A    between atoms: C_1  and  C_2
REMARK    2  A    between atoms: C_7  and  C_8
REMARK    3  A    between atoms: C_10  and  N_24
REMARK    4  A    between atoms: C_13  and  N_14
REMARK    5  A    between atoms: C_15  and  C_17
REMARK    6  A    between atoms: C_20  and  C_22
REMARK    7  A    between atoms: N_27  and  C_30
REMARK                            x       y       z     vdW  Elec       q    Type
REMARK                         _______ _______ _______ _____ _____    ______ ____
ROOT
ATOM      1  C   UNL     1      -0.010  -0.080   2.470  0.00  0.00    +0.005 A 
ATOM      2  C   UNL     1       1.090  -0.224   3.311  0.00  0.00    +0.033 A 
ATOM      3  C   UNL     1       1.116   0.431   4.532  0.00  0.00    +0.030 A 
ATOM      4  C   UNL     1       0.046   1.231   4.918  0.00  0.00    +0.025 A 
ATOM      5  C   UNL     1      -1.047   1.377   4.088  0.00  0.00    +0.026 A 
ATOM      6  C   UNL     1      -1.081   0.731   2.860  0.00  0.00    +0.042 A 
ENDROOT
BRANCH   3   7
ATOM      7  N   UNL     1       2.221   0.287   5.379  0.00  0.00    -0.333 N 
ATOM      8  C   UNL     1       3.312  -0.642   5.047  0.00  0.00    +0.086 C 
ATOM      9  C   UNL     1       4.642   0.108   5.163  0.00  0.00    -0.060 C 
ATOM     10  N   UNL     1       4.746   0.714   6.497  0.00  0.00    +0.380 N 
ATOM     11  C   UNL     1       3.702   1.732   6.667  0.00  0.00    -0.060 C 
ATOM     12  C   UNL     1       2.328   1.066   6.622  0.00  0.00    +0.086 C 
ATOM     13  C   UNL     1       6.067   1.340   6.647  0.00  0.00    -0.096 C 
ATOM     14  H   UNL     1       4.634  -0.001   7.200  0.00  0.00    -0.082 HD
ENDBRANCH   3   7
BRANCH   1  21
ATOM     15  C   UNL     1       0.004   1.461   0.021  0.00  0.00    +0.044 C 
ATOM     16  C   UNL     1      -0.037  -0.045  -0.023  0.00  0.00    -0.043 A 
ATOM     17  C   UNL     1      -0.062  -0.701  -1.238  0.00  0.00    +0.004 A 
ATOM     18  C   UNL     1      -0.100  -2.083  -1.280  0.00  0.00    +0.000 A 
ATOM     19  C   UNL     1      -0.113  -2.816  -0.106  0.00  0.00    +0.001 A 
ATOM     20  C   UNL     1      -0.087  -2.171   1.113  0.00  0.00    +0.009 A 
ATOM     21  C   UNL     1      -0.043  -0.779   1.162  0.00  0.00    -0.013 A 
ENDBRANCH   1  21
BRANCH   6  22
ATOM     22  N   UNL     1      -2.186   0.885   2.018  0.00  0.00    -0.278 N 
ATOM     23  C   UNL     1      -2.852   2.057   1.988  0.00  0.00    +0.284 C 
ATOM     24  O   UNL     1      -2.432   3.012   2.613  0.00  0.00    -0.266 OA
ATOM     25  H   UNL     1      -2.474   0.149   1.455  0.00  0.00    +0.155 HD
BRANCH  23  26
ATOM     26  C   UNL     1      -4.087   2.180   1.199  0.00  0.00    +0.191 A 
ATOM     27  C   UNL     1      -4.849   3.308   1.082  0.00  0.00    +0.056 A 
ATOM     28  C   UNL     1      -5.925   2.991   0.246  0.00  0.00    +0.061 A 
ATOM     29  C   UNL     1      -5.772   1.670  -0.115  0.00  0.00    +0.205 A 
ATOM     30  O   UNL     1      -4.653   1.202   0.467  0.00  0.00    -0.440 OA
BRANCH  29  31
ATOM     31  C   UNL     1      -6.650   0.925  -0.967  0.00  0.00    +0.138 C 
ATOM     32  N   UNL     1      -7.346   0.335  -1.643  0.00  0.00    -0.188 NA
ENDBRANCH  29  31
ENDBRANCH  23  26
ENDBRANCH   6  22
TORSDOF 5
