REMARK  Name = CHEMBL265433
REMARK  7 active torsions:
REMARK  status: ('A' for Active; 'I' for Inactive)
REMARK    1  A    between atoms: C_1  and  C_2
REMARK    2  A    between atoms: C_3  and  C_7
REMARK    3  A    between atoms: C_9  and  N_23
REMARK    4  A    between atoms: C_12  and  N_13
REMARK    5  A    between atoms: C_14  and  C_16
REMARK    6  A    between atoms: C_19  and  C_21
REMARK    7  A    between atoms: N_26  and  C_29
REMARK                            x       y       z     vdW  Elec       q    Type
REMARK                         _______ _______ _______ _____ _____    ______ ____
ROOT
ATOM      1  C   UNL     1      -2.393  -0.490  -0.029  0.00  0.00    +0.006 A 
ATOM      2  C   UNL     1      -3.195  -0.810   1.063  0.00  0.00    +0.033 A 
ATOM      3  C   UNL     1      -4.514  -0.385   1.099  0.00  0.00    +0.030 A 
ATOM      4  C   UNL     1      -5.037   0.359   0.048  0.00  0.00    +0.025 A 
ATOM      5  C   UNL     1      -4.246   0.679  -1.038  0.00  0.00    +0.026 A 
ATOM      6  C   UNL     1      -2.923   0.264  -1.083  0.00  0.00    +0.042 A 
ENDROOT
BRANCH   3   7
ATOM      7  N   UNL     1      -5.321  -0.706   2.196  0.00  0.00    -0.327 N 
ATOM      8  C   UNL     1      -6.686  -0.169   2.312  0.00  0.00    +0.120 C 
ATOM      9  C   UNL     1      -7.645  -1.334   2.582  0.00  0.00    +0.103 C 
ATOM     10  N   UNL     1      -7.174  -2.091   3.749  0.00  0.00    -0.302 NA
ATOM     11  C   UNL     1      -5.859  -2.696   3.497  0.00  0.00    +0.103 C 
ATOM     12  C   UNL     1      -4.829  -1.593   3.261  0.00  0.00    +0.120 C 
ATOM     13  C   UNL     1      -8.155  -3.111   4.146  0.00  0.00    +0.105 C 
ENDBRANCH   3   7
BRANCH   1  16
ATOM     14  C   UNL     1      -0.021   1.467   0.028  0.00  0.00    +0.052 C 
ATOM     15  C   UNL     1       0.043  -0.037  -0.046  0.00  0.00    -0.006 A 
ATOM     16  C   UNL     1      -0.981  -0.941  -0.074  0.00  0.00    -0.006 A 
ATOM     17  C   UNL     1      -0.669  -2.296  -0.145  0.00  0.00    +0.016 A 
ATOM     18  C   UNL     1       0.630  -2.668  -0.183  0.00  0.00    +0.046 A 
ATOM     19  S   UNL     1       1.476  -1.097  -0.128  0.00  0.00    -0.101 S 
ENDBRANCH   1  16
BRANCH   6  20
ATOM     20  N   UNL     1      -2.122   0.594  -2.181  0.00  0.00    -0.278 N 
ATOM     21  C   UNL     1      -2.300   1.768  -2.817  0.00  0.00    +0.284 C 
ATOM     22  O   UNL     1      -3.085   2.586  -2.375  0.00  0.00    -0.266 OA
ATOM     23  H   UNL     1      -1.438  -0.023  -2.485  0.00  0.00    +0.155 HD
BRANCH  21  24
ATOM     24  C   UNL     1      -1.547   2.061  -4.045  0.00  0.00    +0.191 A 
ATOM     25  C   UNL     1      -1.632   3.212  -4.778  0.00  0.00    +0.056 A 
ATOM     26  C   UNL     1      -0.752   3.075  -5.857  0.00  0.00    +0.061 A 
ATOM     27  C   UNL     1      -0.162   1.836  -5.736  0.00  0.00    +0.205 A 
ATOM     28  O   UNL     1      -0.653   1.243  -4.633  0.00  0.00    -0.440 OA
BRANCH  27  29
ATOM     29  C   UNL     1       0.809   1.278  -6.628  0.00  0.00    +0.138 C 
ATOM     30  N   UNL     1       1.579   0.835  -7.336  0.00  0.00    -0.188 NA
ENDBRANCH  27  29
ENDBRANCH  21  24
ENDBRANCH   6  20
TORSDOF 5
