REMARK  Name = CHEMBL481231
REMARK  11 active torsions:
REMARK  status: ('A' for Active; 'I' for Inactive)
REMARK    1  A    between atoms: C_1  and  N_2
REMARK    2  A    between atoms: N_5  and  C_8
REMARK    3  A    between atoms: C_8  and  C_9
REMARK    4  A    between atoms: C_9  and  C_10
REMARK    5  A    between atoms: C_10  and  O_11
REMARK    6  A    between atoms: O_11  and  C_12
REMARK    7  A    between atoms: C_17  and  O_18
REMARK    8  A    between atoms: O_18  and  C_19
REMARK    9  A    between atoms: C_20  and  N_27
REMARK   10  A    between atoms: C_21  and  C_24
REMARK   11  A    between atoms: N_27  and  C_28
REMARK                            x       y       z     vdW  Elec       q    Type
REMARK                         _______ _______ _______ _____ _____    ______ ____
ROOT
ATOM      1  C   UNL     1      -2.417  -9.382   5.770  0.00  0.00    +0.164 A 
ATOM      2  C   UNL     1      -1.954  -9.552   4.485  0.00  0.00    +0.075 A 
ATOM      3  C   UNL     1      -0.828 -10.355   4.251  0.00  0.00    +0.052 A 
ATOM      4  C   UNL     1      -0.186 -10.979   5.347  0.00  0.00    +0.024 A 
ATOM      5  C   UNL     1      -0.677 -10.789   6.647  0.00  0.00    +0.061 A 
ATOM      6  C   UNL     1      -1.772  -9.999   6.851  0.00  0.00    +0.162 A 
ATOM      7  C   UNL     1       0.950 -11.788   5.108  0.00  0.00    +0.054 A 
ATOM      8  C   UNL     1       1.383 -11.931   3.781  0.00  0.00    +0.074 A 
ATOM      9  C   UNL     1       0.684 -11.275   2.755  0.00  0.00    +0.098 A 
ATOM     10  N   UNL     1      -0.363 -10.532   3.005  0.00  0.00    -0.360 N 
ATOM     11  H   UNL     1      -0.817 -10.096   2.267  0.00  0.00    +0.165 HD
ENDROOT
BRANCH   8  12
ATOM     12  C   UNL     1       2.558 -12.760   3.468  0.00  0.00    +0.245 C 
ATOM     13  O   UNL     1       3.099 -13.405   4.346  0.00  0.00    -0.270 OA
ATOM     14  N   UNL     1       3.036 -12.804   2.208  0.00  0.00    -0.325 N 
ATOM     15  H   UNL     1       2.604 -12.290   1.508  0.00  0.00    +0.145 HD
ATOM     16  H   UNL     1       3.810 -13.350   2.002  0.00  0.00    +0.145 HD
ENDBRANCH   8  12
BRANCH   6  17
ATOM     17  O   UNL     1      -2.243  -9.813   8.113  0.00  0.00    -0.491 OA
ATOM     18  C   UNL     1      -1.541 -10.469   9.171  0.00  0.00    +0.277 C 
ENDBRANCH   6  17
BRANCH   7  19
ATOM     19  N   UNL     1       1.608 -12.416   6.144  0.00  0.00    -0.313 N 
ATOM     20  H   UNL     1       2.305 -11.947   6.630  0.00  0.00    +0.152 HD
BRANCH  19  21
ATOM     21  C   UNL     1       1.272 -13.727   6.494  0.00  0.00    +0.033 A 
ATOM     22  C   UNL     1       0.378 -14.448   5.713  0.00  0.00    +0.026 A 
ATOM     23  C   UNL     1       0.047 -15.743   6.059  0.00  0.00    +0.041 A 
ATOM     24  C   UNL     1       0.607 -16.325   7.185  0.00  0.00    +0.142 A 
ATOM     25  C   UNL     1       1.499 -15.608   7.966  0.00  0.00    +0.078 A 
ATOM     26  C   UNL     1       1.837 -14.313   7.619  0.00  0.00    +0.046 A 
ATOM     27 CL   UNL     1       2.198 -16.339   9.377  0.00  0.00    -0.081 Cl
ATOM     28  F   UNL     1       0.282 -17.592   7.522  0.00  0.00    -0.204 F 
ENDBRANCH  19  21
ENDBRANCH   7  19
BRANCH   1  29
ATOM     29  O   UNL     1      -3.508  -8.604   5.995  0.00  0.00    -0.488 OA
BRANCH  29  30
ATOM     30  C   UNL     1      -4.121  -8.002   4.853  0.00  0.00    +0.230 C 
BRANCH  30  31
ATOM     31  C   UNL     1      -5.324  -7.170   5.300  0.00  0.00    +0.056 C 
BRANCH  31  32
ATOM     32  C   UNL     1      -5.982  -6.526   4.077  0.00  0.00    +0.087 C 
BRANCH  32  37
ATOM     33  C   UNL     1      -9.888  -2.592   5.083  0.00  0.00    -0.096 C 
ATOM     34  N   UNL     1      -8.714  -3.348   4.626  0.00  0.00    +0.379 N 
ATOM     35  C   UNL     1      -9.155  -4.510   3.843  0.00  0.00    -0.064 C 
ATOM     36  C   UNL     1      -7.932  -5.287   3.351  0.00  0.00    +0.066 C 
ATOM     37  N   UNL     1      -7.137  -5.726   4.506  0.00  0.00    -0.306 NA
ATOM     38  C   UNL     1      -6.710  -4.575   5.314  0.00  0.00    +0.066 C 
ATOM     39  C   UNL     1      -7.943  -3.804   5.790  0.00  0.00    -0.064 C 
ATOM     40  H   UNL     1      -8.136  -2.755   4.051  0.00  0.00    -0.082 HD
ENDBRANCH  32  37
ENDBRANCH  31  32
ENDBRANCH  30  31
ENDBRANCH  29  30
ENDBRANCH   1  29
TORSDOF 9
