REMARK  Name = CHEMBL489684
REMARK  9 active torsions:
REMARK  status: ('A' for Active; 'I' for Inactive)
REMARK    1  A    between atoms: C_1  and  C_2
REMARK    2  A    between atoms: C_2  and  C_3
REMARK    3  A    between atoms: C_6  and  N_9
REMARK    4  A    between atoms: C_11  and  C_34
REMARK    5  A    between atoms: N_20  and  C_21
REMARK    6  A    between atoms: C_24  and  C_27
REMARK    7  A    between atoms: N_30  and  C_33
REMARK    8  A    between atoms: N_36  and  O_37
REMARK    9  A    between atoms: O_37  and  C_38
REMARK                            x       y       z     vdW  Elec       q    Type
REMARK                         _______ _______ _______ _____ _____    ______ ____
ROOT
ATOM      1  N   UNL     1      -5.303  -2.304  -0.061  0.00  0.00    -0.300 N 
ATOM      2  C   UNL     1      -5.790  -2.794   1.093  0.00  0.00    +0.110 A 
ATOM      3  C   UNL     1      -7.005  -3.440   1.164  0.00  0.00    +0.102 A 
ATOM      4  C   UNL     1      -7.799  -3.601  -0.067  0.00  0.00    +0.205 A 
ATOM      5  O   UNL     1      -8.880  -4.165  -0.058  0.00  0.00    -0.286 OA
ATOM      6  C   UNL     1      -7.231  -3.051  -1.306  0.00  0.00    +0.083 A 
ATOM      7  C   UNL     1      -5.979  -2.406  -1.252  0.00  0.00    +0.154 A 
ATOM      8  N   UNL     1      -5.474  -1.908  -2.376  0.00  0.00    -0.196 NA
ATOM      9  C   UNL     1      -6.140  -2.016  -3.515  0.00  0.00    +0.221 A 
ATOM     10  N   UNL     1      -7.324  -2.614  -3.597  0.00  0.00    -0.222 NA
ATOM     11  C   UNL     1      -7.894  -3.146  -2.530  0.00  0.00    +0.129 A 
ATOM     12  N   UNL     1      -5.583  -1.486  -4.663  0.00  0.00    -0.284 N 
ATOM     13  H   UNL     1      -4.689  -1.112  -4.639  0.00  0.00    +0.155 HD
ENDROOT
BRANCH   1  17
ATOM     14  C   UNL     1      -1.604  -0.388  -0.016  0.00  0.00    -0.047 A 
ATOM     15  C   UNL     1      -2.732   0.299  -0.427  0.00  0.00    +0.005 A 
ATOM     16  C   UNL     1      -3.959  -0.334  -0.443  0.00  0.00    +0.026 A 
ATOM     17  C   UNL     1      -4.060  -1.661  -0.046  0.00  0.00    +0.048 A 
ATOM     18  C   UNL     1      -2.926  -2.347   0.366  0.00  0.00    +0.026 A 
ATOM     19  C   UNL     1      -1.700  -1.711   0.375  0.00  0.00    +0.005 A 
BRANCH  14  21
ATOM     20  C   UNL     1       0.421   0.122  -1.354  0.00  0.00    +0.009 C 
ATOM     21  C   UNL     1      -0.266   0.306   0.001  0.00  0.00    +0.032 C 
ENDBRANCH  14  21
ENDBRANCH   1  17
BRANCH  12  22
ATOM     22  C   UNL     1      -6.308  -1.489  -5.858  0.00  0.00    +0.034 A 
ATOM     23  C   UNL     1      -7.688  -1.329  -5.836  0.00  0.00    +0.023 A 
ATOM     24  C   UNL     1      -8.401  -1.332  -7.018  0.00  0.00    +0.006 A 
ATOM     25  C   UNL     1      -7.744  -1.496  -8.224  0.00  0.00    -0.044 A 
ATOM     26  C   UNL     1      -6.370  -1.656  -8.249  0.00  0.00    +0.006 A 
ATOM     27  C   UNL     1      -5.650  -1.647  -7.071  0.00  0.00    +0.023 A 
BRANCH  25  28
ATOM     28  C   UNL     1      -8.526  -1.500  -9.512  0.00  0.00    +0.016 C 
ATOM     29  C   UNL     1      -8.314  -2.834 -10.235  0.00  0.00    -0.011 C 
ATOM     30  C   UNL     1      -9.046  -2.801 -11.578  0.00  0.00    -0.079 C 
ATOM     31  N   UNL     1      -8.516  -1.708 -12.401  0.00  0.00    +0.378 N 
ATOM     32  C   UNL     1      -8.780  -0.420 -11.748  0.00  0.00    -0.079 C 
ATOM     33  C   UNL     1      -8.038  -0.361 -10.411  0.00  0.00    -0.011 C 
ATOM     34  C   UNL     1      -9.167  -1.729 -13.718  0.00  0.00    -0.096 C 
ATOM     35  H   UNL     1      -7.521  -1.827 -12.518  0.00  0.00    -0.082 HD
ENDBRANCH  25  28
ENDBRANCH  12  22
BRANCH   3  36
ATOM     36  C   UNL     1      -7.500  -3.962   2.448  0.00  0.00    +0.272 C 
ATOM     37  O   UNL     1      -6.888  -3.734   3.474  0.00  0.00    -0.268 OA
ATOM     38  N   UNL     1      -8.632  -4.692   2.486  0.00  0.00    -0.191 N 
ATOM     39  H   UNL     1      -9.077  -4.941   1.661  0.00  0.00    +0.183 HD
BRANCH  38  40
ATOM     40  O   UNL     1      -9.172  -5.096   3.732  0.00  0.00    -0.283 OA
ATOM     41  C   UNL     1     -10.373  -5.864   3.623  0.00  0.00    +0.226 C 
ENDBRANCH  38  40
ENDBRANCH   3  36
TORSDOF 6
