REMARK  Name = CHEMBL252834
REMARK  6 active torsions:
REMARK  status: ('A' for Active; 'I' for Inactive)
REMARK    1  A    between atoms: C_1  and  C_2
REMARK    2  A    between atoms: C_9  and  N_21
REMARK    3  A    between atoms: C_12  and  N_14
REMARK    4  A    between atoms: N_17  and  C_20
REMARK    5  A    between atoms: C_22  and  C_24
REMARK    6  A    between atoms: C_27  and  C_29
REMARK                            x       y       z     vdW  Elec       q    Type
REMARK                         _______ _______ _______ _____ _____    ______ ____
ROOT
ATOM      1  C   UNL     1      -0.827  -0.018  -2.446  0.00  0.00    +0.007 C 
ATOM      2  C   UNL     1      -0.279  -0.715  -1.199  0.00  0.00    -0.011 C 
ATOM      3  C   UNL     1      -0.245  -2.226  -1.433  0.00  0.00    +0.022 C 
ATOM      4  C   UNL     1       0.337  -2.918  -0.196  0.00  0.00    +0.107 C 
ATOM      5  N   UNL     1      -0.437  -2.507   0.983  0.00  0.00    -0.315 N 
ATOM      6  C   UNL     1      -0.609  -1.073   1.251  0.00  0.00    +0.107 C 
ATOM      7  C   UNL     1      -1.180  -0.402  -0.002  0.00  0.00    +0.022 C 
ATOM      8  C   UNL     1      -0.998  -3.459   1.830  0.00  0.00    +0.122 A 
ATOM      9  C   UNL     1      -0.229  -4.008   2.858  0.00  0.00    +0.072 A 
ATOM     10  C   UNL     1      -0.801  -4.957   3.697  0.00  0.00    +0.030 A 
ATOM     11  C   UNL     1      -2.119  -5.325   3.479  0.00  0.00    +0.043 A 
ATOM     12  C   UNL     1      -2.826  -4.738   2.437  0.00  0.00    +0.100 A 
ATOM     13  N   UNL     1      -2.256  -3.832   1.657  0.00  0.00    -0.330 N 
ATOM     14  H   UNL     1      -2.772  -3.434   0.938  0.00  0.00    +0.168 HD
ENDROOT
BRANCH  12  15
ATOM     15  N   UNL     1      -4.150  -5.104   2.213  0.00  0.00    -0.320 N 
ATOM     16  C   UNL     1      -4.851  -6.010   3.136  0.00  0.00    +0.088 C 
ATOM     17  C   UNL     1      -6.189  -5.370   3.521  0.00  0.00    -0.060 C 
ATOM     18  N   UNL     1      -6.943  -5.043   2.304  0.00  0.00    +0.380 N 
ATOM     19  C   UNL     1      -6.225  -4.021   1.532  0.00  0.00    -0.060 C 
ATOM     20  C   UNL     1      -4.891  -4.589   1.051  0.00  0.00    +0.088 C 
ATOM     21  C   UNL     1      -8.270  -4.532   2.675  0.00  0.00    -0.096 C 
ATOM     22  H   UNL     1      -7.050  -5.874   1.743  0.00  0.00    -0.082 HD
ENDBRANCH  12  15
BRANCH   9  23
ATOM     23  N   UNL     1       1.102  -3.607   3.042  0.00  0.00    -0.276 N 
ATOM     24  C   UNL     1       1.680  -3.724   4.254  0.00  0.00    +0.284 C 
ATOM     25  O   UNL     1       1.019  -4.080   5.211  0.00  0.00    -0.266 OA
ATOM     26  H   UNL     1       1.607  -3.245   2.297  0.00  0.00    +0.155 HD
BRANCH  24  27
ATOM     27  C   UNL     1       3.109  -3.421   4.419  0.00  0.00    +0.191 A 
ATOM     28  C   UNL     1       3.812  -3.505   5.588  0.00  0.00    +0.056 A 
ATOM     29  C   UNL     1       5.130  -3.132   5.301  0.00  0.00    +0.061 A 
ATOM     30  C   UNL     1       5.175  -2.833   3.957  0.00  0.00    +0.205 A 
ATOM     31  O   UNL     1       3.945  -3.020   3.443  0.00  0.00    -0.440 OA
BRANCH  30  32
ATOM     32  C   UNL     1       6.332  -2.404   3.231  0.00  0.00    +0.138 C 
ATOM     33  N   UNL     1       7.250  -2.064   2.655  0.00  0.00    -0.188 NA
ENDBRANCH  30  32
ENDBRANCH  24  27
ENDBRANCH   9  23
TORSDOF 4
