REMARK  Name = CHEMBL515867
REMARK  5 active torsions:
REMARK  status: ('A' for Active; 'I' for Inactive)
REMARK    1  A    between atoms: C_1  and  C_2
REMARK    2  A    between atoms: C_2  and  C_4
REMARK    3  A    between atoms: C_2  and  N_20
REMARK    4  A    between atoms: C_8  and  N_10
REMARK    5  A    between atoms: C_11  and  C_13
REMARK                            x       y       z     vdW  Elec       q    Type
REMARK                         _______ _______ _______ _____ _____    ______ ____
ROOT
ATOM      1  C   UNL     1       0.680  -0.658   1.209  0.00  0.00    -0.026 A 
ATOM      2  C   UNL     1       0.085  -0.545   2.453  0.00  0.00    +0.005 A 
ATOM      3  C   UNL     1       0.804  -0.838   3.596  0.00  0.00    +0.002 A 
ATOM      4  C   UNL     1       2.121  -1.245   3.500  0.00  0.00    +0.023 A 
ATOM      5  C   UNL     1       2.721  -1.360   2.253  0.00  0.00    +0.034 A 
ATOM      6  C   UNL     1       1.993  -1.071   1.106  0.00  0.00    +0.028 A 
ENDROOT
BRANCH   5   7
ATOM      7  N   UNL     1       4.054  -1.772   2.152  0.00  0.00    -0.281 N 
ATOM      8  C   UNL     1       4.555  -2.655   3.039  0.00  0.00    +0.250 C 
ATOM      9  O   UNL     1       3.826  -3.165   3.867  0.00  0.00    -0.270 OA
ATOM     10  H   UNL     1       4.617  -1.423   1.444  0.00  0.00    +0.155 HD
BRANCH   8  11
ATOM     11  C   UNL     1       5.992  -3.002   3.005  0.00  0.00    +0.056 A 
ATOM     12  C   UNL     1       6.524  -3.921   3.917  0.00  0.00    +0.031 A 
ATOM     13  C   UNL     1       7.875  -4.212   3.843  0.00  0.00    +0.037 A 
ATOM     14  C   UNL     1       8.649  -3.590   2.878  0.00  0.00    +0.126 A 
ATOM     15  N   UNL     1       8.120  -2.727   2.032  0.00  0.00    -0.261 NA
ATOM     16  C   UNL     1       6.839  -2.422   2.060  0.00  0.00    +0.123 A 
ATOM     17 BR   UNL     1       8.656  -5.444   5.046  0.00  0.00    -0.049 Br
ENDBRANCH   8  11
ENDBRANCH   5   7
BRANCH   1  19
ATOM     18  C   UNL     1      -0.145   1.178  -0.239  0.00  0.00    +0.033 C 
ATOM     19  C   UNL     1      -0.109  -0.338  -0.035  0.00  0.00    +0.099 C 
BRANCH  19  20
ATOM     20  N   UNL     1      -1.476  -0.843   0.110  0.00  0.00    -0.321 N 
ATOM     21  C   UNL     1      -2.227  -1.147  -1.019  0.00  0.00    +0.139 A 
ATOM     22  C   UNL     1      -1.680  -0.977  -2.289  0.00  0.00    +0.154 A 
ATOM     23  N   UNL     1      -2.396  -1.267  -3.359  0.00  0.00    -0.257 NA
ATOM     24  C   UNL     1      -3.632  -1.719  -3.227  0.00  0.00    +0.151 A 
ATOM     25  C   UNL     1      -4.180  -1.889  -1.968  0.00  0.00    +0.149 A 
ATOM     26  N   UNL     1      -3.466  -1.606  -0.890  0.00  0.00    -0.218 NA
ATOM     27 CL   UNL     1      -5.803  -2.482  -1.802  0.00  0.00    -0.060 Cl
ATOM     28  H   UNL     1      -1.857  -0.966   0.993  0.00  0.00    +0.148 HD
ENDBRANCH  19  20
ENDBRANCH   1  19
TORSDOF 4
