REMARK  Name = CHEMBL406375
REMARK  1 active torsions:
REMARK  status: ('A' for Active; 'I' for Inactive)
REMARK    1  A    between atoms: C_4  and  C_7
REMARK                            x       y       z     vdW  Elec       q    Type
REMARK                         _______ _______ _______ _____ _____    ______ ____
ROOT
ATOM      1  C   UNL     1       3.699  -0.689  -0.037  0.00  0.00    +0.135 A 
ATOM      2  C   UNL     1       3.968  -1.917   0.606  0.00  0.00    +0.181 A 
ATOM      3  C   UNL     1       5.286  -2.235   0.340  0.00  0.00    +0.112 A 
ATOM      4  C   UNL     1       5.540  -3.513   1.019  0.00  0.00    +0.046 A 
ATOM      5  C   UNL     1       6.651  -4.346   1.134  0.00  0.00    +0.014 A 
ATOM      6  C   UNL     1       6.558  -5.511   1.865  0.00  0.00    +0.001 A 
ATOM      7  C   UNL     1       5.365  -5.853   2.484  0.00  0.00    +0.004 A 
ATOM      8  C   UNL     1       4.259  -5.036   2.377  0.00  0.00    +0.047 A 
ATOM      9  C   UNL     1       4.332  -3.858   1.645  0.00  0.00    +0.138 A 
ATOM     10  O   UNL     1       3.429  -2.890   1.377  0.00  0.00    -0.451 OA
ATOM     11  N   UNL     1       5.801  -1.238  -0.437  0.00  0.00    -0.273 N 
ATOM     12  H   UNL     1       6.707  -1.192  -0.780  0.00  0.00    +0.189 HD
ATOM     13  N   UNL     1       4.788  -0.295  -0.659  0.00  0.00    -0.169 NA
ENDROOT
BRANCH   1  17
ATOM     14  C   UNL     1      -0.017   1.379   0.010  0.00  0.00    +0.000 A 
ATOM     15  C   UNL     1       1.169   2.092   0.002  0.00  0.00    +0.001 A 
ATOM     16  C   UNL     1       2.377   1.426  -0.013  0.00  0.00    +0.010 A 
ATOM     17  C   UNL     1       2.402   0.033  -0.021  0.00  0.00    +0.006 A 
ATOM     18  C   UNL     1       1.205  -0.680  -0.013  0.00  0.00    +0.010 A 
ATOM     19  C   UNL     1       0.002  -0.004   0.002  0.00  0.00    +0.001 A 
ENDBRANCH   1  17
TORSDOF 1
