REMARK  Name = CHEMBL507803
REMARK  6 active torsions:
REMARK  status: ('A' for Active; 'I' for Inactive)
REMARK    1  A    between atoms: C_1  and  C_2
REMARK    2  A    between atoms: C_5  and  N_17
REMARK    3  A    between atoms: C_7  and  N_8
REMARK    4  A    between atoms: C_9  and  C_11
REMARK    5  A    between atoms: C_18  and  C_20
REMARK    6  A    between atoms: C_24  and  C_26
REMARK                            x       y       z     vdW  Elec       q    Type
REMARK                         _______ _______ _______ _____ _____    ______ ____
ROOT
ATOM      1  C   UNL     1      -0.390   1.317   0.278  0.00  0.00    +0.045 C 
ATOM      2  C   UNL     1      -0.185  -0.165   0.094  0.00  0.00    -0.029 A 
ATOM      3  C   UNL     1      -0.325  -0.730  -1.159  0.00  0.00    +0.007 A 
ATOM      4  C   UNL     1      -0.139  -2.087  -1.333  0.00  0.00    +0.024 A 
ATOM      5  C   UNL     1       0.190  -2.889  -0.246  0.00  0.00    +0.035 A 
ATOM      6  C   UNL     1       0.331  -2.325   1.013  0.00  0.00    +0.047 A 
ATOM      7  C   UNL     1       0.149  -0.960   1.183  0.00  0.00    +0.038 A 
ENDROOT
BRANCH   7   8
ATOM      8  N   UNL     1       0.297  -0.386   2.449  0.00  0.00    -0.281 N 
ATOM      9  C   UNL     1       0.054  -1.119   3.554  0.00  0.00    +0.250 C 
ATOM     10  O   UNL     1      -0.216  -2.300   3.452  0.00  0.00    -0.270 OA
ATOM     11  H   UNL     1       0.574   0.540   2.533  0.00  0.00    +0.155 HD
BRANCH   9  12
ATOM     12  C   UNL     1       0.117  -0.488   4.889  0.00  0.00    +0.055 A 
ATOM     13  C   UNL     1      -0.128  -1.240   6.044  0.00  0.00    +0.016 A 
ATOM     14  C   UNL     1      -0.057  -0.601   7.270  0.00  0.00    +0.020 A 
ATOM     15  C   UNL     1       0.250   0.747   7.314  0.00  0.00    +0.111 A 
ATOM     16  N   UNL     1       0.475   1.431   6.208  0.00  0.00    -0.263 NA
ATOM     17  C   UNL     1       0.426   0.867   5.019  0.00  0.00    +0.123 A 
ENDBRANCH   9  12
ENDBRANCH   7   8
BRANCH   5  18
ATOM     18  N   UNL     1       0.377  -4.264  -0.422  0.00  0.00    -0.281 N 
ATOM     19  C   UNL     1       0.948  -4.727  -1.552  0.00  0.00    +0.248 C 
ATOM     20  O   UNL     1       1.224  -3.959  -2.453  0.00  0.00    -0.270 OA
ATOM     21  H   UNL     1       0.096  -4.884   0.269  0.00  0.00    +0.155 HD
BRANCH  19  22
ATOM     22  C   UNL     1       1.238  -6.169  -1.696  0.00  0.00    +0.038 A 
ATOM     23  C   UNL     1       0.916  -7.056  -0.666  0.00  0.00    +0.013 A 
ATOM     24  C   UNL     1       1.189  -8.400  -0.808  0.00  0.00    +0.001 A 
ATOM     25  C   UNL     1       1.780  -8.872  -1.967  0.00  0.00    +0.012 A 
ATOM     26  C   UNL     1       2.100  -7.999  -2.991  0.00  0.00    +0.056 A 
ATOM     27  C   UNL     1       1.828  -6.652  -2.865  0.00  0.00    +0.025 A 
BRANCH  26  28
ATOM     28  C   UNL     1       2.744  -8.521  -4.250  0.00  0.00    +0.417 C 
ATOM     29  F   UNL     1       2.914  -9.906  -4.146  0.00  0.00    -0.166 F 
ATOM     30  F   UNL     1       1.925  -8.233  -5.347  0.00  0.00    -0.166 F 
ATOM     31  F   UNL     1       3.990  -7.910  -4.425  0.00  0.00    -0.166 F 
ENDBRANCH  26  28
ENDBRANCH  19  22
ENDBRANCH   5  18
TORSDOF 5
