REMARK  Name = CHEMBL258461
REMARK  7 active torsions:
REMARK  status: ('A' for Active; 'I' for Inactive)
REMARK    1  A    between atoms: C_1  and  C_2
REMARK    2  A    between atoms: C_6  and  C_7
REMARK    3  A    between atoms: C_9  and  N_23
REMARK    4  A    between atoms: C_12  and  N_13
REMARK    5  A    between atoms: C_14  and  C_16
REMARK    6  A    between atoms: C_19  and  C_21
REMARK    7  A    between atoms: N_26  and  C_29
REMARK                            x       y       z     vdW  Elec       q    Type
REMARK                         _______ _______ _______ _____ _____    ______ ____
ROOT
ATOM      1  C   UNL     1       0.189  -0.021   2.584  0.00  0.00    +0.012 A 
ATOM      2  C   UNL     1       0.090   1.352   2.808  0.00  0.00    +0.034 A 
ATOM      3  C   UNL     1       0.221   1.853   4.094  0.00  0.00    +0.030 A 
ATOM      4  C   UNL     1       0.450   0.989   5.159  0.00  0.00    +0.025 A 
ATOM      5  C   UNL     1       0.549  -0.372   4.944  0.00  0.00    +0.026 A 
ATOM      6  C   UNL     1       0.414  -0.886   3.663  0.00  0.00    +0.042 A 
ENDROOT
BRANCH   3   7
ATOM      7  N   UNL     1       0.122   3.229   4.321  0.00  0.00    -0.327 N 
ATOM      8  C   UNL     1       0.378   3.796   5.654  0.00  0.00    +0.120 C 
ATOM      9  C   UNL     1       1.387   4.939   5.511  0.00  0.00    +0.103 C 
ATOM     10  N   UNL     1       0.897   5.899   4.513  0.00  0.00    -0.302 NA
ATOM     11  C   UNL     1       0.793   5.280   3.185  0.00  0.00    +0.103 C 
ATOM     12  C   UNL     1      -0.235   4.150   3.231  0.00  0.00    +0.120 C 
ATOM     13  C   UNL     1       1.749   7.095   4.470  0.00  0.00    +0.105 C 
ENDBRANCH   3   7
BRANCH   1  19
ATOM     14  C   UNL     1      -1.999   0.707   0.554  0.00  0.00    +0.045 C 
ATOM     15  C   UNL     1      -0.896  -0.279   0.268  0.00  0.00    -0.036 A 
ATOM     16  C   UNL     1      -0.817  -0.909  -0.955  0.00  0.00    +0.011 A 
ATOM     17  C   UNL     1       0.189  -1.792  -1.181  0.00  0.00    +0.046 A 
ATOM     18  S   UNL     1       1.075  -1.754   0.369  0.00  0.00    -0.096 S 
ATOM     19  C   UNL     1       0.051  -0.561   1.216  0.00  0.00    +0.024 A 
ENDBRANCH   1  19
BRANCH   6  20
ATOM     20  N   UNL     1       0.508  -2.265   3.448  0.00  0.00    -0.278 N 
ATOM     21  C   UNL     1       1.331  -3.011   4.211  0.00  0.00    +0.284 C 
ATOM     22  O   UNL     1       1.925  -2.502   5.143  0.00  0.00    -0.266 OA
ATOM     23  H   UNL     1      -0.019  -2.684   2.750  0.00  0.00    +0.155 HD
BRANCH  21  24
ATOM     24  C   UNL     1       1.510  -4.440   3.918  0.00  0.00    +0.191 A 
ATOM     25  C   UNL     1       2.307  -5.304   4.616  0.00  0.00    +0.056 A 
ATOM     26  C   UNL     1       2.186  -6.557   4.005  0.00  0.00    +0.061 A 
ATOM     27  C   UNL     1       1.312  -6.403   2.951  0.00  0.00    +0.205 A 
ATOM     28  O   UNL     1       0.912  -5.119   2.920  0.00  0.00    -0.440 OA
BRANCH  27  29
ATOM     29  C   UNL     1       0.897  -7.434   2.047  0.00  0.00    +0.138 C 
ATOM     30  N   UNL     1       0.568  -8.251   1.331  0.00  0.00    -0.188 NA
ENDBRANCH  27  29
ENDBRANCH  21  24
ENDBRANCH   6  20
TORSDOF 5
