REMARK  Name = CHEMBL250571
REMARK  8 active torsions:
REMARK  status: ('A' for Active; 'I' for Inactive)
REMARK    1  A    between atoms: C_1  and  C_2
REMARK    2  A    between atoms: C_5  and  N_9
REMARK    3  A    between atoms: C_7  and  C_8
REMARK    4  A    between atoms: N_9  and  C_10
REMARK    5  A    between atoms: C_14  and  C_23
REMARK    6  A    between atoms: C_19  and  C_20
REMARK    7  A    between atoms: C_26  and  S_29
REMARK    8  A    between atoms: S_29  and  C_32
REMARK                            x       y       z     vdW  Elec       q    Type
REMARK                         _______ _______ _______ _____ _____    ______ ____
ROOT
ATOM      1  C   UNL     1       0.168  -4.846  -1.216  0.00  0.00    +0.054 A 
ATOM      2  C   UNL     1      -0.128  -6.227  -1.303  0.00  0.00    +0.020 A 
ATOM      3  C   UNL     1      -0.538  -6.950  -0.173  0.00  0.00    +0.012 A 
ATOM      4  C   UNL     1      -0.817  -8.277  -0.280  0.00  0.00    +0.009 A 
ATOM      5  C   UNL     1      -0.699  -8.935  -1.513  0.00  0.00    -0.016 A 
ATOM      6  C   UNL     1      -0.296  -8.247  -2.643  0.00  0.00    +0.034 A 
ATOM      7  C   UNL     1      -0.004  -6.878  -2.554  0.00  0.00    +0.049 A 
ATOM      8  N   UNL     1       0.387  -6.191  -3.638  0.00  0.00    -0.360 N 
ATOM      9  C   UNL     1       0.666  -4.914  -3.586  0.00  0.00    +0.098 A 
ATOM     10  C   UNL     1       0.567  -4.187  -2.389  0.00  0.00    +0.074 A 
ATOM     11  H   UNL     1       0.466  -6.655  -4.486  0.00  0.00    +0.165 HD
ENDROOT
BRANCH   5  12
ATOM     12  C   UNL     1      -1.008 -10.383  -1.606  0.00  0.00    -0.018 A 
ATOM     13  C   UNL     1      -0.888 -11.047  -2.825  0.00  0.00    +0.010 A 
ATOM     14  C   UNL     1      -1.176 -12.395  -2.906  0.00  0.00    +0.027 A 
ATOM     15  C   UNL     1      -1.584 -13.086  -1.779  0.00  0.00    +0.088 A 
ATOM     16  C   UNL     1      -1.706 -12.431  -0.566  0.00  0.00    +0.027 A 
ATOM     17  C   UNL     1      -1.415 -11.086  -0.473  0.00  0.00    +0.010 A 
BRANCH  15  18
ATOM     18  S   UNL     1      -1.951 -14.806  -1.889  0.00  0.00    -0.006 S 
ATOM     19  O   UNL     1      -2.873 -15.048  -0.836  0.00  0.00    -0.170 OA
ATOM     20  O   UNL     1      -2.329 -15.010  -3.244  0.00  0.00    -0.170 OA
ATOM     21  C   UNL     1      -0.378 -15.641  -1.546  0.00  0.00    +0.200 C 
ENDBRANCH  15  18
ENDBRANCH   5  12
BRANCH  10  22
ATOM     22  C   UNL     1       0.882  -2.749  -2.364  0.00  0.00    +0.245 C 
ATOM     23  O   UNL     1       0.885  -2.145  -1.308  0.00  0.00    -0.270 OA
ATOM     24  N   UNL     1       1.167  -2.102  -3.511  0.00  0.00    -0.325 N 
ATOM     25  H   UNL     1       1.165  -2.583  -4.353  0.00  0.00    +0.145 HD
ATOM     26  H   UNL     1       1.375  -1.154  -3.495  0.00  0.00    +0.145 HD
ENDBRANCH  10  22
BRANCH   1  27
ATOM     27  N   UNL     1       0.062  -4.168  -0.020  0.00  0.00    -0.313 N 
ATOM     28  H   UNL     1      -0.769  -3.727   0.215  0.00  0.00    +0.152 HD
BRANCH  27  33
ATOM     29  C   UNL     1       4.484  -3.964   3.524  0.00  0.00    +0.044 C 
ATOM     30  C   UNL     1       3.309  -4.018   2.582  0.00  0.00    -0.047 A 
ATOM     31  C   UNL     1       3.456  -4.582   1.328  0.00  0.00    +0.005 A 
ATOM     32  C   UNL     1       2.381  -4.633   0.462  0.00  0.00    +0.023 A 
ATOM     33  C   UNL     1       1.151  -4.118   0.853  0.00  0.00    +0.032 A 
ATOM     34  C   UNL     1       1.007  -3.553   2.114  0.00  0.00    +0.026 A 
ATOM     35  C   UNL     1       2.085  -3.509   2.976  0.00  0.00    -0.046 A 
ATOM     36  C   UNL     1       1.928  -2.902   4.346  0.00  0.00    +0.044 C 
ENDBRANCH  27  33
ENDBRANCH   1  27
TORSDOF 5
