REMARK  Name = CHEMBL253968
REMARK  11 active torsions:
REMARK  status: ('A' for Active; 'I' for Inactive)
REMARK    1  A    between atoms: C_3  and  N_9
REMARK    2  A    between atoms: C_10  and  C_12
REMARK    3  A    between atoms: C_12  and  N_13
REMARK    4  A    between atoms: C_15  and  N_18
REMARK    5  A    between atoms: C_23  and  O_29
REMARK    6  A    between atoms: O_29  and  C_30
REMARK    7  A    between atoms: C_30  and  C_31
REMARK    8  A    between atoms: C_31  and  C_32
REMARK    9  A    between atoms: C_32  and  N_33
REMARK   10  A    between atoms: C_37  and  C_39
REMARK   11  A    between atoms: C_39  and  O_40
REMARK                            x       y       z     vdW  Elec       q    Type
REMARK                         _______ _______ _______ _____ _____    ______ ____
ROOT
ATOM      1  N   UNL     1       3.844   8.951   1.609  0.00  0.00    -0.295 N 
ATOM      2  C   UNL     1       3.183  10.077   1.148  0.00  0.00    +0.153 A 
ATOM      3  C   UNL     1       3.555  11.364   1.598  0.00  0.00    +0.026 A 
ATOM      4  C   UNL     1       4.592  11.573   2.514  0.00  0.00    +0.015 A 
ATOM      5  C   UNL     1       4.900  12.841   2.905  0.00  0.00    +0.046 A 
ATOM      6  C   UNL     1       4.196  13.940   2.405  0.00  0.00    +0.121 A 
ATOM      7  C   UNL     1       3.170  13.768   1.501  0.00  0.00    +0.055 A 
ATOM      8  C   UNL     1       2.835  12.474   1.084  0.00  0.00    +0.009 A 
ATOM      9  C   UNL     1       1.801  12.216   0.164  0.00  0.00    +0.143 A 
ATOM     10  N   UNL     1       1.546  10.975  -0.179  0.00  0.00    -0.155 NA
ATOM     11  N   UNL     1       2.195   9.968   0.276  0.00  0.00    -0.133 NA
ATOM     12  H   UNL     1       4.567   9.041   2.249  0.00  0.00    +0.154 HD
ENDROOT
BRANCH   1  15
ATOM     13  N   UNL     1       3.375   5.507   0.848  0.00  0.00    -0.261 N 
ATOM     14  C   UNL     1       4.026   6.495   1.516  0.00  0.00    +0.132 A 
ATOM     15  C   UNL     1       3.466   7.676   1.149  0.00  0.00    +0.070 A 
ATOM     16  C   UNL     1       2.444   7.399   0.230  0.00  0.00    +0.157 A 
ATOM     17  N   UNL     1       2.394   6.104   0.046  0.00  0.00    -0.177 NA
BRANCH  13  18
ATOM     18  C   UNL     1       3.654   4.072   0.944  0.00  0.00    +0.239 C 
BRANCH  18  20
ATOM     19  N   UNL     1       2.407   1.998   1.455  0.00  0.00    -0.282 N 
ATOM     20  C   UNL     1       2.390   3.338   1.310  0.00  0.00    +0.239 C 
ATOM     21  O   UNL     1       1.358   3.953   1.475  0.00  0.00    -0.273 OA
ATOM     22  H   UNL     1       3.246   1.514   1.399  0.00  0.00    +0.155 HD
BRANCH  19  25
ATOM     23  C   UNL     1      -1.175   1.161   1.508  0.00  0.00    +0.005 A 
ATOM     24  C   UNL     1       0.002   1.848   1.279  0.00  0.00    +0.026 A 
ATOM     25  C   UNL     1       1.212   1.304   1.686  0.00  0.00    +0.072 A 
ATOM     26  C   UNL     1       1.237   0.069   2.324  0.00  0.00    +0.179 A 
ATOM     27  C   UNL     1       0.054  -0.614   2.550  0.00  0.00    +0.160 A 
ATOM     28  C   UNL     1      -1.151  -0.067   2.142  0.00  0.00    +0.041 A 
ATOM     29  F   UNL     1       0.075  -1.815   3.169  0.00  0.00    -0.202 F 
ATOM     30  F   UNL     1       2.413  -0.464   2.721  0.00  0.00    -0.201 F 
ENDBRANCH  19  25
ENDBRANCH  18  20
ENDBRANCH  13  18
ENDBRANCH   1  15
BRANCH   6  31
ATOM     31  O   UNL     1       4.526  15.192   2.815  0.00  0.00    -0.492 OA
BRANCH  31  32
ATOM     32  C   UNL     1       5.598  15.306   3.753  0.00  0.00    +0.227 C 
BRANCH  32  33
ATOM     33  C   UNL     1       5.823  16.780   4.093  0.00  0.00    +0.022 C 
BRANCH  33  34
ATOM     34  C   UNL     1       6.971  16.902   5.098  0.00  0.00    -0.075 C 
BRANCH  34  35
ATOM     35  N   UNL     1       7.187  18.318   5.425  0.00  0.00    +0.383 N 
ATOM     36  C   UNL     1       7.620  19.048   4.215  0.00  0.00    -0.078 C 
ATOM     37  C   UNL     1       8.641  20.094   4.727  0.00  0.00    -0.020 C 
ATOM     38  C   UNL     1       9.370  19.300   5.843  0.00  0.00    -0.015 C 
ATOM     39  C   UNL     1       8.243  18.435   6.447  0.00  0.00    -0.043 C 
ATOM     40  H   UNL     1       6.330  18.721   5.774  0.00  0.00    -0.081 HD
BRANCH  39  41
ATOM     41  C   UNL     1       8.784  17.048   6.799  0.00  0.00    +0.140 C 
BRANCH  41  42
ATOM     42  O   UNL     1       9.847  17.177   7.745  0.00  0.00    -0.397 OA
ATOM     43  H   UNL     1      10.238  16.334   8.014  0.00  0.00    +0.209 HD
ENDBRANCH  41  42
ENDBRANCH  39  41
ENDBRANCH  34  35
ENDBRANCH  33  34
ENDBRANCH  32  33
ENDBRANCH  31  32
ENDBRANCH   6  31
TORSDOF 11
