REMARK  Name = CHEMBL257665
REMARK  5 active torsions:
REMARK  status: ('A' for Active; 'I' for Inactive)
REMARK    1  A    between atoms: C_1  and  N_2
REMARK    2  A    between atoms: N_5  and  C_8
REMARK    3  A    between atoms: C_11  and  N_14
REMARK    4  A    between atoms: C_21  and  C_33
REMARK    5  A    between atoms: N_23  and  C_26
REMARK                            x       y       z     vdW  Elec       q    Type
REMARK                         _______ _______ _______ _____ _____    ______ ____
ROOT
ATOM      1  N   UNL     1      -1.999  -6.970   3.670  0.00  0.00    -0.284 N 
ATOM      2  C   UNL     1      -1.293  -7.468   4.747  0.00  0.00    +0.221 A 
ATOM      3  N   UNL     1      -0.141  -6.894   5.076  0.00  0.00    -0.222 NA
ATOM      4  C   UNL     1       0.572  -7.334   6.098  0.00  0.00    +0.129 A 
ATOM      5  C   UNL     1       0.087  -8.420   6.829  0.00  0.00    +0.083 A 
ATOM      6  C   UNL     1       0.815  -8.973   7.980  0.00  0.00    +0.204 A 
ATOM      7  O   UNL     1       1.878  -8.503   8.347  0.00  0.00    -0.286 OA
ATOM      8  C   UNL     1       0.200 -10.120   8.671  0.00  0.00    +0.100 A 
ATOM      9  C   UNL     1      -1.004 -10.607   8.211  0.00  0.00    +0.104 A 
ATOM     10  N   UNL     1      -1.637 -10.073   7.155  0.00  0.00    -0.328 N 
ATOM     11  C   UNL     1      -1.139  -9.006   6.454  0.00  0.00    +0.150 A 
ATOM     12  N   UNL     1      -1.792  -8.496   5.415  0.00  0.00    -0.196 NA
ATOM     13  H   UNL     1      -2.881  -7.319   3.465  0.00  0.00    +0.155 HD
ENDROOT
BRANCH  10  14
ATOM     14  C   UNL     1      -2.914 -10.656   6.734  0.00  0.00    +0.092 C 
ATOM     15  C   UNL     1      -2.749 -11.404   5.391  0.00  0.00    +0.029 C 
ATOM     16  C   UNL     1      -3.120 -12.883   5.716  0.00  0.00    -0.009 C 
ATOM     17  C   UNL     1      -4.660 -12.853   5.964  0.00  0.00    +0.004 C 
ATOM     18  C   UNL     1      -4.825 -12.105   7.307  0.00  0.00    +0.006 C 
ATOM     19  C   UNL     1      -3.370 -11.753   7.743  0.00  0.00    +0.012 C 
ATOM     20  C   UNL     1      -2.591 -12.998   7.189  0.00  0.00    +0.009 C 
ENDBRANCH  10  14
BRANCH   1  24
ATOM     21  C   UNL     1      -0.343  -3.965   1.299  0.00  0.00    +0.030 A 
ATOM     22  C   UNL     1       0.474  -4.939   1.859  0.00  0.00    +0.025 A 
ATOM     23  C   UNL     1      -0.074  -5.933   2.644  0.00  0.00    +0.025 A 
ATOM     24  C   UNL     1      -1.443  -5.961   2.874  0.00  0.00    +0.034 A 
ATOM     25  C   UNL     1      -2.261  -4.988   2.314  0.00  0.00    +0.025 A 
ATOM     26  C   UNL     1      -1.712  -3.990   1.534  0.00  0.00    +0.025 A 
BRANCH  21  31
ATOM     27  C   UNL     1       1.612  -1.466  -3.162  0.00  0.00    +0.105 C 
ATOM     28  N   UNL     1       1.208  -1.683  -1.766  0.00  0.00    -0.302 NA
ATOM     29  C   UNL     1       1.990  -2.766  -1.154  0.00  0.00    +0.103 C 
ATOM     30  C   UNL     1       1.669  -2.839   0.343  0.00  0.00    +0.120 C 
ATOM     31  N   UNL     1       0.212  -2.957   0.503  0.00  0.00    -0.327 N 
ATOM     32  C   UNL     1      -0.645  -1.988  -0.195  0.00  0.00    +0.120 C 
ATOM     33  C   UNL     1      -0.234  -1.947  -1.670  0.00  0.00    +0.103 C 
ENDBRANCH  21  31
ENDBRANCH   1  24
BRANCH   8  34
ATOM     34  C   UNL     1       0.862 -10.735   9.833  0.00  0.00    +0.247 C 
ATOM     35  O   UNL     1       0.300 -11.615  10.458  0.00  0.00    -0.270 OA
ATOM     36  N   UNL     1       2.090 -10.324  10.205  0.00  0.00    -0.325 N 
ATOM     37  H   UNL     1       2.508  -9.574   9.754  0.00  0.00    +0.145 HD
ATOM     38  H   UNL     1       2.556 -10.777  10.925  0.00  0.00    +0.145 HD
ENDBRANCH   8  34
TORSDOF 4
