REMARK  Name = CHEMBL253026
REMARK  6 active torsions:
REMARK  status: ('A' for Active; 'I' for Inactive)
REMARK    1  A    between atoms: C_1  and  C_2
REMARK    2  A    between atoms: N_5  and  C_7
REMARK    3  A    between atoms: C_10  and  N_19
REMARK    4  A    between atoms: C_11  and  N_13
REMARK    5  A    between atoms: C_20  and  C_22
REMARK    6  A    between atoms: C_25  and  C_27
REMARK                            x       y       z     vdW  Elec       q    Type
REMARK                         _______ _______ _______ _____ _____    ______ ____
ROOT
ATOM      1  C   UNL     1       0.026  -3.221   1.486  0.00  0.00    +0.067 A 
ATOM      2  C   UNL     1       0.030  -3.098   2.869  0.00  0.00    +0.030 A 
ATOM      3  C   UNL     1       0.058  -4.226   3.666  0.00  0.00    +0.027 A 
ATOM      4  C   UNL     1       0.082  -5.486   3.086  0.00  0.00    +0.055 A 
ATOM      5  C   UNL     1       0.079  -5.613   1.697  0.00  0.00    +0.053 A 
ATOM      6  C   UNL     1       0.044  -4.479   0.900  0.00  0.00    +0.052 A 
ENDROOT
BRANCH   1  11
ATOM      7  C   UNL     1      -0.074   1.519   0.047  0.00  0.00    +0.047 C 
ATOM      8  C   UNL     1      -0.047   0.012   0.032  0.00  0.00    -0.013 A 
ATOM      9  C   UNL     1      -0.042  -0.799  -1.107  0.00  0.00    +0.138 A 
ATOM     10  N   UNL     1      -0.015  -2.049  -0.720  0.00  0.00    -0.175 NA
ATOM     11  N   UNL     1      -0.002  -2.073   0.681  0.00  0.00    -0.240 N 
ATOM     12  C   UNL     1      -0.017  -0.794   1.118  0.00  0.00    +0.117 A 
ENDBRANCH   1  11
BRANCH   5  13
ATOM     13  N   UNL     1       0.103  -6.882   1.109  0.00  0.00    -0.328 N 
ATOM     14  C   UNL     1      -1.148  -7.586   0.795  0.00  0.00    +0.105 C 
ATOM     15  C   UNL     1      -1.126  -7.995  -0.681  0.00  0.00    +0.019 C 
ATOM     16  C   UNL     1       0.140  -8.807  -0.963  0.00  0.00    +0.003 C 
ATOM     17  C   UNL     1       1.374  -7.946  -0.682  0.00  0.00    +0.019 C 
ATOM     18  C   UNL     1       1.380  -7.534   0.789  0.00  0.00    +0.105 C 
ENDBRANCH   5  13
BRANCH   4  19
ATOM     19  N   UNL     1       0.111  -6.630   3.895  0.00  0.00    -0.277 N 
ATOM     20  C   UNL     1       0.781  -6.611   5.064  0.00  0.00    +0.284 C 
ATOM     21  O   UNL     1       1.292  -5.579   5.457  0.00  0.00    -0.266 OA
ATOM     22  H   UNL     1      -0.351  -7.435   3.613  0.00  0.00    +0.155 HD
BRANCH  20  23
ATOM     23  C   UNL     1       0.895  -7.838   5.865  0.00  0.00    +0.191 A 
ATOM     24  C   UNL     1       1.539  -7.951   7.065  0.00  0.00    +0.056 A 
ATOM     25  C   UNL     1       1.406  -9.281   7.478  0.00  0.00    +0.061 A 
ATOM     26  C   UNL     1       0.680  -9.930   6.504  0.00  0.00    +0.205 A 
ATOM     27  O   UNL     1       0.376  -9.039   5.543  0.00  0.00    -0.440 OA
BRANCH  26  28
ATOM     28  C   UNL     1       0.307 -11.312   6.516  0.00  0.00    +0.138 C 
ATOM     29  N   UNL     1       0.011 -12.409   6.525  0.00  0.00    -0.188 NA
ENDBRANCH  26  28
ENDBRANCH  20  23
ENDBRANCH   4  19
TORSDOF 5
