REMARK  Name = CHEMBL270463
REMARK  3 active torsions:
REMARK  status: ('A' for Active; 'I' for Inactive)
REMARK    1  A    between atoms: C_1  and  C_2
REMARK    2  A    between atoms: C_4  and  C_7
REMARK    3  A    between atoms: C_8  and  C_20
REMARK                            x       y       z     vdW  Elec       q    Type
REMARK                         _______ _______ _______ _____ _____    ______ ____
ROOT
ATOM      1  C   UNL     1      -0.029  -3.455  -1.428  0.00  0.00    +0.092 A 
ATOM      2  C   UNL     1       1.180  -4.110  -1.686  0.00  0.00    +0.003 A 
ATOM      3  C   UNL     1       1.208  -5.126  -2.749  0.00  0.00    +0.008 A 
ATOM      4  C   UNL     1       2.390  -5.810  -3.048  0.00  0.00    +0.030 A 
ATOM      5  C   UNL     1       2.397  -6.759  -4.046  0.00  0.00    +0.042 A 
ATOM      6  C   UNL     1       1.236  -7.037  -4.756  0.00  0.00    +0.022 A 
ATOM      7  C   UNL     1       0.064  -6.371  -4.474  0.00  0.00    +0.028 A 
ATOM      8  C   UNL     1       0.034  -5.408  -3.468  0.00  0.00    +0.050 A 
ATOM      9  N   UNL     1      -1.141  -4.740  -3.183  0.00  0.00    -0.321 N 
ATOM     10  H   UNL     1      -1.939  -4.951  -3.692  0.00  0.00    +0.169 HD
ATOM     11  C   UNL     1      -1.210  -3.809  -2.216  0.00  0.00    +0.261 A 
ATOM     12  O   UNL     1      -2.269  -3.249  -1.996  0.00  0.00    -0.267 OA
ATOM     13 CL   UNL     1       3.863  -7.610  -4.420  0.00  0.00    -0.084 Cl
ENDROOT
BRANCH   1  17
ATOM     14  C   UNL     1      -0.578   0.989   0.949  0.00  0.00    +0.069 C 
ATOM     15  C   UNL     1      -0.353  -0.478   0.691  0.00  0.00    +0.081 A 
ATOM     16  C   UNL     1      -0.352  -1.099  -0.564  0.00  0.00    +0.076 A 
ATOM     17  C   UNL     1      -0.114  -2.430  -0.376  0.00  0.00    +0.173 A 
ATOM     18  O   UNL     1       0.030  -2.635   0.948  0.00  0.00    -0.354 OA
ATOM     19  N   UNL     1      -0.120  -1.387   1.599  0.00  0.00    -0.083 NA
ENDBRANCH   1  17
BRANCH   2  20
ATOM     20  C   UNL     1       2.390  -3.790  -0.916  0.00  0.00    -0.043 C 
ATOM     21  C   UNL     1       2.915  -2.590  -1.054  0.00  0.00    -0.023 C 
ATOM     22  C   UNL     1       4.152  -2.133  -0.337  0.00  0.00    +0.027 C 
ATOM     23  C   UNL     1       4.446  -3.056   0.847  0.00  0.00    +0.004 C 
ATOM     24  C   UNL     1       4.401  -4.508   0.355  0.00  0.00    +0.005 C 
ATOM     25  C   UNL     1       2.953  -4.848  -0.013  0.00  0.00    +0.035 C 
ENDBRANCH   2  20
TORSDOF 2
