REMARK  Name = CHEMBL265433
REMARK  7 active torsions:
REMARK  status: ('A' for Active; 'I' for Inactive)
REMARK    1  A    between atoms: C_1  and  C_2
REMARK    2  A    between atoms: C_3  and  C_7
REMARK    3  A    between atoms: C_9  and  N_23
REMARK    4  A    between atoms: C_12  and  N_13
REMARK    5  A    between atoms: C_14  and  C_16
REMARK    6  A    between atoms: C_19  and  C_21
REMARK    7  A    between atoms: N_26  and  C_29
REMARK                            x       y       z     vdW  Elec       q    Type
REMARK                         _______ _______ _______ _____ _____    ______ ____
ROOT
ATOM      1  C   UNL     1      -2.398  -0.486  -0.028  0.00  0.00    +0.006 A 
ATOM      2  C   UNL     1      -3.201  -0.802   1.064  0.00  0.00    +0.033 A 
ATOM      3  C   UNL     1      -4.519  -0.374   1.099  0.00  0.00    +0.030 A 
ATOM      4  C   UNL     1      -5.039   0.369   0.046  0.00  0.00    +0.025 A 
ATOM      5  C   UNL     1      -4.247   0.685  -1.040  0.00  0.00    +0.026 A 
ATOM      6  C   UNL     1      -2.925   0.268  -1.083  0.00  0.00    +0.042 A 
ENDROOT
BRANCH   3   7
ATOM      7  N   UNL     1      -5.327  -0.691   2.196  0.00  0.00    -0.333 N 
ATOM      8  C   UNL     1      -4.837  -1.572   3.267  0.00  0.00    +0.086 C 
ATOM      9  C   UNL     1      -5.086  -0.884   4.614  0.00  0.00    -0.060 C 
ATOM     10  N   UNL     1      -6.506  -0.527   4.725  0.00  0.00    +0.380 N 
ATOM     11  C   UNL     1      -6.853   0.468   3.703  0.00  0.00    -0.060 C 
ATOM     12  C   UNL     1      -6.690  -0.148   2.314  0.00  0.00    +0.086 C 
ATOM     13  C   UNL     1      -6.766   0.032   6.058  0.00  0.00    -0.096 C 
ATOM     14  H   UNL     1      -7.071  -1.353   4.593  0.00  0.00    -0.082 HD
ENDBRANCH   3   7
BRANCH   1  17
ATOM     15  C   UNL     1      -0.021   1.467   0.028  0.00  0.00    +0.052 C 
ATOM     16  C   UNL     1       0.040  -0.037  -0.043  0.00  0.00    -0.006 A 
ATOM     17  C   UNL     1      -0.986  -0.940  -0.070  0.00  0.00    -0.006 A 
ATOM     18  C   UNL     1      -0.677  -2.295  -0.139  0.00  0.00    +0.016 A 
ATOM     19  C   UNL     1       0.622  -2.671  -0.175  0.00  0.00    +0.046 A 
ATOM     20  S   UNL     1       1.471  -1.102  -0.122  0.00  0.00    -0.101 S 
ENDBRANCH   1  17
BRANCH   6  21
ATOM     21  N   UNL     1      -2.122   0.594  -2.181  0.00  0.00    -0.278 N 
ATOM     22  C   UNL     1      -2.297   1.768  -2.820  0.00  0.00    +0.284 C 
ATOM     23  O   UNL     1      -3.080   2.588  -2.380  0.00  0.00    -0.266 OA
ATOM     24  H   UNL     1      -1.439  -0.025  -2.483  0.00  0.00    +0.155 HD
BRANCH  22  25
ATOM     25  C   UNL     1      -1.542   2.057  -4.047  0.00  0.00    +0.191 A 
ATOM     26  C   UNL     1      -1.624   3.206  -4.782  0.00  0.00    +0.056 A 
ATOM     27  C   UNL     1      -0.744   3.066  -5.861  0.00  0.00    +0.061 A 
ATOM     28  C   UNL     1      -0.157   1.826  -5.737  0.00  0.00    +0.205 A 
ATOM     29  O   UNL     1      -0.649   1.236  -4.632  0.00  0.00    -0.440 OA
BRANCH  28  30
ATOM     30  C   UNL     1       0.814   1.264  -6.627  0.00  0.00    +0.138 C 
ATOM     31  N   UNL     1       1.584   0.819  -7.333  0.00  0.00    -0.188 NA
ENDBRANCH  28  30
ENDBRANCH  22  25
ENDBRANCH   6  21
TORSDOF 5
