REMARK  Name = CHEMBL136011
REMARK  3 active torsions:
REMARK  status: ('A' for Active; 'I' for Inactive)
REMARK    1  A    between atoms: C_1  and  C_2
REMARK    2  A    between atoms: C_6  and  N_8
REMARK    3  A    between atoms: N_8  and  C_9
REMARK                            x       y       z     vdW  Elec       q    Type
REMARK                         _______ _______ _______ _____ _____    ______ ____
ROOT
ATOM      1  N   UNL     1       0.050  -2.797   2.391  0.00  0.00    -0.288 N 
ATOM      2  C   UNL     1       0.156  -2.083   3.666  0.00  0.00    +0.137 C 
ATOM      3  C   UNL     1      -0.024  -4.177   2.376  0.00  0.00    +0.139 A 
ATOM      4  C   UNL     1       1.145  -4.963   2.409  0.00  0.00    +0.079 A 
ATOM      5  C   UNL     1       2.528  -4.683   2.458  0.00  0.00    +0.147 A 
ATOM      6  N   UNL     1       3.176  -5.813   2.470  0.00  0.00    -0.180 NA
ATOM      7  N   UNL     1       2.269  -6.879   2.430  0.00  0.00    -0.260 N 
ATOM      8  C   UNL     1       1.007  -6.364   2.392  0.00  0.00    +0.161 A 
ATOM      9  N   UNL     1      -0.216  -6.889   2.345  0.00  0.00    -0.216 NA
ATOM     10  C   UNL     1      -1.278  -6.114   2.316  0.00  0.00    +0.225 A 
ATOM     11  N   UNL     1      -1.199  -4.795   2.336  0.00  0.00    -0.220 NA
ATOM     12  H   UNL     1       2.499  -7.821   2.429  0.00  0.00    +0.191 HD
ENDROOT
BRANCH   1  18
ATOM     13  C   UNL     1      -0.103   1.515   0.036  0.00  0.00    +0.044 C 
ATOM     14  C   UNL     1      -0.051   0.009   0.019  0.00  0.00    -0.049 A 
ATOM     15  C   UNL     1      -0.030  -0.668  -1.187  0.00  0.00    +0.003 A 
ATOM     16  C   UNL     1       0.017  -2.050  -1.208  0.00  0.00    +0.002 A 
ATOM     17  C   UNL     1       0.044  -2.759  -0.023  0.00  0.00    +0.023 A 
ATOM     18  C   UNL     1       0.024  -2.082   1.190  0.00  0.00    +0.035 A 
ATOM     19  C   UNL     1      -0.018  -0.694   1.207  0.00  0.00    +0.026 A 
ENDBRANCH   1  18
TORSDOF 1
