REMARK  Name = CHEMBL272117
REMARK  5 active torsions:
REMARK  status: ('A' for Active; 'I' for Inactive)
REMARK    1  A    between atoms: C_1  and  N_2
REMARK    2  A    between atoms: N_5  and  C_8
REMARK    3  A    between atoms: C_11  and  N_14
REMARK    4  A    between atoms: C_21  and  C_31
REMARK    5  A    between atoms: N_23  and  C_26
REMARK                            x       y       z     vdW  Elec       q    Type
REMARK                         _______ _______ _______ _____ _____    ______ ____
ROOT
ATOM      1  N   UNL     1      -2.318  -6.883   3.885  0.00  0.00    -0.284 N 
ATOM      2  C   UNL     1      -1.533  -7.396   4.899  0.00  0.00    +0.221 A 
ATOM      3  N   UNL     1      -0.389  -6.786   5.191  0.00  0.00    -0.222 NA
ATOM      4  C   UNL     1       0.398  -7.237   6.152  0.00  0.00    +0.129 A 
ATOM      5  C   UNL     1      -0.000  -8.374   6.858  0.00  0.00    +0.083 A 
ATOM      6  C   UNL     1       0.813  -8.943   7.942  0.00  0.00    +0.204 A 
ATOM      7  O   UNL     1       1.875  -8.443   8.272  0.00  0.00    -0.286 OA
ATOM      8  C   UNL     1       0.287 -10.145   8.614  0.00  0.00    +0.100 A 
ATOM      9  C   UNL     1      -0.920 -10.664   8.198  0.00  0.00    +0.104 A 
ATOM     10  N   UNL     1      -1.633 -10.114   7.202  0.00  0.00    -0.328 N 
ATOM     11  C   UNL     1      -1.220  -8.997   6.524  0.00  0.00    +0.150 A 
ATOM     12  N   UNL     1      -1.951  -8.472   5.546  0.00  0.00    -0.196 NA
ATOM     13  H   UNL     1      -3.196  -7.260   3.715  0.00  0.00    +0.155 HD
ENDROOT
BRANCH   1  17
ATOM     14  C   UNL     1      -0.919  -3.719   1.558  0.00  0.00    +0.030 A 
ATOM     15  C   UNL     1      -0.034  -4.681   2.026  0.00  0.00    +0.025 A 
ATOM     16  C   UNL     1      -0.497  -5.729   2.797  0.00  0.00    +0.025 A 
ATOM     17  C   UNL     1      -1.848  -5.820   3.104  0.00  0.00    +0.034 A 
ATOM     18  C   UNL     1      -2.733  -4.857   2.637  0.00  0.00    +0.025 A 
ATOM     19  C   UNL     1      -2.269  -3.807   1.871  0.00  0.00    +0.025 A 
BRANCH  14  24
ATOM     20  C   UNL     1       0.668  -0.957  -2.894  0.00  0.00    +0.105 C 
ATOM     21  N   UNL     1       0.359  -1.249  -1.488  0.00  0.00    -0.302 NA
ATOM     22  C   UNL     1       1.215  -2.326  -0.973  0.00  0.00    +0.103 C 
ATOM     23  C   UNL     1       0.991  -2.476   0.535  0.00  0.00    +0.120 C 
ATOM     24  N   UNL     1      -0.449  -2.656   0.777  0.00  0.00    -0.327 N 
ATOM     25  C   UNL     1      -1.382  -1.691   0.177  0.00  0.00    +0.120 C 
ATOM     26  C   UNL     1      -1.064  -1.572  -1.317  0.00  0.00    +0.103 C 
ENDBRANCH  14  24
ENDBRANCH   1  17
BRANCH  10  27
ATOM     27  C   UNL     1      -2.906 -10.733   6.825  0.00  0.00    +0.089 C 
ATOM     28  C   UNL     1      -3.844 -10.800   8.049  0.00  0.00    +0.025 C 
ATOM     29  C   UNL     1      -4.583 -12.152   7.887  0.00  0.00    +0.002 C 
ATOM     30  C   UNL     1      -3.476 -13.083   7.333  0.00  0.00    +0.002 C 
ATOM     31  C   UNL     1      -2.672 -12.184   6.370  0.00  0.00    +0.025 C 
ENDBRANCH  10  27
BRANCH   8  32
ATOM     32  C   UNL     1       1.037 -10.779   9.709  0.00  0.00    +0.247 C 
ATOM     33  O   UNL     1       0.549 -11.711  10.320  0.00  0.00    -0.270 OA
ATOM     34  N   UNL     1       2.265 -10.328  10.034  0.00  0.00    -0.325 N 
ATOM     35  H   UNL     1       2.624  -9.540   9.597  0.00  0.00    +0.145 HD
ATOM     36  H   UNL     1       2.789 -10.791  10.706  0.00  0.00    +0.145 HD
ENDBRANCH   8  32
TORSDOF 4
