REMARK  Name = CHEMBL257665
REMARK  5 active torsions:
REMARK  status: ('A' for Active; 'I' for Inactive)
REMARK    1  A    between atoms: C_1  and  N_2
REMARK    2  A    between atoms: N_5  and  C_8
REMARK    3  A    between atoms: C_11  and  N_14
REMARK    4  A    between atoms: C_21  and  C_33
REMARK    5  A    between atoms: N_23  and  C_26
REMARK                            x       y       z     vdW  Elec       q    Type
REMARK                         _______ _______ _______ _____ _____    ______ ____
ROOT
ATOM      1  N   UNL     1      -2.039  -6.779   4.025  0.00  0.00    -0.284 N 
ATOM      2  C   UNL     1      -1.307  -7.253   5.096  0.00  0.00    +0.221 A 
ATOM      3  N   UNL     1      -0.133  -6.693   5.366  0.00  0.00    -0.222 NA
ATOM      4  C   UNL     1       0.605  -7.111   6.379  0.00  0.00    +0.129 A 
ATOM      5  C   UNL     1       0.122  -8.159   7.165  0.00  0.00    +0.083 A 
ATOM      6  C   UNL     1       0.876  -8.686   8.311  0.00  0.00    +0.204 A 
ATOM      7  O   UNL     1       1.961  -8.226   8.625  0.00  0.00    -0.286 OA
ATOM      8  C   UNL     1       0.262  -9.794   9.064  0.00  0.00    +0.100 A 
ATOM      9  C   UNL     1      -0.966 -10.271   8.662  0.00  0.00    +0.104 A 
ATOM     10  N   UNL     1      -1.624  -9.762   7.608  0.00  0.00    -0.328 N 
ATOM     11  C   UNL     1      -1.127  -8.732   6.852  0.00  0.00    +0.150 A 
ATOM     12  N   UNL     1      -1.805  -8.246   5.818  0.00  0.00    -0.196 NA
ATOM     13  H   UNL     1      -2.933  -7.116   3.862  0.00  0.00    +0.155 HD
ENDROOT
BRANCH  10  14
ATOM     14  C   UNL     1      -2.926 -10.331   7.251  0.00  0.00    +0.092 C 
ATOM     15  C   UNL     1      -2.821 -11.130   5.932  0.00  0.00    +0.029 C 
ATOM     16  C   UNL     1      -3.212 -12.588   6.322  0.00  0.00    -0.009 C 
ATOM     17  C   UNL     1      -4.741 -12.517   6.620  0.00  0.00    +0.004 C 
ATOM     18  C   UNL     1      -4.845 -11.717   7.939  0.00  0.00    +0.006 C 
ATOM     19  C   UNL     1      -3.370 -11.382   8.314  0.00  0.00    +0.012 C 
ATOM     20  C   UNL     1      -2.636 -12.662   7.781  0.00  0.00    +0.009 C 
ENDBRANCH  10  14
BRANCH   1  24
ATOM     21  C   UNL     1      -0.402  -3.898   1.493  0.00  0.00    +0.030 A 
ATOM     22  C   UNL     1       0.414  -4.868   2.060  0.00  0.00    +0.025 A 
ATOM     23  C   UNL     1      -0.128  -5.822   2.899  0.00  0.00    +0.025 A 
ATOM     24  C   UNL     1      -1.489  -5.811   3.175  0.00  0.00    +0.034 A 
ATOM     25  C   UNL     1      -2.305  -4.842   2.607  0.00  0.00    +0.025 A 
ATOM     26  C   UNL     1      -1.762  -3.885   1.773  0.00  0.00    +0.025 A 
BRANCH  21  31
ATOM     27  C   UNL     1       1.444  -1.621  -3.113  0.00  0.00    -0.096 C 
ATOM     28  N   UNL     1       1.103  -1.721  -1.688  0.00  0.00    +0.380 N 
ATOM     29  C   UNL     1       1.868  -2.818  -1.079  0.00  0.00    -0.060 C 
ATOM     30  C   UNL     1       1.600  -2.850   0.429  0.00  0.00    +0.086 C 
ATOM     31  N   UNL     1       0.147  -2.932   0.643  0.00  0.00    -0.333 N 
ATOM     32  C   UNL     1      -0.713  -1.968  -0.062  0.00  0.00    +0.086 C 
ATOM     33  C   UNL     1      -0.336  -1.977  -1.547  0.00  0.00    -0.060 C 
ATOM     34  H   UNL     1       1.337  -0.855  -1.225  0.00  0.00    -0.082 HD
ENDBRANCH  21  31
ENDBRANCH   1  24
BRANCH   8  35
ATOM     35  C   UNL     1       0.949 -10.381  10.225  0.00  0.00    +0.247 C 
ATOM     36  O   UNL     1       0.391 -11.225  10.900  0.00  0.00    -0.270 OA
ATOM     37  N   UNL     1       2.198  -9.983  10.542  0.00  0.00    -0.325 N 
ATOM     38  H   UNL     1       2.615  -9.259  10.049  0.00  0.00    +0.145 HD
ATOM     39  H   UNL     1       2.678 -10.421  11.262  0.00  0.00    +0.145 HD
ENDBRANCH   8  35
TORSDOF 4
