REMARK  Name = CHEMBL1171605
REMARK  7 active torsions:
REMARK  status: ('A' for Active; 'I' for Inactive)
REMARK    1  A    between atoms: C_1  and  N_2
REMARK    2  A    between atoms: C_4  and  C_10
REMARK    3  A    between atoms: N_6  and  C_9
REMARK    4  A    between atoms: C_13  and  N_23
REMARK    5  A    between atoms: C_14  and  C_16
REMARK    6  A    between atoms: C_24  and  C_26
REMARK    7  A    between atoms: C_30  and  C_32
REMARK                            x       y       z     vdW  Elec       q    Type
REMARK                         _______ _______ _______ _____ _____    ______ ____
ROOT
ATOM      1  C   UNL     1      -2.311  -2.924   0.586  0.00  0.00    -0.041 A 
ATOM      2  C   UNL     1      -2.826  -3.264  -0.653  0.00  0.00    +0.006 A 
ATOM      3  C   UNL     1      -3.990  -4.002  -0.747  0.00  0.00    +0.024 A 
ATOM      4  C   UNL     1      -4.651  -4.408   0.403  0.00  0.00    +0.041 A 
ATOM      5  C   UNL     1      -4.132  -4.065   1.659  0.00  0.00    -0.001 A 
ATOM      6  C   UNL     1      -2.953  -3.324   1.740  0.00  0.00    +0.014 A 
ENDROOT
BRANCH   1  10
ATOM      7  C   UNL     1       0.022   1.424  -0.024  0.00  0.00    +0.133 C 
ATOM      8  N   UNL     1       0.032  -0.041  -0.030  0.00  0.00    -0.288 N 
ATOM      9  C   UNL     1      -1.238  -0.767  -0.021  0.00  0.00    +0.118 C 
ATOM     10  C   UNL     1      -1.041  -2.118   0.675  0.00  0.00    +0.054 C 
ATOM     11  C   UNL     1       0.095  -2.868  -0.029  0.00  0.00    +0.118 C 
ATOM     12  N   UNL     1       1.293  -2.027  -0.037  0.00  0.00    -0.288 N 
ATOM     13  C   UNL     1       1.206  -0.689  -0.048  0.00  0.00    +0.304 C 
ATOM     14  O   UNL     1       2.233  -0.037  -0.070  0.00  0.00    -0.252 OA
ATOM     15  C   UNL     1       2.614  -2.661  -0.039  0.00  0.00    +0.133 C 
ENDBRANCH   1  10
BRANCH   5  16
ATOM     16  C   UNL     1      -4.826  -4.491   2.891  0.00  0.00    -0.042 C 
ATOM     17  C   UNL     1      -5.927  -3.856   3.218  0.00  0.00    -0.023 C 
ATOM     18  C   UNL     1      -6.785  -4.238   4.389  0.00  0.00    +0.027 C 
ATOM     19  C   UNL     1      -5.934  -4.358   5.660  0.00  0.00    +0.004 C 
ATOM     20  C   UNL     1      -5.497  -5.815   5.796  0.00  0.00    +0.001 C 
ATOM     21  C   UNL     1      -5.300  -6.423   4.404  0.00  0.00    +0.005 C 
ATOM     22  C   UNL     1      -4.223  -5.622   3.672  0.00  0.00    +0.035 C 
ENDBRANCH   5  16
BRANCH   4  23
ATOM     23  N   UNL     1      -5.827  -5.153   0.310  0.00  0.00    -0.278 N 
ATOM     24  C   UNL     1      -6.692  -4.924  -0.698  0.00  0.00    +0.284 C 
ATOM     25  O   UNL     1      -6.410  -4.127  -1.571  0.00  0.00    -0.267 OA
ATOM     26  H   UNL     1      -6.022  -5.835   0.971  0.00  0.00    +0.155 HD
BRANCH  24  27
ATOM     27  C   UNL     1      -7.980  -5.641  -0.741  0.00  0.00    +0.195 A 
ATOM     28  N   UNL     1      -8.936  -5.501  -1.710  0.00  0.00    -0.340 N 
ATOM     29  H   UNL     1      -8.888  -4.918  -2.483  0.00  0.00    +0.167 HD
ATOM     30  C   UNL     1      -9.959  -6.323  -1.393  0.00  0.00    +0.123 A 
ATOM     31  C   UNL     1      -9.609  -6.962  -0.219  0.00  0.00    +0.158 A 
ATOM     32  N   UNL     1      -8.394  -6.521   0.140  0.00  0.00    -0.213 NA
BRANCH  31  33
ATOM     33  C   UNL     1     -10.400  -7.927   0.484  0.00  0.00    +0.121 C 
ATOM     34  N   UNL     1     -11.027  -8.692   1.042  0.00  0.00    -0.189 NA
ENDBRANCH  31  33
ENDBRANCH  24  27
ENDBRANCH   4  23
TORSDOF 5
