REMARK  Name = CHEMBL1087661
REMARK  13 active torsions:
REMARK  status: ('A' for Active; 'I' for Inactive)
REMARK    1  A    between atoms: C_1  and  N_2
REMARK    2  A    between atoms: C_4  and  C_7
REMARK    3  A    between atoms: C_10  and  N_33
REMARK    4  A    between atoms: C_11  and  O_13
REMARK    5  A    between atoms: O_13  and  C_14
REMARK    6  A    between atoms: C_14  and  C_15
REMARK    7  A    between atoms: C_18  and  O_23
REMARK    8  A    between atoms: C_19  and  O_21
REMARK    9  A    between atoms: O_21  and  C_22
REMARK   10  A    between atoms: O_23  and  C_24
REMARK   11  A    between atoms: C_24  and  C_25
REMARK   12  A    between atoms: C_28  and  O_31
REMARK   13  A    between atoms: O_31  and  C_32
REMARK                            x       y       z     vdW  Elec       q    Type
REMARK                         _______ _______ _______ _____ _____    ______ ____
ROOT
ATOM      1  C   UNL     1       0.025  -2.811  -7.015  0.00  0.00    -0.007 A 
ATOM      2  C   UNL     1       1.222  -2.826  -7.706  0.00  0.00    +0.011 A 
ATOM      3  C   UNL     1       1.226  -2.871  -9.088  0.00  0.00    +0.050 A 
ATOM      4  C   UNL     1       0.028  -2.901  -9.783  0.00  0.00    +0.162 A 
ATOM      5  C   UNL     1      -1.177  -2.886  -9.088  0.00  0.00    +0.162 A 
ATOM      6  C   UNL     1      -1.174  -2.846  -7.702  0.00  0.00    +0.056 A 
ENDROOT
BRANCH   5   7
ATOM      7  O   UNL     1      -2.356  -2.916  -9.765  0.00  0.00    -0.491 OA
ATOM      8  C   UNL     1      -3.553  -2.898  -8.986  0.00  0.00    +0.277 C 
ENDBRANCH   5   7
BRANCH   1   9
ATOM      9  C   UNL     1       0.027  -2.763  -5.509  0.00  0.00    +0.266 C 
BRANCH   9  10
ATOM     10  O   UNL     1       0.042  -4.094  -4.989  0.00  0.00    -0.469 OA
BRANCH  10  15
ATOM     11  C   UNL     1       0.039  -3.290  -1.541  0.00  0.00    +0.096 A 
ATOM     12  C   UNL     1       0.053  -4.558  -0.971  0.00  0.00    +0.141 A 
ATOM     13  N   UNL     1       0.064  -5.632  -1.742  0.00  0.00    -0.234 NA
ATOM     14  C   UNL     1       0.060  -5.503  -3.061  0.00  0.00    +0.179 A 
ATOM     15  C   UNL     1       0.045  -4.228  -3.638  0.00  0.00    +0.257 A 
ATOM     16  N   UNL     1       0.030  -3.155  -2.866  0.00  0.00    -0.208 NA
BRANCH  11  20
ATOM     17  C   UNL     1      -0.018   1.461   0.010  0.00  0.00    +0.172 C 
ATOM     18  N   UNL     1       0.002  -0.004   0.002  0.00  0.00    -0.274 N 
ATOM     19  C   UNL     1       0.008  -0.788  -1.094  0.00  0.00    +0.118 A 
ATOM     20  C   UNL     1       0.027  -2.086  -0.673  0.00  0.00    +0.039 A 
ATOM     21  C   UNL     1       0.034  -2.076   0.736  0.00  0.00    +0.144 A 
ATOM     22  N   UNL     1       0.025  -0.831   1.132  0.00  0.00    -0.179 NA
ENDBRANCH  11  20
BRANCH  14  23
ATOM     23  N   UNL     1       0.071  -6.635  -3.872  0.00  0.00    -0.339 N 
ATOM     24  H   UNL     1       0.082  -7.518  -3.472  0.00  0.00    +0.144 HD
ATOM     25  H   UNL     1       0.069  -6.540  -4.837  0.00  0.00    +0.144 HD
ENDBRANCH  14  23
ENDBRANCH  10  15
ENDBRANCH   9  10
ENDBRANCH   1   9
BRANCH   4  26
ATOM     26  O   UNL     1       0.030  -2.944 -11.142  0.00  0.00    -0.484 OA
BRANCH  26  27
ATOM     27  C   UNL     1       1.304  -2.957 -11.789  0.00  0.00    +0.264 C 
BRANCH  27  28
ATOM     28  C   UNL     1       1.108  -3.006 -13.283  0.00  0.00    -0.010 A 
ATOM     29  C   UNL     1       1.021  -4.226 -13.928  0.00  0.00    +0.010 A 
ATOM     30  C   UNL     1       0.843  -4.273 -15.297  0.00  0.00    +0.046 A 
ATOM     31  C   UNL     1       0.750  -3.095 -16.024  0.00  0.00    +0.120 A 
ATOM     32  C   UNL     1       0.838  -1.873 -15.375  0.00  0.00    +0.046 A 
ATOM     33  C   UNL     1       1.011  -1.831 -14.005  0.00  0.00    +0.010 A 
BRANCH  31  34
ATOM     34  O   UNL     1       0.575  -3.140 -17.371  0.00  0.00    -0.495 OA
ATOM     35  C   UNL     1       0.488  -1.888 -18.056  0.00  0.00    +0.277 C 
ENDBRANCH  31  34
ENDBRANCH  27  28
ENDBRANCH  26  27
ENDBRANCH   4  26
TORSDOF 10
