REMARK  Name = CHEMBL480813
REMARK  9 active torsions:
REMARK  status: ('A' for Active; 'I' for Inactive)
REMARK    1  A    between atoms: C_1  and  O_2
REMARK    2  A    between atoms: O_2  and  C_3
REMARK    3  A    between atoms: C_8  and  N_9
REMARK    4  A    between atoms: N_9  and  C_10
REMARK    5  A    between atoms: C_10  and  C_11
REMARK    6  A    between atoms: C_11  and  N_12
REMARK    7  A    between atoms: C_20  and  C_31
REMARK    8  A    between atoms: C_21  and  N_22
REMARK    9  A    between atoms: N_22  and  C_23
REMARK                            x       y       z     vdW  Elec       q    Type
REMARK                         _______ _______ _______ _____ _____    ______ ____
ROOT
ATOM      1  C   UNL     1       4.227  -2.156  -1.069  0.00  0.00    +0.142 A 
ATOM      2  C   UNL     1       3.701  -1.059  -1.685  0.00  0.00    +0.059 A 
ATOM      3  C   UNL     1       2.919  -1.214  -2.839  0.00  0.00    +0.024 A 
ATOM      4  C   UNL     1       2.677  -2.508  -3.362  0.00  0.00    +0.050 A 
ATOM      5  C   UNL     1       3.228  -3.621  -2.712  0.00  0.00    +0.052 A 
ATOM      6  C   UNL     1       3.998  -3.442  -1.582  0.00  0.00    +0.071 A 
ATOM      7  N   UNL     1       1.931  -2.662  -4.466  0.00  0.00    -0.360 N 
ATOM      8  C   UNL     1       1.404  -1.643  -5.095  0.00  0.00    +0.098 A 
ATOM      9  C   UNL     1       1.592  -0.325  -4.648  0.00  0.00    +0.074 A 
ATOM     10  C   UNL     1       2.362  -0.093  -3.498  0.00  0.00    +0.054 A 
ATOM     11  H   UNL     1       1.777  -3.557  -4.808  0.00  0.00    +0.165 HD
ENDROOT
BRANCH   9  12
ATOM     12  C   UNL     1       0.987   0.800  -5.378  0.00  0.00    +0.245 C 
ATOM     13  O   UNL     1       1.237   1.944  -5.047  0.00  0.00    -0.270 OA
ATOM     14  N   UNL     1       0.158   0.564  -6.414  0.00  0.00    -0.325 N 
ATOM     15  H   UNL     1      -0.041  -0.348  -6.678  0.00  0.00    +0.145 HD
ATOM     16  H   UNL     1      -0.241   1.306  -6.895  0.00  0.00    +0.145 HD
ENDBRANCH   9  12
BRANCH   1  18
ATOM     17  C   UNL     1       5.182  -0.668   0.522  0.00  0.00    +0.277 C 
ATOM     18  O   UNL     1       4.986  -2.002   0.050  0.00  0.00    -0.493 OA
ENDBRANCH   1  18
BRANCH   6  19
ATOM     19  N   UNL     1       4.550  -4.550  -0.940  0.00  0.00    -0.343 N 
ATOM     20  H   UNL     1       5.089  -4.430  -0.142  0.00  0.00    +0.146 HD
BRANCH  19  21
ATOM     21  C   UNL     1       4.315  -5.896  -1.470  0.00  0.00    +0.083 C 
BRANCH  21  22
ATOM     22  C   UNL     1       5.026  -6.923  -0.586  0.00  0.00    -0.060 C 
BRANCH  22  23
ATOM     23  N   UNL     1       4.790  -8.272  -1.117  0.00  0.00    +0.381 N 
ATOM     24  C   UNL     1       3.360  -8.590  -1.024  0.00  0.00    -0.079 C 
ATOM     25  C   UNL     1       3.097  -9.962  -1.649  0.00  0.00    -0.019 C 
ATOM     26  C   UNL     1       3.908 -11.023  -0.900  0.00  0.00    -0.004 C 
ATOM     27  C   UNL     1       5.391 -10.641  -0.940  0.00  0.00    -0.019 C 
ATOM     28  C   UNL     1       5.569  -9.245  -0.340  0.00  0.00    -0.079 C 
ATOM     29  H   UNL     1       5.078  -8.307  -2.083  0.00  0.00    -0.082 HD
ENDBRANCH  22  23
ENDBRANCH  21  22
ENDBRANCH  19  21
ENDBRANCH   6  19
BRANCH  10  30
ATOM     30  N   UNL     1       2.569   1.186  -3.026  0.00  0.00    -0.312 N 
ATOM     31  H   UNL     1       1.968   1.562  -2.364  0.00  0.00    +0.152 HD
BRANCH  30  32
ATOM     32  C   UNL     1       3.646   1.940  -3.501  0.00  0.00    +0.051 A 
ATOM     33  C   UNL     1       4.436   1.452  -4.535  0.00  0.00    +0.025 A 
ATOM     34  C   UNL     1       5.499   2.200  -5.003  0.00  0.00    +0.003 A 
ATOM     35  C   UNL     1       5.779   3.433  -4.444  0.00  0.00    +0.021 A 
ATOM     36  C   UNL     1       4.995   3.924  -3.415  0.00  0.00    +0.061 A 
ATOM     37  C   UNL     1       3.925   3.183  -2.945  0.00  0.00    +0.080 A 
ATOM     38 CL   UNL     1       2.938   3.801  -1.658  0.00  0.00    -0.080 Cl
ATOM     39 CL   UNL     1       5.350   5.473  -2.716  0.00  0.00    -0.082 Cl
ENDBRANCH  30  32
ENDBRANCH  10  30
TORSDOF 8
