REMARK  Name = CHEMBL391691
REMARK  5 active torsions:
REMARK  status: ('A' for Active; 'I' for Inactive)
REMARK    1  A    between atoms: C_1  and  S_2
REMARK    2  A    between atoms: S_2  and  C_5
REMARK    3  A    between atoms: C_9  and  C_11
REMARK    4  A    between atoms: C_14  and  N_28
REMARK    5  A    between atoms: C_19  and  C_20
REMARK                            x       y       z     vdW  Elec       q    Type
REMARK                         _______ _______ _______ _____ _____    ______ ____
ROOT
ATOM      1  C   UNL     1       4.383  -0.466  -2.883  0.00  0.00    +0.013 A 
ATOM      2  C   UNL     1       5.185   0.669  -2.937  0.00  0.00    +0.093 A 
ATOM      3  N   UNL     1       6.502   0.552  -2.913  0.00  0.00    -0.349 N 
ATOM      4  C   UNL     1       7.126  -0.605  -2.838  0.00  0.00    +0.103 A 
ATOM      5  C   UNL     1       6.404  -1.826  -2.779  0.00  0.00    +0.035 A 
ATOM      6  C   UNL     1       5.000  -1.713  -2.798  0.00  0.00    +0.032 A 
ATOM      7  S   UNL     1       4.435  -3.389  -2.702  0.00  0.00    -0.095 S 
ATOM      8  C   UNL     1       6.015  -4.213  -2.631  0.00  0.00    +0.055 A 
ATOM      9  C   UNL     1       6.905  -3.196  -2.694  0.00  0.00    +0.000 A 
ATOM     10  H   UNL     1       7.037   1.361  -2.952  0.00  0.00    +0.167 HD
ENDROOT
BRANCH   9  11
ATOM     11  C   UNL     1       8.362  -3.465  -2.660  0.00  0.00    -0.015 A 
ATOM     12  C   UNL     1       9.157  -2.889  -1.669  0.00  0.00    +0.011 A 
ATOM     13  C   UNL     1      10.513  -3.143  -1.641  0.00  0.00    +0.040 A 
ATOM     14  C   UNL     1      11.086  -3.967  -2.595  0.00  0.00    +0.142 A 
ATOM     15  C   UNL     1      10.301  -4.542  -3.582  0.00  0.00    +0.077 A 
ATOM     16  C   UNL     1       8.942  -4.299  -3.615  0.00  0.00    +0.031 A 
ATOM     17 CL   UNL     1      11.025  -5.575  -4.774  0.00  0.00    -0.081 Cl
ATOM     18  F   UNL     1      12.414  -4.212  -2.563  0.00  0.00    -0.204 F 
ENDBRANCH   9  11
BRANCH   1  23
ATOM     19  C   UNL     1       0.880   0.632  -2.076  0.00  0.00    +0.088 A 
ATOM     20  C   UNL     1       0.145  -0.139  -2.959  0.00  0.00    +0.027 A 
ATOM     21  C   UNL     1       0.784  -1.016  -3.817  0.00  0.00    +0.002 A 
ATOM     22  C   UNL     1       2.160  -1.126  -3.797  0.00  0.00    +0.009 A 
ATOM     23  C   UNL     1       2.905  -0.352  -2.909  0.00  0.00    -0.014 A 
ATOM     24  C   UNL     1       2.257   0.534  -2.050  0.00  0.00    +0.035 A 
BRANCH  19  26
ATOM     25  C   UNL     1      -0.047   3.306  -1.907  0.00  0.00    +0.200 C 
ATOM     26  S   UNL     1       0.058   1.747  -0.987  0.00  0.00    -0.006 S 
ATOM     27  O   UNL     1       0.940   1.890   0.119  0.00  0.00    -0.170 OA
ATOM     28  O   UNL     1      -1.239   1.193  -0.812  0.00  0.00    -0.170 OA
ENDBRANCH  19  26
ENDBRANCH   1  23
BRANCH   4  29
ATOM     29  N   UNL     1       8.512  -0.632  -2.819  0.00  0.00    -0.344 N 
ATOM     30  H   UNL     1       9.007   0.120  -2.457  0.00  0.00    +0.144 HD
ATOM     31  H   UNL     1       8.988  -1.403  -3.167  0.00  0.00    +0.144 HD
ENDBRANCH   4  29
TORSDOF 4
