REMARK  Name = CHEMBL270783
REMARK  3 active torsions:
REMARK  status: ('A' for Active; 'I' for Inactive)
REMARK    1  A    between atoms: C_1  and  C_2
REMARK    2  A    between atoms: C_4  and  C_7
REMARK    3  A    between atoms: C_8  and  C_20
REMARK                            x       y       z     vdW  Elec       q    Type
REMARK                         _______ _______ _______ _____ _____    ______ ____
ROOT
ATOM      1  C   UNL     1       0.085  -3.255  -1.677  0.00  0.00    +0.088 A 
ATOM      2  C   UNL     1       1.128  -4.155  -1.609  0.00  0.00    -0.019 A 
ATOM      3  C   UNL     1       1.065  -5.343  -2.379  0.00  0.00    +0.004 A 
ATOM      4  C   UNL     1       2.112  -6.276  -2.327  0.00  0.00    +0.030 A 
ATOM      5  C   UNL     1       2.043  -7.418  -3.072  0.00  0.00    +0.042 A 
ATOM      6  C   UNL     1       0.942  -7.666  -3.883  0.00  0.00    +0.022 A 
ATOM      7  C   UNL     1      -0.098  -6.765  -3.950  0.00  0.00    +0.028 A 
ATOM      8  C   UNL     1      -0.051  -5.593  -3.199  0.00  0.00    +0.050 A 
ATOM      9  N   UNL     1      -1.090  -4.688  -3.263  0.00  0.00    -0.322 N 
ATOM     10  H   UNL     1      -1.853  -4.875  -3.833  0.00  0.00    +0.169 HD
ATOM     11  C   UNL     1      -1.064  -3.553  -2.540  0.00  0.00    +0.260 A 
ATOM     12  O   UNL     1      -1.994  -2.769  -2.606  0.00  0.00    -0.267 OA
ATOM     13 CL   UNL     1       3.340  -8.569  -3.006  0.00  0.00    -0.084 Cl
ENDROOT
BRANCH   1  17
ATOM     14  C   UNL     1       0.251   1.652  -0.400  0.00  0.00    +0.069 C 
ATOM     15  C   UNL     1       0.194   0.149  -0.305  0.00  0.00    +0.081 A 
ATOM     16  C   UNL     1       0.174  -0.742  -1.387  0.00  0.00    +0.076 A 
ATOM     17  C   UNL     1       0.122  -2.009  -0.888  0.00  0.00    +0.173 A 
ATOM     18  O   UNL     1       0.109  -1.919   0.455  0.00  0.00    -0.354 OA
ATOM     19  N   UNL     1       0.160  -0.546   0.798  0.00  0.00    -0.083 NA
ENDBRANCH   1  17
BRANCH   2  20
ATOM     20  C   UNL     1       2.319  -3.878  -0.728  0.00  0.00    +0.021 C 
ATOM     21  C   UNL     1       3.586  -3.825  -1.584  0.00  0.00    +0.008 C 
ATOM     22  C   UNL     1       4.795  -3.544  -0.689  0.00  0.00    +0.001 C 
ATOM     23  C   UNL     1       4.929  -4.658   0.351  0.00  0.00    +0.000 C 
ATOM     24  C   UNL     1       3.662  -4.711   1.208  0.00  0.00    +0.001 C 
ATOM     25  C   UNL     1       2.453  -4.992   0.313  0.00  0.00    +0.008 C 
ENDBRANCH   2  20
TORSDOF 2
