REMARK  Name = CHEMBL251603
REMARK  5 active torsions:
REMARK  status: ('A' for Active; 'I' for Inactive)
REMARK    1  A    between atoms: C_1  and  N_2
REMARK    2  A    between atoms: N_5  and  C_8
REMARK    3  A    between atoms: C_13  and  N_14
REMARK    4  A    between atoms: C_15  and  C_17
REMARK    5  A    between atoms: C_20  and  N_22
REMARK                            x       y       z     vdW  Elec       q    Type
REMARK                         _______ _______ _______ _____ _____    ______ ____
ROOT
ATOM      1  C   UNL     1      -0.920  -3.709   1.588  0.00  0.00    +0.051 A 
ATOM      2  C   UNL     1      -0.656  -5.017   1.209  0.00  0.00    +0.025 A 
ATOM      3  C   UNL     1      -1.116  -6.067   1.982  0.00  0.00    +0.002 A 
ATOM      4  C   UNL     1      -1.840  -5.818   3.133  0.00  0.00    +0.002 A 
ATOM      5  C   UNL     1      -2.108  -4.518   3.518  0.00  0.00    +0.025 A 
ATOM      6  C   UNL     1      -1.645  -3.458   2.753  0.00  0.00    +0.055 A 
ENDROOT
BRANCH   1  11
ATOM      7  C   UNL     1      -0.018   1.448  -0.009  0.00  0.00    +0.105 C 
ATOM      8  N   UNL     1       0.006  -0.021  -0.007  0.00  0.00    -0.302 NA
ATOM      9  C   UNL     1      -1.354  -0.569  -0.100  0.00  0.00    +0.103 C 
ATOM     10  C   UNL     1      -1.277  -2.089  -0.277  0.00  0.00    +0.120 C 
ATOM     11  N   UNL     1      -0.455  -2.645   0.808  0.00  0.00    -0.326 N 
ATOM     12  C   UNL     1       0.869  -2.053   1.052  0.00  0.00    +0.120 C 
ATOM     13  C   UNL     1       0.708  -0.534   1.177  0.00  0.00    +0.103 C 
ENDBRANCH   1  11
BRANCH   6  14
ATOM     14  N   UNL     1      -1.911  -2.140   3.145  0.00  0.00    -0.277 N 
ATOM     15  C   UNL     1      -3.077  -1.839   3.749  0.00  0.00    +0.284 C 
ATOM     16  O   UNL     1      -3.865  -2.724   4.028  0.00  0.00    -0.266 OA
ATOM     17  H   UNL     1      -1.255  -1.444   2.981  0.00  0.00    +0.155 HD
BRANCH  15  18
ATOM     18  C   UNL     1      -3.397  -0.444   4.071  0.00  0.00    +0.192 A 
ATOM     19  C   UNL     1      -4.535  -0.003   4.684  0.00  0.00    +0.057 A 
ATOM     20  C   UNL     1      -4.420   1.392   4.792  0.00  0.00    +0.076 A 
ATOM     21  C   UNL     1      -3.232   1.736   4.247  0.00  0.00    +0.280 A 
ATOM     22  O   UNL     1      -2.617   0.627   3.818  0.00  0.00    -0.429 OA
BRANCH  21  23
ATOM     23  N   UNL     1      -2.697   3.113   4.145  0.00  0.00    +0.093 N 
ATOM     24  O   UNL     1      -3.340   4.044   4.572  0.00  0.00    -0.123 OA
ATOM     25  O   UNL     1      -1.618   3.306   3.636  0.00  0.00    -0.123 OA
ENDBRANCH  21  23
ENDBRANCH  15  18
ENDBRANCH   6  14
TORSDOF 4
