REMARK  Name = CHEMBL241516
REMARK  3 active torsions:
REMARK  status: ('A' for Active; 'I' for Inactive)
REMARK    1  A    between atoms: C_3  and  C_7
REMARK    2  A    between atoms: C_10  and  N_24
REMARK    3  A    between atoms: C_15  and  C_16
REMARK                            x       y       z     vdW  Elec       q    Type
REMARK                         _______ _______ _______ _____ _____    ______ ____
ROOT
ATOM      1  C   UNL     1       3.672   1.941  -0.692  0.00  0.00    +0.014 A 
ATOM      2  C   UNL     1       4.147   2.443  -1.899  0.00  0.00    +0.093 A 
ATOM      3  N   UNL     1       5.301   3.087  -1.941  0.00  0.00    -0.349 N 
ATOM      4  C   UNL     1       6.056   3.291  -0.882  0.00  0.00    +0.103 A 
ATOM      5  C   UNL     1       5.666   2.822   0.400  0.00  0.00    +0.035 A 
ATOM      6  C   UNL     1       4.435   2.139   0.457  0.00  0.00    +0.032 A 
ATOM      7  S   UNL     1       4.263   1.712   2.168  0.00  0.00    -0.095 S 
ATOM      8  C   UNL     1       5.775   2.426   2.788  0.00  0.00    +0.055 A 
ATOM      9  C   UNL     1       6.356   2.946   1.681  0.00  0.00    +0.000 A 
ATOM     10  H   UNL     1       5.607   3.426  -2.797  0.00  0.00    +0.167 HD
ENDROOT
BRANCH   9  11
ATOM     11  C   UNL     1       7.659   3.645   1.772  0.00  0.00    -0.015 A 
ATOM     12  C   UNL     1       7.775   4.967   1.342  0.00  0.00    +0.011 A 
ATOM     13  C   UNL     1       8.991   5.614   1.428  0.00  0.00    +0.040 A 
ATOM     14  C   UNL     1      10.095   4.954   1.940  0.00  0.00    +0.142 A 
ATOM     15  C   UNL     1       9.986   3.640   2.369  0.00  0.00    +0.077 A 
ATOM     16  C   UNL     1       8.772   2.986   2.292  0.00  0.00    +0.031 A 
ATOM     17 CL   UNL     1      11.374   2.819   3.009  0.00  0.00    -0.081 Cl
ATOM     18  F   UNL     1      11.283   5.592   2.021  0.00  0.00    -0.204 F 
ENDBRANCH   9  11
BRANCH   1  21
ATOM     19  C   UNL     1       0.049   1.045  -1.119  0.00  0.00    +0.020 A 
ATOM     20  C   UNL     1       1.230   1.762  -1.205  0.00  0.00    +0.011 A 
ATOM     21  C   UNL     1       2.380   1.216  -0.628  0.00  0.00    +0.003 A 
ATOM     22  C   UNL     1       2.293  -0.021   0.009  0.00  0.00    +0.119 A 
ATOM     23  N   UNL     1       1.146  -0.666   0.066  0.00  0.00    -0.263 NA
ATOM     24  C   UNL     1       0.044  -0.176  -0.470  0.00  0.00    +0.111 A 
ENDBRANCH   1  21
BRANCH   4  25
ATOM     25  N   UNL     1       7.253   3.978  -1.021  0.00  0.00    -0.344 N 
ATOM     26  H   UNL     1       7.356   4.635  -1.726  0.00  0.00    +0.144 HD
ATOM     27  H   UNL     1       7.987   3.800  -0.412  0.00  0.00    +0.144 HD
ENDBRANCH   4  25
TORSDOF 3
