REMARK  Name = CHEMBL1172528
REMARK  5 active torsions:
REMARK  status: ('A' for Active; 'I' for Inactive)
REMARK    1  A    between atoms: C_3  and  C_7
REMARK    2  A    between atoms: C_10  and  N_19
REMARK    3  A    between atoms: C_11  and  C_13
REMARK    4  A    between atoms: C_20  and  C_22
REMARK    5  A    between atoms: C_26  and  C_28
REMARK                            x       y       z     vdW  Elec       q    Type
REMARK                         _______ _______ _______ _____ _____    ______ ____
ROOT
ATOM      1  C   UNL     1       3.676   2.047   0.002  0.00  0.00    -0.016 A 
ATOM      2  C   UNL     1       3.733   3.441   0.011  0.00  0.00    +0.010 A 
ATOM      3  C   UNL     1       4.952   4.086  -0.007  0.00  0.00    +0.024 A 
ATOM      4  C   UNL     1       6.130   3.352  -0.032  0.00  0.00    +0.041 A 
ATOM      5  C   UNL     1       6.082   1.950  -0.040  0.00  0.00    -0.000 A 
ATOM      6  C   UNL     1       4.850   1.301  -0.018  0.00  0.00    +0.018 A 
ENDROOT
BRANCH   1   9
ATOM      7  C   UNL     1      -0.027   1.408   0.056  0.00  0.00    +0.020 A 
ATOM      8  C   UNL     1       1.174   2.097   0.040  0.00  0.00    +0.011 A 
ATOM      9  C   UNL     1       2.361   1.360   0.020  0.00  0.00    +0.000 A 
ATOM     10  C   UNL     1       2.290  -0.032   0.017  0.00  0.00    +0.119 A 
ATOM     11  N   UNL     1       1.123  -0.644   0.033  0.00  0.00    -0.263 NA
ATOM     12  C   UNL     1      -0.013   0.026   0.051  0.00  0.00    +0.111 A 
ENDBRANCH   1   9
BRANCH   5  13
ATOM     13  C   UNL     1       7.333   1.165  -0.068  0.00  0.00    -0.042 C 
ATOM     14  C   UNL     1       7.998   1.103  -1.196  0.00  0.00    -0.023 C 
ATOM     15  C   UNL     1       9.277   0.337  -1.372  0.00  0.00    +0.027 C 
ATOM     16  C   UNL     1       9.893   0.021  -0.007  0.00  0.00    +0.004 C 
ATOM     17  C   UNL     1       8.807  -0.592   0.886  0.00  0.00    +0.005 C 
ATOM     18  C   UNL     1       7.771   0.491   1.200  0.00  0.00    +0.035 C 
ENDBRANCH   5  13
BRANCH   4  19
ATOM     19  N   UNL     1       7.361   4.008  -0.050  0.00  0.00    -0.278 N 
ATOM     20  C   UNL     1       7.493   5.175  -0.711  0.00  0.00    +0.284 C 
ATOM     21  O   UNL     1       6.521   5.697  -1.222  0.00  0.00    -0.267 OA
ATOM     22  H   UNL     1       8.122   3.624   0.414  0.00  0.00    +0.155 HD
BRANCH  20  23
ATOM     23  C   UNL     1       8.817   5.818  -0.814  0.00  0.00    +0.195 A 
ATOM     24  N   UNL     1       9.079   7.000  -1.451  0.00  0.00    -0.340 N 
ATOM     25  H   UNL     1       8.434   7.560  -1.910  0.00  0.00    +0.167 HD
ATOM     26  C   UNL     1      10.399   7.246  -1.323  0.00  0.00    +0.123 A 
ATOM     27  C   UNL     1      10.934   6.197  -0.600  0.00  0.00    +0.158 A 
ATOM     28  N   UNL     1       9.933   5.353  -0.306  0.00  0.00    -0.213 NA
BRANCH  27  29
ATOM     29  C   UNL     1      12.308   6.042  -0.228  0.00  0.00    +0.121 C 
ATOM     30  N   UNL     1      13.398   5.918   0.068  0.00  0.00    -0.189 NA
ENDBRANCH  27  29
ENDBRANCH  20  23
ENDBRANCH   4  19
TORSDOF 5
