REMARK  Name = CHEMBL256950
REMARK  5 active torsions:
REMARK  status: ('A' for Active; 'I' for Inactive)
REMARK    1  A    between atoms: C_3  and  N_18
REMARK    2  A    between atoms: C_4  and  C_13
REMARK    3  A    between atoms: C_6  and  C_7
REMARK    4  A    between atoms: C_19  and  C_21
REMARK    5  A    between atoms: C_23  and  C_26
REMARK                            x       y       z     vdW  Elec       q    Type
REMARK                         _______ _______ _______ _____ _____    ______ ____
ROOT
ATOM      1  C   UNL     1      -0.020   1.395   0.031  0.00  0.00    +0.006 A 
ATOM      2  C   UNL     1       1.166   2.105   0.015  0.00  0.00    +0.024 A 
ATOM      3  C   UNL     1       2.378   1.432  -0.004  0.00  0.00    +0.041 A 
ATOM      4  C   UNL     1       2.395   0.030  -0.007  0.00  0.00    -0.001 A 
ATOM      5  C   UNL     1       1.191  -0.674   0.009  0.00  0.00    +0.014 A 
ATOM      6  C   UNL     1      -0.007   0.011   0.028  0.00  0.00    -0.044 A 
ENDROOT
BRANCH   6   7
ATOM      7  C   UNL     1      -1.307  -0.751   0.045  0.00  0.00    +0.016 C 
ATOM      8  C   UNL     1      -2.136  -0.378  -1.187  0.00  0.00    -0.011 C 
ATOM      9  C   UNL     1      -3.487  -1.094  -1.122  0.00  0.00    -0.082 C 
ATOM     10  N   UNL     1      -4.202  -0.687   0.093  0.00  0.00    +0.379 N 
ATOM     11  C   UNL     1      -3.447  -1.106   1.280  0.00  0.00    -0.082 C 
ATOM     12  C   UNL     1      -2.095  -0.390   1.308  0.00  0.00    -0.011 C 
ATOM     13  H   UNL     1      -4.308   0.316   0.100  0.00  0.00    -0.086 HD
ATOM     14  H   UNL     1      -5.114  -1.119   0.106  0.00  0.00    -0.086 HD
ENDBRANCH   6   7
BRANCH   4  15
ATOM     15  C   UNL     1       3.680  -0.698  -0.028  0.00  0.00    -0.042 C 
ATOM     16  C   UNL     1       4.459  -0.815  -1.090  0.00  0.00    -0.023 C 
ATOM     17  C   UNL     1       5.694  -1.622  -0.763  0.00  0.00    +0.028 C 
ATOM     18  C   UNL     1       5.765  -1.629   0.781  0.00  0.00    +0.009 C 
ATOM     19  C   UNL     1       4.286  -1.403   1.163  0.00  0.00    +0.036 C 
ENDBRANCH   4  15
BRANCH   3  20
ATOM     20  N   UNL     1       3.577   2.147  -0.021  0.00  0.00    -0.278 N 
ATOM     21  C   UNL     1       3.654   3.317  -0.685  0.00  0.00    +0.284 C 
ATOM     22  O   UNL     1       2.660   3.790  -1.201  0.00  0.00    -0.267 OA
ATOM     23  H   UNL     1       4.354   1.802   0.446  0.00  0.00    +0.155 HD
BRANCH  21  24
ATOM     24  C   UNL     1       4.945   4.023  -0.787  0.00  0.00    +0.195 A 
ATOM     25  N   UNL     1       6.083   3.611  -0.279  0.00  0.00    -0.213 NA
ATOM     26  C   UNL     1       7.041   4.505  -0.568  0.00  0.00    +0.158 A 
ATOM     27  C   UNL     1       6.458   5.525  -1.295  0.00  0.00    +0.123 A 
ATOM     28  N   UNL     1       5.153   5.213  -1.431  0.00  0.00    -0.340 N 
ATOM     29  H   UNL     1       4.484   5.736  -1.899  0.00  0.00    +0.167 HD
BRANCH  26  30
ATOM     30  C   UNL     1       8.419   4.418  -0.191  0.00  0.00    +0.121 C 
ATOM     31  N   UNL     1       9.513   4.349   0.109  0.00  0.00    -0.189 NA
ENDBRANCH  26  30
ENDBRANCH  21  24
ENDBRANCH   3  20
TORSDOF 5
