REMARK  Name = CHEMBL1087280
REMARK  12 active torsions:
REMARK  status: ('A' for Active; 'I' for Inactive)
REMARK    1  A    between atoms: C_1  and  N_2
REMARK    2  A    between atoms: C_4  and  C_7
REMARK    3  A    between atoms: C_10  and  N_32
REMARK    4  A    between atoms: C_11  and  O_13
REMARK    5  A    between atoms: O_13  and  C_14
REMARK    6  A    between atoms: C_16  and  O_30
REMARK    7  A    between atoms: C_17  and  O_20
REMARK    8  A    between atoms: O_20  and  C_21
REMARK    9  A    between atoms: C_21  and  C_22
REMARK   10  A    between atoms: C_25  and  O_28
REMARK   11  A    between atoms: O_28  and  C_29
REMARK   12  A    between atoms: O_30  and  C_31
REMARK                            x       y       z     vdW  Elec       q    Type
REMARK                         _______ _______ _______ _____ _____    ______ ____
ROOT
ATOM      1  C   UNL     1       0.062  -2.802  -5.412  0.00  0.00    +0.152 A 
ATOM      2  C   UNL     1       0.014  -2.506  -6.772  0.00  0.00    +0.099 A 
ATOM      3  C   UNL     1       0.036  -1.173  -7.158  0.00  0.00    +0.185 A 
ATOM      4  C   UNL     1       0.105  -0.185  -6.177  0.00  0.00    +0.258 A 
ATOM      5  N   UNL     1       0.148  -0.508  -4.897  0.00  0.00    -0.215 NA
ATOM      6  C   UNL     1       0.124  -1.765  -4.496  0.00  0.00    +0.161 A 
ENDROOT
BRANCH   3   7
ATOM      7  O   UNL     1      -0.008  -0.836  -8.474  0.00  0.00    -0.490 OA
ATOM      8  C   UNL     1      -0.077  -1.908  -9.417  0.00  0.00    +0.277 C 
ENDBRANCH   3   7
BRANCH   1   9
ATOM      9  O   UNL     1       0.042  -4.094  -4.989  0.00  0.00    -0.434 OA
BRANCH   9  14
ATOM     10  C   UNL     1       3.370  -5.004  -5.783  0.00  0.00    +0.096 A 
ATOM     11  C   UNL     1       3.424  -6.296  -5.270  0.00  0.00    +0.141 A 
ATOM     12  N   UNL     1       2.363  -6.820  -4.681  0.00  0.00    -0.234 NA
ATOM     13  C   UNL     1       1.245  -6.116  -4.579  0.00  0.00    +0.179 A 
ATOM     14  C   UNL     1       1.187  -4.816  -5.093  0.00  0.00    +0.262 A 
ATOM     15  N   UNL     1       2.251  -4.291  -5.677  0.00  0.00    -0.208 NA
BRANCH  10  19
ATOM     16  C   UNL     1       6.427  -1.836  -8.149  0.00  0.00    +0.172 C 
ATOM     17  N   UNL     1       5.899  -3.027  -7.479  0.00  0.00    -0.274 N 
ATOM     18  C   UNL     1       4.654  -3.167  -6.983  0.00  0.00    +0.118 A 
ATOM     19  C   UNL     1       4.563  -4.418  -6.443  0.00  0.00    +0.039 A 
ATOM     20  C   UNL     1       5.809  -5.050  -6.625  0.00  0.00    +0.144 A 
ATOM     21  N   UNL     1       6.599  -4.217  -7.249  0.00  0.00    -0.179 NA
ENDBRANCH  10  19
BRANCH  13  22
ATOM     22  N   UNL     1       0.128  -6.670  -3.959  0.00  0.00    -0.339 N 
ATOM     23  H   UNL     1       0.168  -7.572  -3.602  0.00  0.00    +0.144 HD
ATOM     24  H   UNL     1      -0.691  -6.155  -3.883  0.00  0.00    +0.144 HD
ENDBRANCH  13  22
ENDBRANCH   9  14
ENDBRANCH   1   9
BRANCH   4  25
ATOM     25  O   UNL     1       0.127   1.123  -6.542  0.00  0.00    -0.469 OA
BRANCH  25  26
ATOM     26  C   UNL     1       0.198   2.088  -5.490  0.00  0.00    +0.266 C 
BRANCH  26  27
ATOM     27  C   UNL     1       0.213   3.475  -6.081  0.00  0.00    -0.010 A 
ATOM     28  C   UNL     1       1.417   4.073  -6.406  0.00  0.00    +0.010 A 
ATOM     29  C   UNL     1       1.433   5.344  -6.948  0.00  0.00    +0.046 A 
ATOM     30  C   UNL     1       0.241   6.019  -7.166  0.00  0.00    +0.120 A 
ATOM     31  C   UNL     1      -0.965   5.417  -6.840  0.00  0.00    +0.046 A 
ATOM     32  C   UNL     1      -0.976   4.144  -6.303  0.00  0.00    +0.010 A 
BRANCH  30  33
ATOM     33  O   UNL     1       0.256   7.270  -7.698  0.00  0.00    -0.495 OA
ATOM     34  C   UNL     1      -1.009   7.905  -7.895  0.00  0.00    +0.277 C 
ENDBRANCH  30  33
ENDBRANCH  26  27
ENDBRANCH  25  26
ENDBRANCH   4  25
TORSDOF 9
