REMARK  Name = CHEMBL254909
REMARK  7 active torsions:
REMARK  status: ('A' for Active; 'I' for Inactive)
REMARK    1  A    between atoms: C_1  and  C_2
REMARK    2  A    between atoms: N_5  and  C_8
REMARK    3  A    between atoms: C_10  and  N_25
REMARK    4  A    between atoms: C_13  and  N_14
REMARK    5  A    between atoms: C_15  and  C_17
REMARK    6  A    between atoms: C_19  and  C_23
REMARK    7  A    between atoms: C_31  and  C_33
REMARK                            x       y       z     vdW  Elec       q    Type
REMARK                         _______ _______ _______ _____ _____    ______ ____
ROOT
ATOM      1  C   UNL     1      -0.971  -3.440   1.946  0.00  0.00    +0.037 A 
ATOM      2  C   UNL     1      -0.641  -4.361   0.972  0.00  0.00    +0.046 A 
ATOM      3  C   UNL     1      -0.795  -5.718   1.219  0.00  0.00    +0.032 A 
ATOM      4  C   UNL     1      -1.282  -6.150   2.446  0.00  0.00    +0.025 A 
ATOM      5  C   UNL     1      -1.612  -5.229   3.420  0.00  0.00    +0.027 A 
ATOM      6  C   UNL     1      -1.452  -3.872   3.175  0.00  0.00    +0.054 A 
ENDROOT
BRANCH   3   7
ATOM      7  N   UNL     1      -0.461  -6.652   0.232  0.00  0.00    -0.327 N 
ATOM      8  C   UNL     1       0.168  -6.219  -1.024  0.00  0.00    +0.124 C 
ATOM      9  C   UNL     1       1.477  -6.996  -1.210  0.00  0.00    +0.126 C 
ATOM     10  N   UNL     1       1.206  -8.427  -1.010  0.00  0.00    -0.299 N 
ATOM     11  C   UNL     1       0.577  -8.860   0.246  0.00  0.00    +0.126 C 
ATOM     12  C   UNL     1      -0.727  -8.083   0.434  0.00  0.00    +0.124 C 
ATOM     13  C   UNL     1       1.528  -9.326  -1.961  0.00  0.00    +0.213 C 
ATOM     14  O   UNL     1       2.136  -8.972  -2.949  0.00  0.00    -0.276 OA
ATOM     15  C   UNL     1       1.131 -10.771  -1.798  0.00  0.00    +0.109 C 
ENDBRANCH   3   7
BRANCH   1  20
ATOM     16  C   UNL     1       0.130   1.706  -0.064  0.00  0.00    +0.007 C 
ATOM     17  C   UNL     1       0.016   0.188   0.089  0.00  0.00    -0.011 C 
ATOM     18  C   UNL     1      -1.456  -0.202   0.251  0.00  0.00    +0.020 C 
ATOM     19  C   UNL     1      -1.556  -1.711   0.483  0.00  0.00    +0.085 C 
ATOM     20  N   UNL     1      -0.816  -2.073   1.698  0.00  0.00    -0.392 NA
ATOM     21  C   UNL     1       0.609  -1.768   1.522  0.00  0.00    +0.085 C 
ATOM     22  C   UNL     1       0.792  -0.261   1.331  0.00  0.00    +0.020 C 
ATOM     23  H   UNL     1      -1.177  -1.548   2.480  0.00  0.00    +0.126 HD
ENDBRANCH   1  20
BRANCH   6  24
ATOM     24  N   UNL     1      -1.782  -2.938   4.166  0.00  0.00    -0.279 N 
ATOM     25  C   UNL     1      -2.683  -3.253   5.117  0.00  0.00    +0.265 C 
ATOM     26  O   UNL     1      -3.287  -4.308   5.057  0.00  0.00    -0.268 OA
ATOM     27  H   UNL     1      -1.361  -2.063   4.167  0.00  0.00    +0.155 HD
BRANCH  25  28
ATOM     28  C   UNL     1      -2.937  -2.324   6.224  0.00  0.00    +0.103 A 
ATOM     29  C   UNL     1      -3.815  -2.524   7.249  0.00  0.00    +0.051 A 
ATOM     30  C   UNL     1      -3.741  -1.387   8.085  0.00  0.00    +0.070 A 
ATOM     31  C   UNL     1      -2.810  -0.533   7.527  0.00  0.00    +0.102 A 
ATOM     32  N   UNL     1      -2.326  -1.104   6.410  0.00  0.00    -0.356 N 
ATOM     33  H   UNL     1      -1.654  -0.717   5.827  0.00  0.00    +0.166 HD
BRANCH  30  34
ATOM     34  C   UNL     1      -4.490  -1.163   9.285  0.00  0.00    +0.101 C 
ATOM     35  N   UNL     1      -5.084  -0.986  10.236  0.00  0.00    -0.191 NA
ENDBRANCH  30  34
ENDBRANCH  25  28
ENDBRANCH   6  24
TORSDOF 5
