REMARK  Name = CHEMBL258461
REMARK  7 active torsions:
REMARK  status: ('A' for Active; 'I' for Inactive)
REMARK    1  A    between atoms: C_1  and  C_2
REMARK    2  A    between atoms: C_6  and  C_7
REMARK    3  A    between atoms: C_9  and  N_23
REMARK    4  A    between atoms: C_12  and  N_13
REMARK    5  A    between atoms: C_14  and  C_16
REMARK    6  A    between atoms: C_19  and  C_21
REMARK    7  A    between atoms: N_26  and  C_29
REMARK                            x       y       z     vdW  Elec       q    Type
REMARK                         _______ _______ _______ _____ _____    ______ ____
ROOT
ATOM      1  C   UNL     1       0.181  -0.026   2.572  0.00  0.00    +0.012 A 
ATOM      2  C   UNL     1       0.077   1.347   2.788  0.00  0.00    +0.034 A 
ATOM      3  C   UNL     1       0.205   1.855   4.071  0.00  0.00    +0.030 A 
ATOM      4  C   UNL     1       0.436   0.998   5.141  0.00  0.00    +0.025 A 
ATOM      5  C   UNL     1       0.541  -0.363   4.934  0.00  0.00    +0.026 A 
ATOM      6  C   UNL     1       0.409  -0.885   3.656  0.00  0.00    +0.042 A 
ENDROOT
BRANCH   3   7
ATOM      7  N   UNL     1       0.101   3.233   4.290  0.00  0.00    -0.333 N 
ATOM      8  C   UNL     1       0.354   3.809   5.620  0.00  0.00    +0.086 C 
ATOM      9  C   UNL     1       1.345   4.968   5.467  0.00  0.00    -0.060 C 
ATOM     10  N   UNL     1       0.828   5.925   4.481  0.00  0.00    +0.380 N 
ATOM     11  C   UNL     1       0.756   5.290   3.159  0.00  0.00    -0.060 C 
ATOM     12  C   UNL     1      -0.259   4.148   3.196  0.00  0.00    +0.086 C 
ATOM     13  C   UNL     1       1.723   7.088   4.415  0.00  0.00    -0.096 C 
ATOM     14  H   UNL     1      -0.093   6.228   4.758  0.00  0.00    -0.082 HD
ENDBRANCH   3   7
BRANCH   1  20
ATOM     15  C   UNL     1      -2.009   0.681   0.537  0.00  0.00    +0.045 C 
ATOM     16  C   UNL     1      -0.902  -0.301   0.256  0.00  0.00    -0.036 A 
ATOM     17  C   UNL     1      -0.820  -0.938  -0.963  0.00  0.00    +0.011 A 
ATOM     18  C   UNL     1       0.190  -1.818  -1.183  0.00  0.00    +0.046 A 
ATOM     19  S   UNL     1       1.075  -1.768   0.366  0.00  0.00    -0.096 S 
ATOM     20  C   UNL     1       0.046  -0.575   1.206  0.00  0.00    +0.024 A 
ENDBRANCH   1  20
BRANCH   6  21
ATOM     21  N   UNL     1       0.508  -2.265   3.448  0.00  0.00    -0.278 N 
ATOM     22  C   UNL     1       1.333  -3.004   4.216  0.00  0.00    +0.284 C 
ATOM     23  O   UNL     1       1.924  -2.488   5.146  0.00  0.00    -0.266 OA
ATOM     24  H   UNL     1      -0.017  -2.689   2.752  0.00  0.00    +0.155 HD
BRANCH  22  25
ATOM     25  C   UNL     1       1.518  -4.434   3.930  0.00  0.00    +0.191 A 
ATOM     26  C   UNL     1       2.318  -5.291   4.633  0.00  0.00    +0.056 A 
ATOM     27  C   UNL     1       2.202  -6.547   4.029  0.00  0.00    +0.061 A 
ATOM     28  C   UNL     1       1.328  -6.403   2.974  0.00  0.00    +0.205 A 
ATOM     29  O   UNL     1       0.923  -5.120   2.936  0.00  0.00    -0.440 OA
BRANCH  28  30
ATOM     30  C   UNL     1       0.918  -7.440   2.075  0.00  0.00    +0.138 C 
ATOM     31  N   UNL     1       0.592  -8.262   1.363  0.00  0.00    -0.188 NA
ENDBRANCH  28  30
ENDBRANCH  22  25
ENDBRANCH   6  21
TORSDOF 5
