REMARK  Name = CHEMBL254909
REMARK  7 active torsions:
REMARK  status: ('A' for Active; 'I' for Inactive)
REMARK    1  A    between atoms: C_1  and  C_2
REMARK    2  A    between atoms: N_5  and  C_8
REMARK    3  A    between atoms: C_10  and  N_25
REMARK    4  A    between atoms: C_13  and  N_14
REMARK    5  A    between atoms: C_15  and  C_17
REMARK    6  A    between atoms: C_19  and  C_23
REMARK    7  A    between atoms: C_31  and  C_33
REMARK                            x       y       z     vdW  Elec       q    Type
REMARK                         _______ _______ _______ _____ _____    ______ ____
ROOT
ATOM      1  C   UNL     1      -0.573  -2.923   1.819  0.00  0.00    +0.053 A 
ATOM      2  C   UNL     1      -0.400  -4.287   1.633  0.00  0.00    +0.048 A 
ATOM      3  C   UNL     1      -0.931  -5.183   2.551  0.00  0.00    +0.032 A 
ATOM      4  C   UNL     1      -1.634  -4.715   3.654  0.00  0.00    +0.025 A 
ATOM      5  C   UNL     1      -1.808  -3.357   3.841  0.00  0.00    +0.027 A 
ATOM      6  C   UNL     1      -1.274  -2.457   2.930  0.00  0.00    +0.055 A 
ENDROOT
BRANCH   3   7
ATOM      7  N   UNL     1      -0.757  -6.558   2.365  0.00  0.00    -0.327 N 
ATOM      8  C   UNL     1      -1.213  -7.514   3.384  0.00  0.00    +0.124 C 
ATOM      9  C   UNL     1      -2.160  -8.523   2.721  0.00  0.00    +0.126 C 
ATOM     10  N   UNL     1      -1.519  -9.038   1.502  0.00  0.00    -0.299 N 
ATOM     11  C   UNL     1      -1.063  -8.082   0.484  0.00  0.00    +0.126 C 
ATOM     12  C   UNL     1      -0.121  -7.074   1.144  0.00  0.00    +0.124 C 
ATOM     13  C   UNL     1      -1.352 -10.363   1.323  0.00  0.00    +0.213 C 
ATOM     14  O   UNL     1      -1.639 -11.136   2.212  0.00  0.00    -0.276 OA
ATOM     15  C   UNL     1      -0.808 -10.884   0.018  0.00  0.00    +0.109 C 
ENDBRANCH   3   7
BRANCH   1  20
ATOM     16  C   UNL     1       0.547   2.022  -0.305  0.00  0.00    +0.007 C 
ATOM     17  C   UNL     1       0.573   0.493  -0.253  0.00  0.00    -0.011 C 
ATOM     18  C   UNL     1      -0.861  -0.042  -0.277  0.00  0.00    +0.022 C 
ATOM     19  C   UNL     1      -0.830  -1.573  -0.260  0.00  0.00    +0.105 C 
ATOM     20  N   UNL     1      -0.039  -2.018   0.896  0.00  0.00    -0.328 N 
ATOM     21  C   UNL     1       1.323  -1.492   1.065  0.00  0.00    +0.105 C 
ATOM     22  C   UNL     1       1.268   0.039   1.033  0.00  0.00    +0.022 C 
ENDBRANCH   1  20
BRANCH   6  23
ATOM     23  N   UNL     1      -1.446  -1.078   3.124  0.00  0.00    -0.279 N 
ATOM     24  C   UNL     1      -2.497  -0.623   3.835  0.00  0.00    +0.265 C 
ATOM     25  O   UNL     1      -3.256  -1.409   4.370  0.00  0.00    -0.268 OA
ATOM     26  H   UNL     1      -0.808  -0.452   2.747  0.00  0.00    +0.155 HD
BRANCH  24  27
ATOM     27  C   UNL     1      -2.725   0.822   3.964  0.00  0.00    +0.103 A 
ATOM     28  C   UNL     1      -3.743   1.411   4.655  0.00  0.00    +0.051 A 
ATOM     29  C   UNL     1      -3.583   2.808   4.516  0.00  0.00    +0.070 A 
ATOM     30  C   UNL     1      -2.461   3.013   3.736  0.00  0.00    +0.102 A 
ATOM     31  N   UNL     1      -1.946   1.814   3.412  0.00  0.00    -0.356 N 
ATOM     32  H   UNL     1      -1.153   1.671   2.872  0.00  0.00    +0.166 HD
BRANCH  29  33
ATOM     33  C   UNL     1      -4.426   3.820   5.078  0.00  0.00    +0.101 C 
ATOM     34  N   UNL     1      -5.094   4.624   5.524  0.00  0.00    -0.191 NA
ENDBRANCH  29  33
ENDBRANCH  24  27
ENDBRANCH   6  23
TORSDOF 5
