REMARK  Name = CHEMBL401738
REMARK  3 active torsions:
REMARK  status: ('A' for Active; 'I' for Inactive)
REMARK    1  A    between atoms: C_1  and  C_2
REMARK    2  A    between atoms: C_4  and  C_8
REMARK    3  A    between atoms: C_9  and  C_21
REMARK                            x       y       z     vdW  Elec       q    Type
REMARK                         _______ _______ _______ _____ _____    ______ ____
ROOT
ATOM      1  C   UNL     1       0.040  -3.319  -1.581  0.00  0.00    +0.072 A 
ATOM      2  C   UNL     1      -1.039  -4.202  -1.582  0.00  0.00    +0.006 A 
ATOM      3  C   UNL     1      -0.976  -5.378  -2.462  0.00  0.00    +0.008 A 
ATOM      4  C   UNL     1      -2.033  -6.293  -2.501  0.00  0.00    +0.030 A 
ATOM      5  C   UNL     1      -1.957  -7.388  -3.333  0.00  0.00    +0.042 A 
ATOM      6  C   UNL     1      -0.837  -7.586  -4.130  0.00  0.00    +0.022 A 
ATOM      7  C   UNL     1       0.211  -6.693  -4.103  0.00  0.00    +0.028 A 
ATOM      8  C   UNL     1       0.156  -5.579  -3.270  0.00  0.00    +0.050 A 
ATOM      9  N   UNL     1       1.205  -4.681  -3.241  0.00  0.00    -0.322 N 
ATOM     10  H   UNL     1       1.977  -4.839  -3.807  0.00  0.00    +0.169 HD
ATOM     11  C   UNL     1       1.183  -3.593  -2.454  0.00  0.00    +0.259 A 
ATOM     12  O   UNL     1       2.129  -2.825  -2.464  0.00  0.00    -0.267 OA
ATOM     13 CL   UNL     1      -3.266  -8.527  -3.384  0.00  0.00    -0.084 Cl
ENDROOT
BRANCH   1  17
ATOM     14  C   UNL     1      -0.018   1.503   0.010  0.00  0.00    +0.067 C 
ATOM     15  C   UNL     1       0.002  -0.004   0.002  0.00  0.00    +0.060 A 
ATOM     16  C   UNL     1       0.008  -0.810  -1.135  0.00  0.00    +0.052 A 
ATOM     17  C   UNL     1       0.029  -2.124  -0.717  0.00  0.00    +0.072 A 
ATOM     18  N   UNL     1       0.035  -2.110   0.648  0.00  0.00    -0.277 N 
ATOM     19  H   UNL     1       0.049  -2.888   1.228  0.00  0.00    +0.189 HD
ATOM     20  N   UNL     1       0.023  -0.772   1.061  0.00  0.00    -0.179 NA
ENDBRANCH   1  17
BRANCH   2  21
ATOM     21  C   UNL     1      -2.215  -3.962  -0.720  0.00  0.00    -0.016 A 
ATOM     22  C   UNL     1      -2.084  -3.993   0.670  0.00  0.00    +0.008 A 
ATOM     23  C   UNL     1      -3.186  -3.768   1.469  0.00  0.00    +0.001 A 
ATOM     24  C   UNL     1      -4.419  -3.513   0.895  0.00  0.00    +0.000 A 
ATOM     25  C   UNL     1      -4.556  -3.481  -0.481  0.00  0.00    +0.001 A 
ATOM     26  C   UNL     1      -3.461  -3.697  -1.292  0.00  0.00    +0.008 A 
ENDBRANCH   2  21
TORSDOF 2
