REMARK  Name = CHEMBL481423
REMARK  7 active torsions:
REMARK  status: ('A' for Active; 'I' for Inactive)
REMARK    1  A    between atoms: C_1  and  N_2
REMARK    2  A    between atoms: N_5  and  C_8
REMARK    3  A    between atoms: C_13  and  O_14
REMARK    4  A    between atoms: O_14  and  C_15
REMARK    5  A    between atoms: C_18  and  C_29
REMARK    6  A    between atoms: C_19  and  N_20
REMARK    7  A    between atoms: N_20  and  C_21
REMARK                            x       y       z     vdW  Elec       q    Type
REMARK                         _______ _______ _______ _____ _____    ______ ____
ROOT
ATOM      1  C   UNL     1      -4.458  -5.995   0.108  0.00  0.00    +0.073 A 
ATOM      2  C   UNL     1      -3.199  -6.537   0.242  0.00  0.00    +0.038 A 
ATOM      3  C   UNL     1      -2.639  -6.687   1.519  0.00  0.00    +0.024 A 
ATOM      4  C   UNL     1      -3.369  -6.282   2.663  0.00  0.00    +0.076 A 
ATOM      5  C   UNL     1      -4.650  -5.733   2.501  0.00  0.00    +0.076 A 
ATOM      6  C   UNL     1      -5.180  -5.588   1.240  0.00  0.00    +0.143 A 
ATOM      7  N   UNL     1      -2.837  -6.423   3.887  0.00  0.00    -0.254 NA
ATOM      8  C   UNL     1      -1.646  -6.930   4.072  0.00  0.00    +0.126 A 
ATOM      9  C   UNL     1      -0.852  -7.358   2.996  0.00  0.00    +0.076 A 
ATOM     10  C   UNL     1      -1.348  -7.240   1.688  0.00  0.00    +0.054 A 
ENDROOT
BRANCH   1  15
ATOM     11  C   UNL     1      -8.179  -4.844  -3.717  0.00  0.00    -0.096 C 
ATOM     12  N   UNL     1      -6.887  -5.269  -3.161  0.00  0.00    +0.380 N 
ATOM     13  C   UNL     1      -7.089  -6.443  -2.303  0.00  0.00    -0.060 C 
ATOM     14  C   UNL     1      -5.730  -6.956  -1.814  0.00  0.00    +0.086 C 
ATOM     15  N   UNL     1      -5.018  -5.845  -1.165  0.00  0.00    -0.331 N 
ATOM     16  C   UNL     1      -4.911  -4.571  -1.893  0.00  0.00    +0.086 C 
ATOM     17  C   UNL     1      -6.309  -4.170  -2.377  0.00  0.00    -0.060 C 
ATOM     18  H   UNL     1      -6.261  -5.509  -3.914  0.00  0.00    -0.082 HD
ENDBRANCH   1  15
BRANCH   9  19
ATOM     19  C   UNL     1       0.484  -7.924   3.236  0.00  0.00    +0.245 C 
ATOM     20  O   UNL     1       1.200  -8.214   2.296  0.00  0.00    -0.270 OA
ATOM     21  N   UNL     1       0.916  -8.120   4.497  0.00  0.00    -0.325 N 
ATOM     22  H   UNL     1       0.346  -7.888   5.247  0.00  0.00    +0.145 HD
ATOM     23  H   UNL     1       1.798  -8.493   4.656  0.00  0.00    +0.145 HD
ENDBRANCH   9  19
BRANCH   6  24
ATOM     24  O   UNL     1      -6.418  -5.050   1.090  0.00  0.00    -0.493 OA
ATOM     25  C   UNL     1      -7.103  -4.655   2.280  0.00  0.00    +0.277 C 
ENDBRANCH   6  24
BRANCH  10  26
ATOM     26  N   UNL     1      -0.601  -7.648   0.604  0.00  0.00    -0.313 N 
ATOM     27  H   UNL     1      -0.660  -8.565   0.291  0.00  0.00    +0.152 HD
BRANCH  26  28
ATOM     28  C   UNL     1       0.243  -6.742  -0.045  0.00  0.00    +0.033 A 
ATOM     29  C   UNL     1       0.420  -5.464   0.471  0.00  0.00    +0.025 A 
ATOM     30  C   UNL     1       1.253  -4.570  -0.172  0.00  0.00    +0.023 A 
ATOM     31  C   UNL     1       1.912  -4.945  -1.330  0.00  0.00    +0.059 A 
ATOM     32  C   UNL     1       1.737  -6.218  -1.847  0.00  0.00    +0.061 A 
ATOM     33  C   UNL     1       0.909  -7.118  -1.204  0.00  0.00    +0.044 A 
ATOM     34 CL   UNL     1       2.565  -6.684  -3.300  0.00  0.00    -0.082 Cl
ATOM     35 CL   UNL     1       2.959  -3.818  -2.135  0.00  0.00    -0.082 Cl
ENDBRANCH  26  28
ENDBRANCH  10  26
TORSDOF 5
