REMARK  Name = CHEMBL272332
REMARK  5 active torsions:
REMARK  status: ('A' for Active; 'I' for Inactive)
REMARK    1  A    between atoms: C_1  and  N_2
REMARK    2  A    between atoms: N_5  and  C_8
REMARK    3  A    between atoms: C_11  and  N_14
REMARK    4  A    between atoms: C_21  and  C_32
REMARK    5  A    between atoms: N_23  and  C_26
REMARK                            x       y       z     vdW  Elec       q    Type
REMARK                         _______ _______ _______ _____ _____    ______ ____
ROOT
ATOM      1  N   UNL     1      -2.349  -6.678   4.248  0.00  0.00    -0.284 N 
ATOM      2  C   UNL     1      -1.540  -7.170   5.253  0.00  0.00    +0.221 A 
ATOM      3  N   UNL     1      -0.375  -6.575   5.485  0.00  0.00    -0.222 NA
ATOM      4  C   UNL     1       0.434  -7.009   6.436  0.00  0.00    +0.129 A 
ATOM      5  C   UNL     1       0.037  -8.110   7.196  0.00  0.00    +0.083 A 
ATOM      6  C   UNL     1       0.874  -8.657   8.273  0.00  0.00    +0.204 A 
ATOM      7  O   UNL     1       1.956  -8.169   8.548  0.00  0.00    -0.286 OA
ATOM      8  C   UNL     1       0.346  -9.822   9.005  0.00  0.00    +0.100 A 
ATOM      9  C   UNL     1      -0.884 -10.330   8.648  0.00  0.00    +0.104 A 
ATOM     10  N   UNL     1      -1.619  -9.801   7.657  0.00  0.00    -0.328 N 
ATOM     11  C   UNL     1      -1.206  -8.718   6.925  0.00  0.00    +0.150 A 
ATOM     12  N   UNL     1      -1.959  -8.214   5.953  0.00  0.00    -0.196 NA
ATOM     13  H   UNL     1      -3.239  -7.041   4.120  0.00  0.00    +0.155 HD
ENDROOT
BRANCH   1  17
ATOM     14  C   UNL     1      -0.964  -3.630   1.762  0.00  0.00    +0.030 A 
ATOM     15  C   UNL     1      -0.083  -4.594   2.235  0.00  0.00    +0.025 A 
ATOM     16  C   UNL     1      -0.542  -5.603   3.058  0.00  0.00    +0.025 A 
ATOM     17  C   UNL     1      -1.883  -5.654   3.413  0.00  0.00    +0.034 A 
ATOM     18  C   UNL     1      -2.764  -4.690   2.940  0.00  0.00    +0.025 A 
ATOM     19  C   UNL     1      -2.304  -3.678   2.121  0.00  0.00    +0.025 A 
BRANCH  14  24
ATOM     20  C   UNL     1       0.521  -1.082  -2.833  0.00  0.00    -0.096 C 
ATOM     21  N   UNL     1       0.273  -1.260  -1.396  0.00  0.00    +0.380 N 
ATOM     22  C   UNL     1       1.107  -2.356  -0.888  0.00  0.00    -0.060 C 
ATOM     23  C   UNL     1       0.935  -2.466   0.630  0.00  0.00    +0.086 C 
ATOM     24  N   UNL     1      -0.499  -2.607   0.927  0.00  0.00    -0.333 N 
ATOM     25  C   UNL     1      -1.430  -1.643   0.322  0.00  0.00    +0.086 C 
ATOM     26  C   UNL     1      -1.146  -1.571  -1.182  0.00  0.00    -0.060 C 
ATOM     27  H   UNL     1       0.507  -0.408  -0.908  0.00  0.00    -0.082 HD
ENDBRANCH  14  24
ENDBRANCH   1  17
BRANCH  10  28
ATOM     28  C   UNL     1      -2.917 -10.406   7.345  0.00  0.00    +0.089 C 
ATOM     29  C   UNL     1      -3.820 -10.338   8.578  0.00  0.00    +0.025 C 
ATOM     30  C   UNL     1      -5.175 -10.969   8.252  0.00  0.00    +0.002 C 
ATOM     31  C   UNL     1      -4.973 -12.431   7.848  0.00  0.00    +0.000 C 
ATOM     32  C   UNL     1      -4.069 -12.499   6.615  0.00  0.00    +0.002 C 
ATOM     33  C   UNL     1      -2.714 -11.867   6.941  0.00  0.00    +0.025 C 
ENDBRANCH  10  28
BRANCH   8  34
ATOM     34  C   UNL     1       1.120 -10.433  10.097  0.00  0.00    +0.247 C 
ATOM     35  O   UNL     1       0.634 -11.331  10.758  0.00  0.00    -0.270 OA
ATOM     36  N   UNL     1       2.366  -9.998  10.365  0.00  0.00    -0.325 N 
ATOM     37  H   UNL     1       2.727  -9.234   9.888  0.00  0.00    +0.145 HD
ATOM     38  H   UNL     1       2.904 -10.448  11.036  0.00  0.00    +0.145 HD
ENDBRANCH   8  34
TORSDOF 4
