REMARK  Name = CHEMBL253027
REMARK  5 active torsions:
REMARK  status: ('A' for Active; 'I' for Inactive)
REMARK    1  A    between atoms: C_3  and  N_18
REMARK    2  A    between atoms: C_4  and  N_12
REMARK    3  A    between atoms: C_6  and  N_7
REMARK    4  A    between atoms: C_19  and  C_21
REMARK    5  A    between atoms: C_24  and  C_26
REMARK                            x       y       z     vdW  Elec       q    Type
REMARK                         _______ _______ _______ _____ _____    ______ ____
ROOT
ATOM      1  C   UNL     1      -0.020   1.400   0.031  0.00  0.00    +0.028 A 
ATOM      2  C   UNL     1       1.169   2.105   0.015  0.00  0.00    +0.027 A 
ATOM      3  C   UNL     1       2.378   1.427  -0.004  0.00  0.00    +0.055 A 
ATOM      4  C   UNL     1       2.394   0.031  -0.006  0.00  0.00    +0.053 A 
ATOM      5  C   UNL     1       1.200  -0.673   0.011  0.00  0.00    +0.051 A 
ATOM      6  C   UNL     1      -0.007   0.012   0.029  0.00  0.00    +0.049 A 
ENDROOT
BRANCH   4   7
ATOM      7  N   UNL     1       3.612  -0.656  -0.026  0.00  0.00    -0.328 N 
ATOM      8  C   UNL     1       4.281  -1.030   1.228  0.00  0.00    +0.105 C 
ATOM      9  C   UNL     1       4.571  -2.534   1.201  0.00  0.00    +0.019 C 
ATOM     10  C   UNL     1       5.366  -2.875  -0.061  0.00  0.00    +0.003 C 
ATOM     11  C   UNL     1       4.538  -2.521  -1.299  0.00  0.00    +0.019 C 
ATOM     12  C   UNL     1       4.245  -1.022  -1.301  0.00  0.00    +0.105 C 
ENDBRANCH   4   7
BRANCH   6  13
ATOM     13  N   UNL     1      -1.216  -0.700   0.046  0.00  0.00    -0.306 N 
ATOM     14  C   UNL     1      -2.478  -0.164   0.060  0.00  0.00    +0.112 A 
ATOM     15  C   UNL     1      -3.341  -1.197   0.074  0.00  0.00    +0.130 A 
ATOM     16  N   UNL     1      -2.632  -2.335   0.068  0.00  0.00    -0.244 NA
ATOM     17  C   UNL     1      -1.358  -2.051   0.046  0.00  0.00    +0.204 A 
ENDBRANCH   6  13
BRANCH   3  18
ATOM     18  N   UNL     1       3.583   2.142  -0.022  0.00  0.00    -0.277 N 
ATOM     19  C   UNL     1       3.663   3.312  -0.686  0.00  0.00    +0.284 C 
ATOM     20  O   UNL     1       2.668   3.787  -1.202  0.00  0.00    -0.266 OA
ATOM     21  H   UNL     1       4.360   1.795   0.444  0.00  0.00    +0.155 HD
BRANCH  19  22
ATOM     22  C   UNL     1       4.950   4.013  -0.788  0.00  0.00    +0.191 A 
ATOM     23  C   UNL     1       5.162   5.203  -1.426  0.00  0.00    +0.056 A 
ATOM     24  C   UNL     1       6.521   5.508  -1.282  0.00  0.00    +0.061 A 
ATOM     25  C   UNL     1       7.084   4.482  -0.556  0.00  0.00    +0.205 A 
ATOM     26  O   UNL     1       6.117   3.593  -0.264  0.00  0.00    -0.440 OA
BRANCH  25  27
ATOM     27  C   UNL     1       8.461   4.382  -0.174  0.00  0.00    +0.138 C 
ATOM     28  N   UNL     1       9.553   4.302   0.129  0.00  0.00    -0.188 NA
ENDBRANCH  25  27
ENDBRANCH  19  22
ENDBRANCH   3  18
TORSDOF 5
