REMARK  Name = CHEMBL249137
REMARK  6 active torsions:
REMARK  status: ('A' for Active; 'I' for Inactive)
REMARK    1  A    between atoms: C_4  and  N_7
REMARK    2  A    between atoms: N_7  and  C_8
REMARK    3  A    between atoms: C_12  and  C_21
REMARK    4  A    between atoms: C_17  and  C_18
REMARK    5  A    between atoms: C_24  and  C_27
REMARK    6  A    between atoms: C_27  and  C_29
REMARK                            x       y       z     vdW  Elec       q    Type
REMARK                         _______ _______ _______ _____ _____    ______ ____
ROOT
ATOM      1  C   UNL     1       3.637  -2.023  -0.147  0.00  0.00    +0.054 A 
ATOM      2  C   UNL     1       4.805  -2.767   0.150  0.00  0.00    +0.022 A 
ATOM      3  C   UNL     1       5.980  -2.127   0.570  0.00  0.00    +0.012 A 
ATOM      4  C   UNL     1       7.090  -2.861   0.851  0.00  0.00    +0.009 A 
ATOM      5  C   UNL     1       7.074  -4.258   0.726  0.00  0.00    -0.016 A 
ATOM      6  C   UNL     1       5.927  -4.915   0.314  0.00  0.00    +0.037 A 
ATOM      7  C   UNL     1       4.773  -4.176   0.020  0.00  0.00    +0.073 A 
ATOM      8  N   UNL     1       3.651  -4.792  -0.381  0.00  0.00    -0.254 NA
ATOM      9  C   UNL     1       2.558  -4.130  -0.662  0.00  0.00    +0.126 A 
ATOM     10  C   UNL     1       2.497  -2.731  -0.556  0.00  0.00    +0.076 A 
ENDROOT
BRANCH   5  11
ATOM     11  C   UNL     1       8.295  -5.038   1.038  0.00  0.00    -0.018 A 
ATOM     12  C   UNL     1       8.286  -6.428   0.910  0.00  0.00    +0.009 A 
ATOM     13  C   UNL     1       9.415  -7.151   1.198  0.00  0.00    +0.012 A 
ATOM     14  C   UNL     1      10.577  -6.495   1.621  0.00  0.00    +0.018 A 
ATOM     15  C   UNL     1      10.584  -5.101   1.748  0.00  0.00    +0.012 A 
ATOM     16  C   UNL     1       9.454  -4.381   1.454  0.00  0.00    +0.009 A 
BRANCH  14  17
ATOM     17  C   UNL     1      11.788  -7.269   1.931  0.00  0.00    +0.166 C 
ATOM     18  O   UNL     1      11.781  -8.476   1.821  0.00  0.00    -0.292 OA
BRANCH  17  19
ATOM     19  C   UNL     1      13.038  -6.561   2.386  0.00  0.00    +0.060 C 
ATOM     20  C   UNL     1      13.873  -7.233   3.478  0.00  0.00    +0.012 C 
ATOM     21  C   UNL     1      14.382  -7.204   2.036  0.00  0.00    +0.012 C 
ENDBRANCH  17  19
ENDBRANCH  14  17
ENDBRANCH   5  11
BRANCH  10  22
ATOM     22  C   UNL     1       1.251  -2.015  -0.874  0.00  0.00    +0.245 C 
ATOM     23  O   UNL     1       1.231  -0.799  -0.873  0.00  0.00    -0.270 OA
ATOM     24  N   UNL     1       0.131  -2.707  -1.166  0.00  0.00    -0.325 N 
ATOM     25  H   UNL     1       0.147  -3.677  -1.167  0.00  0.00    +0.145 HD
ATOM     26  H   UNL     1      -0.690  -2.235  -1.376  0.00  0.00    +0.145 HD
ENDBRANCH  10  22
BRANCH   1  27
ATOM     27  N   UNL     1       3.619  -0.650  -0.035  0.00  0.00    -0.313 N 
ATOM     28  H   UNL     1       3.341  -0.235   0.797  0.00  0.00    +0.152 HD
BRANCH  27  32
ATOM     29  C   UNL     1       4.761   1.719  -3.264  0.00  0.00    +0.000 A 
ATOM     30  C   UNL     1       4.491   2.305  -2.040  0.00  0.00    +0.002 A 
ATOM     31  C   UNL     1       4.112   1.522  -0.967  0.00  0.00    +0.023 A 
ATOM     32  C   UNL     1       4.002   0.145  -1.118  0.00  0.00    +0.031 A 
ATOM     33  C   UNL     1       4.274  -0.439  -2.349  0.00  0.00    +0.023 A 
ATOM     34  C   UNL     1       4.653   0.349  -3.417  0.00  0.00    +0.002 A 
ENDBRANCH  27  32
ENDBRANCH   1  27
TORSDOF 6
