REMARK  Name = CHEMBL245769
REMARK  9 active torsions:
REMARK  status: ('A' for Active; 'I' for Inactive)
REMARK    1  A    between atoms: C_1  and  O_2
REMARK    2  A    between atoms: O_2  and  C_3
REMARK    3  A    between atoms: C_3  and  C_4
REMARK    4  A    between atoms: N_6  and  C_7
REMARK    5  A    between atoms: C_19  and  C_20
REMARK    6  A    between atoms: C_22  and  C_25
REMARK    7  A    between atoms: C_26  and  C_27
REMARK    8  A    between atoms: C_27  and  O_28
REMARK    9  A    between atoms: O_28  and  C_29
REMARK                            x       y       z     vdW  Elec       q    Type
REMARK                         _______ _______ _______ _____ _____    ______ ____
ROOT
ATOM      1  C   UNL     1       1.065  -4.235   1.865  0.00  0.00    +0.038 A 
ATOM      2  C   UNL     1       0.437  -4.793   0.757  0.00  0.00    +0.023 A 
ATOM      3  C   UNL     1       0.296  -6.165   0.659  0.00  0.00    +0.002 A 
ATOM      4  C   UNL     1       0.777  -6.989   1.656  0.00  0.00    +0.010 A 
ATOM      5  C   UNL     1       1.411  -6.439   2.774  0.00  0.00    +0.005 A 
ATOM      6  C   UNL     1       1.554  -5.056   2.865  0.00  0.00    -0.013 A 
ATOM      7  C   UNL     1       2.273  -4.771   4.161  0.00  0.00    +0.077 C 
ATOM      8  C   UNL     1       2.529  -6.118   4.792  0.00  0.00    +0.010 A 
ATOM      9  C   UNL     1       2.010  -7.072   3.970  0.00  0.00    +0.070 A 
ATOM     10  N   UNL     1       2.245  -8.285   4.554  0.00  0.00    -0.276 N 
ATOM     11  N   UNL     1       2.909  -8.059   5.766  0.00  0.00    -0.173 NA
ATOM     12  H   UNL     1       1.996  -9.150   4.193  0.00  0.00    +0.189 HD
ATOM     13  C   UNL     1       3.091  -6.763   5.906  0.00  0.00    +0.097 A 
ENDROOT
BRANCH  13  14
ATOM     14  C   UNL     1       3.756  -6.096   7.054  0.00  0.00    +0.011 A 
ATOM     15  C   UNL     1       3.642  -6.614   8.334  0.00  0.00    +0.034 A 
ATOM     16  C   UNL     1       4.272  -5.966   9.363  0.00  0.00    +0.063 A 
ATOM     17  S   UNL     1       5.047  -4.594   8.526  0.00  0.00    -0.088 S 
ATOM     18  C   UNL     1       4.497  -4.961   6.867  0.00  0.00    +0.056 A 
BRANCH  16  19
ATOM     19  C   UNL     1       4.301  -6.303  10.755  0.00  0.00    -0.056 C 
ATOM     20  C   UNL     1       4.324  -6.580  11.896  0.00  0.00    -0.056 C 
BRANCH  20  21
ATOM     21  C   UNL     1       4.354  -6.926  13.326  0.00  0.00    +0.318 C 
BRANCH  21  22
ATOM     22  O   UNL     1       5.138  -5.964  14.033  0.00  0.00    -0.480 OA
BRANCH  22  23
ATOM     23  C   UNL     1       5.268  -6.139  15.374  0.00  0.00    +0.122 A 
ATOM     24  C   UNL     1       4.658  -7.218  15.996  0.00  0.00    +0.046 A 
ATOM     25  C   UNL     1       4.791  -7.395  17.360  0.00  0.00    +0.004 A 
ATOM     26  C   UNL     1       5.532  -6.496  18.105  0.00  0.00    +0.000 A 
ATOM     27  C   UNL     1       6.141  -5.419  17.488  0.00  0.00    +0.004 A 
ATOM     28  C   UNL     1       6.016  -5.242  16.123  0.00  0.00    +0.046 A 
ENDBRANCH  22  23
ENDBRANCH  21  22
ENDBRANCH  20  21
ENDBRANCH  16  19
ENDBRANCH  13  14
BRANCH   1  31
ATOM     29  C   UNL     1       1.217  -2.088   0.850  0.00  0.00    +0.243 C 
ATOM     30  O   UNL     1       1.203  -2.615  -0.242  0.00  0.00    -0.273 OA
ATOM     31  N   UNL     1       1.208  -2.846   1.964  0.00  0.00    -0.283 N 
ATOM     32  H   UNL     1       1.300  -2.429   2.835  0.00  0.00    +0.155 HD
BRANCH  29  33
ATOM     33  C   UNL     1       1.245  -0.586   0.961  0.00  0.00    +0.255 C 
BRANCH  33  35
ATOM     34  C   UNL     1       1.276   1.418  -0.354  0.00  0.00    +0.194 C 
ATOM     35  O   UNL     1       1.250  -0.011  -0.347  0.00  0.00    -0.374 OA
ENDBRANCH  33  35
ENDBRANCH  29  33
ENDBRANCH   1  31
TORSDOF 8
