REMARK  Name = CHEMBL514153
REMARK  6 active torsions:
REMARK  status: ('A' for Active; 'I' for Inactive)
REMARK    1  A    between atoms: C_1  and  O_2
REMARK    2  A    between atoms: O_2  and  N_3
REMARK    3  A    between atoms: C_4  and  C_6
REMARK    4  A    between atoms: N_8  and  C_25
REMARK    5  A    between atoms: N_17  and  C_18
REMARK    6  A    between atoms: C_18  and  C_19
REMARK                            x       y       z     vdW  Elec       q    Type
REMARK                         _______ _______ _______ _____ _____    ______ ____
ROOT
ATOM      1  C   UNL     1       1.527  -2.513   2.331  0.00  0.00    +0.102 A 
ATOM      2  C   UNL     1       1.718  -3.876   2.396  0.00  0.00    +0.110 A 
ATOM      3  N   UNL     1       2.442  -4.454   3.370  0.00  0.00    -0.300 N 
ATOM      4  C   UNL     1       3.045  -3.734   4.371  0.00  0.00    +0.154 A 
ATOM      5  C   UNL     1       2.921  -2.330   4.411  0.00  0.00    +0.083 A 
ATOM      6  C   UNL     1       2.142  -1.657   3.361  0.00  0.00    +0.205 A 
ATOM      7  O   UNL     1       2.008  -0.446   3.346  0.00  0.00    -0.286 OA
ATOM      8  C   UNL     1       3.545  -1.622   5.439  0.00  0.00    +0.129 A 
ATOM      9  N   UNL     1       4.232  -2.298   6.342  0.00  0.00    -0.222 NA
ATOM     10  C   UNL     1       4.331  -3.622   6.278  0.00  0.00    +0.217 A 
ATOM     11  N   UNL     1       3.755  -4.333   5.321  0.00  0.00    -0.196 NA
ATOM     12  N   UNL     1       5.061  -4.280   7.247  0.00  0.00    -0.309 N 
ATOM     13  H   UNL     1       5.145  -5.246   7.217  0.00  0.00    +0.149 HD
ENDROOT
BRANCH   3  14
ATOM     14  C   UNL     1       2.587  -5.846   3.363  0.00  0.00    +0.048 A 
ATOM     15  C   UNL     1       3.292  -6.468   2.341  0.00  0.00    +0.026 A 
ATOM     16  C   UNL     1       3.432  -7.841   2.339  0.00  0.00    +0.006 A 
ATOM     17  C   UNL     1       2.872  -8.602   3.353  0.00  0.00    -0.044 A 
ATOM     18  C   UNL     1       2.169  -7.986   4.372  0.00  0.00    -0.042 A 
ATOM     19  C   UNL     1       2.031  -6.609   4.380  0.00  0.00    +0.030 A 
ATOM     20  C   UNL     1       1.662  -9.027   5.346  0.00  0.00    +0.036 C 
ATOM     21  C   UNL     1       1.752 -10.368   4.588  0.00  0.00    +0.009 C 
ATOM     22  C   UNL     1       2.885 -10.100   3.574  0.00  0.00    +0.036 C 
ENDBRANCH   3  14
BRANCH   1  24
ATOM     23  N   UNL     1       0.644  -0.581   1.125  0.00  0.00    -0.191 N 
ATOM     24  C   UNL     1       0.727  -1.920   1.247  0.00  0.00    +0.272 C 
ATOM     25  O   UNL     1       0.140  -2.640   0.461  0.00  0.00    -0.268 OA
ATOM     26  H   UNL     1       1.050  -0.007   1.794  0.00  0.00    +0.183 HD
BRANCH  23  28
ATOM     27  C   UNL     1      -0.044   1.418   0.019  0.00  0.00    +0.226 C 
ATOM     28  O   UNL     1      -0.034  -0.011   0.021  0.00  0.00    -0.283 OA
ENDBRANCH  23  28
ENDBRANCH   1  24
BRANCH  12  29
ATOM     29  C   UNL     1       5.710  -3.520   8.318  0.00  0.00    +0.139 C 
BRANCH  29  30
ATOM     30  C   UNL     1       6.437  -4.468   9.237  0.00  0.00    -0.030 A 
ATOM     31  C   UNL     1       5.783  -5.013  10.326  0.00  0.00    +0.005 A 
ATOM     32  C   UNL     1       6.451  -5.883  11.168  0.00  0.00    +0.000 A 
ATOM     33  C   UNL     1       7.771  -6.207  10.921  0.00  0.00    +0.000 A 
ATOM     34  C   UNL     1       8.425  -5.663   9.831  0.00  0.00    +0.000 A 
ATOM     35  C   UNL     1       7.756  -4.797   8.986  0.00  0.00    +0.005 A 
ENDBRANCH  29  30
ENDBRANCH  12  29
TORSDOF 5
