REMARK  Name = CHEMBL250161
REMARK  5 active torsions:
REMARK  status: ('A' for Active; 'I' for Inactive)
REMARK    1  A    between atoms: C_4  and  N_7
REMARK    2  A    between atoms: N_7  and  C_8
REMARK    3  A    between atoms: C_12  and  C_21
REMARK    4  A    between atoms: C_17  and  C_18
REMARK    5  A    between atoms: C_24  and  C_27
REMARK                            x       y       z     vdW  Elec       q    Type
REMARK                         _______ _______ _______ _____ _____    ______ ____
ROOT
ATOM      1  C   UNL     1       3.673  -1.994  -0.217  0.00  0.00    +0.054 A 
ATOM      2  C   UNL     1       4.835  -2.742   0.090  0.00  0.00    +0.020 A 
ATOM      3  C   UNL     1       6.055  -2.103   0.358  0.00  0.00    +0.012 A 
ATOM      4  C   UNL     1       7.159  -2.841   0.651  0.00  0.00    +0.009 A 
ATOM      5  C   UNL     1       7.093  -4.242   0.691  0.00  0.00    -0.016 A 
ATOM      6  C   UNL     1       5.902  -4.898   0.430  0.00  0.00    +0.034 A 
ATOM      7  C   UNL     1       4.753  -4.154   0.126  0.00  0.00    +0.049 A 
ATOM      8  N   UNL     1       3.588  -4.770  -0.128  0.00  0.00    -0.360 N 
ATOM      9  C   UNL     1       2.500  -4.104  -0.415  0.00  0.00    +0.098 A 
ATOM     10  C   UNL     1       2.488  -2.701  -0.468  0.00  0.00    +0.074 A 
ATOM     11  H   UNL     1       3.553  -5.739  -0.098  0.00  0.00    +0.165 HD
ENDROOT
BRANCH   5  12
ATOM     12  C   UNL     1       8.309  -5.027   1.013  0.00  0.00    -0.018 A 
ATOM     13  C   UNL     1       8.251  -6.420   1.048  0.00  0.00    +0.009 A 
ATOM     14  C   UNL     1       9.379  -7.150   1.347  0.00  0.00    +0.013 A 
ATOM     15  C   UNL     1      10.583  -6.494   1.616  0.00  0.00    +0.037 A 
ATOM     16  C   UNL     1      10.640  -5.099   1.581  0.00  0.00    +0.013 A 
ATOM     17  C   UNL     1       9.512  -4.371   1.276  0.00  0.00    +0.009 A 
BRANCH  15  18
ATOM     18  C   UNL     1      11.794  -7.276   1.938  0.00  0.00    +0.247 C 
ATOM     19  O   UNL     1      11.967  -8.367   1.430  0.00  0.00    -0.270 OA
ATOM     20  N   UNL     1      12.708  -6.780   2.796  0.00  0.00    -0.298 N 
ATOM     21  C   UNL     1      12.455  -5.525   3.516  0.00  0.00    +0.108 C 
ATOM     22  C   UNL     1      12.643  -5.771   5.017  0.00  0.00    +0.019 C 
ATOM     23  C   UNL     1      14.031  -6.367   5.262  0.00  0.00    +0.003 C 
ATOM     24  C   UNL     1      14.147  -7.708   4.535  0.00  0.00    +0.019 C 
ATOM     25  C   UNL     1      13.974  -7.488   3.033  0.00  0.00    +0.108 C 
ENDBRANCH  15  18
ENDBRANCH   5  12
BRANCH  10  26
ATOM     26  C   UNL     1       1.245  -1.980  -0.787  0.00  0.00    +0.245 C 
ATOM     27  O   UNL     1       1.263  -0.772  -0.933  0.00  0.00    -0.270 OA
ATOM     28  N   UNL     1       0.087  -2.657  -0.918  0.00  0.00    -0.325 N 
ATOM     29  H   UNL     1       0.072  -3.620  -0.801  0.00  0.00    +0.145 HD
ATOM     30  H   UNL     1      -0.732  -2.182  -1.128  0.00  0.00    +0.145 HD
ENDBRANCH  10  26
BRANCH   1  31
ATOM     31  N   UNL     1       3.704  -0.617  -0.264  0.00  0.00    -0.313 N 
ATOM     32  H   UNL     1       3.511  -0.101   0.534  0.00  0.00    +0.152 HD
BRANCH  31  36
ATOM     33  C   UNL     1       4.627   1.326  -3.830  0.00  0.00    +0.000 A 
ATOM     34  C   UNL     1       4.450   2.059  -2.670  0.00  0.00    +0.002 A 
ATOM     35  C   UNL     1       4.144   1.418  -1.486  0.00  0.00    +0.023 A 
ATOM     36  C   UNL     1       4.013   0.035  -1.460  0.00  0.00    +0.031 A 
ATOM     37  C   UNL     1       4.191  -0.698  -2.627  0.00  0.00    +0.023 A 
ATOM     38  C   UNL     1       4.498  -0.051  -3.808  0.00  0.00    +0.002 A 
ENDBRANCH  31  36
ENDBRANCH   1  31
TORSDOF 5
