REMARK  Name = CHEMBL255443
REMARK  6 active torsions:
REMARK  status: ('A' for Active; 'I' for Inactive)
REMARK    1  A    between atoms: C_1  and  C_2
REMARK    2  A    between atoms: N_5  and  C_8
REMARK    3  A    between atoms: C_10  and  C_24
REMARK    4  A    between atoms: C_13  and  N_14
REMARK    5  A    between atoms: C_15  and  C_17
REMARK    6  A    between atoms: C_20  and  C_22
REMARK                            x       y       z     vdW  Elec       q    Type
REMARK                         _______ _______ _______ _____ _____    ______ ____
ROOT
ATOM      1  C   UNL     1      -1.095  -3.501   1.981  0.00  0.00    +0.052 A 
ATOM      2  C   UNL     1      -0.947  -4.855   1.735  0.00  0.00    +0.033 A 
ATOM      3  C   UNL     1      -1.458  -5.785   2.641  0.00  0.00    -0.020 A 
ATOM      4  C   UNL     1      -2.116  -5.348   3.791  0.00  0.00    +0.010 A 
ATOM      5  C   UNL     1      -2.262  -3.998   4.033  0.00  0.00    +0.026 A 
ATOM      6  C   UNL     1      -1.750  -3.070   3.136  0.00  0.00    +0.055 A 
ENDROOT
BRANCH   3   7
ATOM      7  C   UNL     1      -1.302  -7.232   2.382  0.00  0.00    -0.048 C 
ATOM      8  C   UNL     1      -0.092  -7.750   2.379  0.00  0.00    -0.042 C 
ATOM      9  C   UNL     1       0.173  -9.205   2.122  0.00  0.00    -0.055 C 
ATOM     10  N   UNL     1      -1.053  -9.990   2.313  0.00  0.00    +0.382 N 
ATOM     11  C   UNL     1      -2.131  -9.398   1.506  0.00  0.00    -0.078 C 
ATOM     12  C   UNL     1      -2.533  -8.061   2.138  0.00  0.00    +0.016 C 
ATOM     13  H   UNL     1      -0.893 -10.941   2.019  0.00  0.00    -0.085 HD
ATOM     14  H   UNL     1      -1.314  -9.976   3.288  0.00  0.00    -0.085 HD
ENDBRANCH   3   7
BRANCH   1  19
ATOM     15  C   UNL     1       0.010   1.513   0.015  0.00  0.00    +0.007 C 
ATOM     16  C   UNL     1       0.019  -0.017   0.005  0.00  0.00    -0.011 C 
ATOM     17  C   UNL     1      -1.422  -0.534   0.013  0.00  0.00    +0.022 C 
ATOM     18  C   UNL     1      -1.410  -2.066  -0.032  0.00  0.00    +0.105 C 
ATOM     19  N   UNL     1      -0.583  -2.565   1.075  0.00  0.00    -0.328 N 
ATOM     20  C   UNL     1       0.790  -2.062   1.214  0.00  0.00    +0.105 C 
ATOM     21  C   UNL     1       0.754  -0.531   1.245  0.00  0.00    +0.022 C 
ENDBRANCH   1  19
BRANCH   6  22
ATOM     22  N   UNL     1      -1.895  -1.702   3.388  0.00  0.00    -0.277 N 
ATOM     23  C   UNL     1      -2.054  -1.262   4.652  0.00  0.00    +0.284 C 
ATOM     24  O   UNL     1      -1.970  -2.042   5.582  0.00  0.00    -0.266 OA
ATOM     25  H   UNL     1      -1.882  -1.069   2.652  0.00  0.00    +0.155 HD
BRANCH  23  26
ATOM     26  C   UNL     1      -2.327   0.159   4.907  0.00  0.00    +0.191 A 
ATOM     27  C   UNL     1      -2.502   0.730   6.136  0.00  0.00    +0.056 A 
ATOM     28  C   UNL     1      -2.738   2.093   5.925  0.00  0.00    +0.061 A 
ATOM     29  C   UNL     1      -2.698   2.298   4.563  0.00  0.00    +0.205 A 
ATOM     30  O   UNL     1      -2.442   1.118   3.968  0.00  0.00    -0.440 OA
BRANCH  29  31
ATOM     31  C   UNL     1      -2.888   3.551   3.896  0.00  0.00    +0.138 C 
ATOM     32  N   UNL     1      -3.039   4.545   3.367  0.00  0.00    -0.188 NA
ENDBRANCH  29  31
ENDBRANCH  23  26
ENDBRANCH   6  22
TORSDOF 5
