REMARK  Name = CHEMBL1088599
REMARK  7 active torsions:
REMARK  status: ('A' for Active; 'I' for Inactive)
REMARK    1  A    between atoms: C_4  and  C_8
REMARK    2  A    between atoms: C_8  and  O_9
REMARK    3  A    between atoms: O_9  and  C_10
REMARK    4  A    between atoms: C_14  and  C_16
REMARK    5  A    between atoms: C_19  and  C_22
REMARK    6  A    between atoms: C_28  and  C_30
REMARK    7  A    between atoms: C_30  and  N_31
REMARK                            x       y       z     vdW  Elec       q    Type
REMARK                         _______ _______ _______ _____ _____    ______ ____
ROOT
ATOM      1  C   UNL     1       7.155  -2.814  -0.657  0.00  0.00    +0.002 A 
ATOM      2  C   UNL     1       8.269  -3.571  -0.294  0.00  0.00    +0.011 A 
ATOM      3  C   UNL     1       9.198  -3.930  -1.244  0.00  0.00    +0.014 A 
ATOM      4  C   UNL     1       9.025  -3.536  -2.573  0.00  0.00    +0.037 A 
ATOM      5  C   UNL     1       7.909  -2.777  -2.936  0.00  0.00    +0.014 A 
ATOM      6  C   UNL     1       6.979  -2.424  -1.986  0.00  0.00    +0.011 A 
ENDROOT
BRANCH   1  11
ATOM      7  C   UNL     1       4.199  -1.365   0.931  0.00  0.00    +0.257 A 
ATOM      8  C   UNL     1       4.379  -1.758   2.265  0.00  0.00    +0.179 A 
ATOM      9  N   UNL     1       5.441  -2.473   2.606  0.00  0.00    -0.234 NA
ATOM     10  C   UNL     1       6.331  -2.816   1.690  0.00  0.00    +0.141 A 
ATOM     11  C   UNL     1       6.156  -2.428   0.366  0.00  0.00    +0.093 A 
ATOM     12  N   UNL     1       5.086  -1.713   0.017  0.00  0.00    -0.208 NA
ATOM     13  N   UNL     1       3.445  -1.397   3.228  0.00  0.00    -0.339 N 
ATOM     14  H   UNL     1       2.668  -0.874   2.978  0.00  0.00    +0.144 HD
ATOM     15  H   UNL     1       3.570  -1.669   4.151  0.00  0.00    +0.144 HD
BRANCH   7  16
ATOM     16  O   UNL     1       3.112  -0.632   0.579  0.00  0.00    -0.469 OA
BRANCH  16  17
ATOM     17  C   UNL     1       2.990  -0.273  -0.798  0.00  0.00    +0.269 C 
BRANCH  17  21
ATOM     18  C   UNL     1      -0.578   2.010  -1.366  0.00  0.00    +0.003 A 
ATOM     19  C   UNL     1       0.610   2.648  -1.065  0.00  0.00    +0.020 A 
ATOM     20  C   UNL     1       1.766   1.910  -0.881  0.00  0.00    +0.049 A 
ATOM     21  C   UNL     1       1.732   0.532  -0.998  0.00  0.00    +0.026 A 
ATOM     22  C   UNL     1       0.542  -0.107  -1.300  0.00  0.00    +0.049 A 
ATOM     23  C   UNL     1      -0.612   0.633  -1.484  0.00  0.00    +0.020 A 
ATOM     24 CL   UNL     1       0.499  -1.836  -1.448  0.00  0.00    -0.083 Cl
ATOM     25 CL   UNL     1       3.258   2.713  -0.503  0.00  0.00    -0.083 Cl
ENDBRANCH  17  21
ENDBRANCH  16  17
ENDBRANCH   7  16
ENDBRANCH   1  11
BRANCH   4  26
ATOM     26  C   UNL     1      10.022  -3.920  -3.593  0.00  0.00    +0.247 C 
ATOM     27  O   UNL     1      11.136  -4.268  -3.254  0.00  0.00    -0.270 OA
ATOM     28  N   UNL     1       9.695  -3.885  -4.901  0.00  0.00    -0.296 N 
ATOM     29  C   UNL     1      10.532  -4.382  -6.008  0.00  0.00    +0.108 C 
ATOM     30  C   UNL     1      10.054  -3.591  -7.252  0.00  0.00    +0.021 C 
ATOM     31  C   UNL     1       8.527  -3.495  -6.992  0.00  0.00    +0.022 C 
ATOM     32  C   UNL     1       8.444  -3.352  -5.457  0.00  0.00    +0.060 C 
BRANCH  32  33
ATOM     33  C   UNL     1       7.254  -4.150  -4.921  0.00  0.00    -0.056 C 
BRANCH  33  34
ATOM     34  N   UNL     1       6.005  -3.449  -5.252  0.00  0.00    +0.381 N 
ATOM     35  C   UNL     1       5.764  -3.497  -6.717  0.00  0.00    -0.079 C 
ATOM     36  C   UNL     1       4.238  -3.257  -6.833  0.00  0.00    -0.020 C 
ATOM     37  C   UNL     1       3.674  -4.023  -5.614  0.00  0.00    -0.020 C 
ATOM     38  C   UNL     1       4.854  -4.139  -4.631  0.00  0.00    -0.079 C 
ATOM     39  H   UNL     1       6.049  -2.492  -4.937  0.00  0.00    -0.082 HD
ENDBRANCH  33  34
ENDBRANCH  32  33
ENDBRANCH   4  26
TORSDOF 7
