REMARK  Name = CHEMBL257664
REMARK  7 active torsions:
REMARK  status: ('A' for Active; 'I' for Inactive)
REMARK    1  A    between atoms: C_1  and  N_2
REMARK    2  A    between atoms: C_3  and  C_5
REMARK    3  A    between atoms: N_7  and  C_30
REMARK    4  A    between atoms: N_16  and  C_17
REMARK    5  A    between atoms: C_20  and  N_23
REMARK    6  A    between atoms: N_26  and  C_29
REMARK    7  A    between atoms: C_30  and  C_31
REMARK                            x       y       z     vdW  Elec       q    Type
REMARK                         _______ _______ _______ _____ _____    ______ ____
ROOT
ATOM      1  C   UNL     1       1.274  -2.107  -0.564  0.00  0.00    +0.100 A 
ATOM      2  C   UNL     1       1.796  -2.775  -1.650  0.00  0.00    +0.104 A 
ATOM      3  N   UNL     1       1.785  -4.114  -1.741  0.00  0.00    -0.326 N 
ATOM      4  C   UNL     1       1.256  -4.919  -0.766  0.00  0.00    +0.150 A 
ATOM      5  C   UNL     1       0.691  -4.352   0.395  0.00  0.00    +0.083 A 
ATOM      6  C   UNL     1       0.687  -2.889   0.539  0.00  0.00    +0.204 A 
ATOM      7  O   UNL     1       0.217  -2.347   1.524  0.00  0.00    -0.286 OA
ATOM      8  C   UNL     1       0.159  -5.193   1.372  0.00  0.00    +0.129 A 
ATOM      9  N   UNL     1       0.205  -6.499   1.172  0.00  0.00    -0.222 NA
ATOM     10  C   UNL     1       0.744  -7.004   0.068  0.00  0.00    +0.221 A 
ATOM     11  N   UNL     1       1.260  -6.242  -0.885  0.00  0.00    -0.196 NA
ATOM     12  N   UNL     1       0.767  -8.375  -0.092  0.00  0.00    -0.284 N 
ATOM     13  H   UNL     1       1.224  -8.767  -0.853  0.00  0.00    +0.155 HD
ENDROOT
BRANCH  12  14
ATOM     14  C   UNL     1       0.132  -9.201   0.845  0.00  0.00    +0.034 A 
ATOM     15  C   UNL     1      -1.024  -8.768   1.480  0.00  0.00    +0.025 A 
ATOM     16  C   UNL     1      -1.650  -9.582   2.404  0.00  0.00    +0.025 A 
ATOM     17  C   UNL     1      -1.123 -10.833   2.697  0.00  0.00    +0.030 A 
ATOM     18  C   UNL     1       0.034 -11.265   2.062  0.00  0.00    +0.025 A 
ATOM     19  C   UNL     1       0.656 -10.454   1.134  0.00  0.00    +0.025 A 
BRANCH  17  20
ATOM     20  N   UNL     1      -1.756 -11.657   3.634  0.00  0.00    -0.327 N 
ATOM     21  C   UNL     1      -1.148 -12.928   4.055  0.00  0.00    +0.120 C 
ATOM     22  C   UNL     1      -1.112 -12.967   5.586  0.00  0.00    +0.103 C 
ATOM     23  N   UNL     1      -2.462 -12.721   6.111  0.00  0.00    -0.302 NA
ATOM     24  C   UNL     1      -2.938 -11.379   5.748  0.00  0.00    +0.103 C 
ATOM     25  C   UNL     1      -3.046 -11.272   4.228  0.00  0.00    +0.120 C 
ATOM     26  C   UNL     1      -2.505 -12.919   7.566  0.00  0.00    +0.105 C 
ENDBRANCH  17  20
ENDBRANCH  12  14
BRANCH   1  29
ATOM     27  C   UNL     1       1.034   1.457   0.713  0.00  0.00    +0.128 C 
ATOM     28  N   UNL     1       0.900   0.001   0.611  0.00  0.00    -0.314 N 
ATOM     29  C   UNL     1       1.306  -0.637  -0.504  0.00  0.00    +0.249 C 
ATOM     30  O   UNL     1       1.698   0.003  -1.462  0.00  0.00    -0.270 OA
ATOM     31  H   UNL     1       0.519  -0.503   1.347  0.00  0.00    +0.149 HD
ENDBRANCH   1  29
BRANCH   3  32
ATOM     32  C   UNL     1       2.363  -4.742  -2.932  0.00  0.00    +0.158 C 
BRANCH  32  33
ATOM     33  C   UNL     1       3.828  -5.011  -2.698  0.00  0.00    -0.028 A 
ATOM     34  C   UNL     1       4.767  -4.051  -3.024  0.00  0.00    +0.005 A 
ATOM     35  C   UNL     1       6.110  -4.298  -2.809  0.00  0.00    +0.000 A 
ATOM     36  C   UNL     1       6.514  -5.504  -2.268  0.00  0.00    +0.000 A 
ATOM     37  C   UNL     1       5.574  -6.463  -1.941  0.00  0.00    +0.000 A 
ATOM     38  C   UNL     1       4.230  -6.215  -2.152  0.00  0.00    +0.005 A 
ENDBRANCH  32  33
ENDBRANCH   3  32
TORSDOF 5
