REMARK  Name = CHEMBL256406
REMARK  5 active torsions:
REMARK  status: ('A' for Active; 'I' for Inactive)
REMARK    1  A    between atoms: C_3  and  N_14
REMARK    2  A    between atoms: C_6  and  C_7
REMARK    3  A    between atoms: C_7  and  N_8
REMARK    4  A    between atoms: C_21  and  C_35
REMARK    5  A    between atoms: N_23  and  C_26
REMARK                            x       y       z     vdW  Elec       q    Type
REMARK                         _______ _______ _______ _____ _____    ______ ____
ROOT
ATOM      1  N   UNL     1       3.666   2.273  -1.106  0.00  0.00    -0.284 N 
ATOM      2  C   UNL     1       4.795   1.562  -0.750  0.00  0.00    +0.221 A 
ATOM      3  N   UNL     1       4.745   0.234  -0.765  0.00  0.00    -0.222 NA
ATOM      4  C   UNL     1       5.799  -0.491  -0.433  0.00  0.00    +0.129 A 
ATOM      5  C   UNL     1       6.972   0.170  -0.065  0.00  0.00    +0.083 A 
ATOM      6  C   UNL     1       8.190  -0.558   0.318  0.00  0.00    +0.204 A 
ATOM      7  O   UNL     1       8.226  -1.776   0.330  0.00  0.00    -0.286 OA
ATOM      8  C   UNL     1       9.366   0.250   0.687  0.00  0.00    +0.100 A 
ATOM      9  C   UNL     1       9.266   1.624   0.655  0.00  0.00    +0.110 A 
ATOM     10  N   UNL     1       8.133   2.254   0.299  0.00  0.00    -0.300 N 
ATOM     11  C   UNL     1       6.992   1.579  -0.059  0.00  0.00    +0.154 A 
ATOM     12  N   UNL     1       5.888   2.229  -0.412  0.00  0.00    -0.196 NA
ATOM     13  H   UNL     1       3.704   3.240  -1.179  0.00  0.00    +0.155 HD
ENDROOT
BRANCH  10  14
ATOM     14  C   UNL     1       8.115   3.654   0.293  0.00  0.00    +0.048 A 
ATOM     15  C   UNL     1       8.865   4.356  -0.642  0.00  0.00    +0.026 A 
ATOM     16  C   UNL     1       8.844   5.735  -0.644  0.00  0.00    +0.006 A 
ATOM     17  C   UNL     1       8.079   6.424   0.283  0.00  0.00    -0.044 A 
ATOM     18  C   UNL     1       7.331   5.728   1.215  0.00  0.00    -0.042 A 
ATOM     19  C   UNL     1       7.345   4.344   1.217  0.00  0.00    +0.030 A 
ATOM     20  C   UNL     1       6.590   6.702   2.107  0.00  0.00    +0.036 C 
ATOM     21  C   UNL     1       7.301   8.056   1.905  0.00  0.00    +0.009 C 
ATOM     22  C   UNL     1       7.890   7.912   0.485  0.00  0.00    +0.036 C 
ENDBRANCH  10  14
BRANCH   1  25
ATOM     23  C   UNL     1       0.976  -0.225  -0.920  0.00  0.00    +0.007 A 
ATOM     24  C   UNL     1       2.161   0.437  -0.666  0.00  0.00    +0.023 A 
ATOM     25  C   UNL     1       2.467   1.600  -1.361  0.00  0.00    +0.034 A 
ATOM     26  C   UNL     1       1.580   2.093  -2.309  0.00  0.00    +0.023 A 
ATOM     27  C   UNL     1       0.397   1.426  -2.559  0.00  0.00    +0.007 A 
ATOM     28  C   UNL     1       0.095   0.268  -1.865  0.00  0.00    -0.033 A 
BRANCH  28  29
ATOM     29  C   UNL     1      -1.197  -0.457  -2.140  0.00  0.00    +0.119 C 
BRANCH  29  30
ATOM     30  N   UNL     1      -2.247   0.058  -1.250  0.00  0.00    -0.294 NA
ATOM     31  C   UNL     1      -1.958  -0.274   0.153  0.00  0.00    +0.113 C 
ATOM     32  C   UNL     1      -3.042   0.332   1.048  0.00  0.00    +0.175 C 
ATOM     33  O   UNL     1      -4.322  -0.150   0.630  0.00  0.00    -0.377 OA
ATOM     34  C   UNL     1      -4.636   0.157  -0.731  0.00  0.00    +0.175 C 
ATOM     35  C   UNL     1      -3.568  -0.450  -1.645  0.00  0.00    +0.113 C 
ENDBRANCH  29  30
ENDBRANCH  28  29
ENDBRANCH   1  25
BRANCH   8  36
ATOM     36  C   UNL     1      10.625  -0.399   1.084  0.00  0.00    +0.247 C 
ATOM     37  O   UNL     1      11.555   0.273   1.487  0.00  0.00    -0.270 OA
ATOM     38  N   UNL     1      10.748  -1.739   1.000  0.00  0.00    -0.325 N 
ATOM     39  H   UNL     1      10.035  -2.268   0.610  0.00  0.00    +0.145 HD
ATOM     40  H   UNL     1      11.550  -2.174   1.329  0.00  0.00    +0.145 HD
ENDBRANCH   8  36
TORSDOF 5
