REMARK  Name = CHEMBL257456
REMARK  2 active torsions:
REMARK  status: ('A' for Active; 'I' for Inactive)
REMARK    1  A    between atoms: C_4  and  C_7
REMARK    2  A    between atoms: C_18  and  C_19
REMARK                            x       y       z     vdW  Elec       q    Type
REMARK                         _______ _______ _______ _____ _____    ______ ____
ROOT
ATOM      1  C   UNL     1       3.695  -0.683  -0.037  0.00  0.00    +0.006 A 
ATOM      2  C   UNL     1       4.605  -0.573  -1.187  0.00  0.00    +0.008 A 
ATOM      3  C   UNL     1       4.263   0.217  -2.290  0.00  0.00    +0.030 A 
ATOM      4  C   UNL     1       5.128   0.309  -3.358  0.00  0.00    +0.042 A 
ATOM      5  C   UNL     1       6.335  -0.378  -3.343  0.00  0.00    +0.022 A 
ATOM      6  C   UNL     1       6.685  -1.160  -2.264  0.00  0.00    +0.028 A 
ATOM      7  C   UNL     1       5.826  -1.267  -1.173  0.00  0.00    +0.050 A 
ATOM      8  N   UNL     1       6.176  -2.049  -0.090  0.00  0.00    -0.322 N 
ATOM      9  H   UNL     1       7.024  -2.520  -0.102  0.00  0.00    +0.169 HD
ATOM     10  C   UNL     1       5.372  -2.176   0.979  0.00  0.00    +0.259 A 
ATOM     11  O   UNL     1       5.720  -2.876   1.913  0.00  0.00    -0.267 OA
ATOM     12  C   UNL     1       4.085  -1.479   1.039  0.00  0.00    +0.071 A 
ATOM     13 CL   UNL     1       4.707   1.288  -4.728  0.00  0.00    -0.084 Cl
ENDROOT
BRANCH   1  17
ATOM     14  C   UNL     1      -0.017   1.380   0.010  0.00  0.00    +0.000 A 
ATOM     15  C   UNL     1       1.168   2.094   0.002  0.00  0.00    +0.001 A 
ATOM     16  C   UNL     1       2.377   1.431  -0.013  0.00  0.00    +0.008 A 
ATOM     17  C   UNL     1       2.404   0.034  -0.021  0.00  0.00    -0.016 A 
ATOM     18  C   UNL     1       1.204  -0.681  -0.013  0.00  0.00    +0.008 A 
ATOM     19  C   UNL     1       0.002  -0.004   0.002  0.00  0.00    +0.001 A 
ENDBRANCH   1  17
BRANCH  12  20
ATOM     20  C   UNL     1       3.214  -1.619   2.219  0.00  0.00    +0.052 A 
ATOM     21  C   UNL     1       2.864  -0.622   3.084  0.00  0.00    +0.028 A 
ATOM     22  C   UNL     1       2.026  -1.188   4.058  0.00  0.00    +0.019 A 
ATOM     23  C   UNL     1       1.886  -2.500   3.768  0.00  0.00    +0.083 A 
ATOM     24  N   UNL     1       2.604  -2.775   2.641  0.00  0.00    -0.361 N 
ATOM     25  H   UNL     1       2.674  -3.641   2.211  0.00  0.00    +0.165 HD
ENDBRANCH  12  20
TORSDOF 2
