REMARK  Name = CHEMBL252834
REMARK  6 active torsions:
REMARK  status: ('A' for Active; 'I' for Inactive)
REMARK    1  A    between atoms: C_1  and  C_2
REMARK    2  A    between atoms: C_9  and  N_21
REMARK    3  A    between atoms: C_12  and  N_14
REMARK    4  A    between atoms: N_17  and  C_20
REMARK    5  A    between atoms: C_22  and  C_24
REMARK    6  A    between atoms: C_27  and  C_29
REMARK                            x       y       z     vdW  Elec       q    Type
REMARK                         _______ _______ _______ _____ _____    ______ ____
ROOT
ATOM      1  C   UNL     1      -1.260  -0.115  -2.330  0.00  0.00    +0.007 C 
ATOM      2  C   UNL     1      -0.615  -0.789  -1.118  0.00  0.00    -0.011 C 
ATOM      3  C   UNL     1      -0.595  -2.305  -1.327  0.00  0.00    +0.022 C 
ATOM      4  C   UNL     1       0.082  -2.974  -0.127  0.00  0.00    +0.107 C 
ATOM      5  N   UNL     1      -0.601  -2.543   1.101  0.00  0.00    -0.314 N 
ATOM      6  C   UNL     1      -0.755  -1.105   1.356  0.00  0.00    +0.107 C 
ATOM      7  C   UNL     1      -1.422  -0.457   0.139  0.00  0.00    +0.022 C 
ATOM      8  C   UNL     1      -1.091  -3.481   2.005  0.00  0.00    +0.145 A 
ATOM      9  C   UNL     1      -0.244  -4.014   2.977  0.00  0.00    +0.074 A 
ATOM     10  C   UNL     1      -0.746  -4.950   3.874  0.00  0.00    +0.030 A 
ATOM     11  C   UNL     1      -2.078  -5.318   3.768  0.00  0.00    +0.045 A 
ATOM     12  C   UNL     1      -2.866  -4.747   2.777  0.00  0.00    +0.123 A 
ATOM     13  N   UNL     1      -2.360  -3.854   1.939  0.00  0.00    -0.215 NA
ENDROOT
BRANCH  12  14
ATOM     14  N   UNL     1      -4.204  -5.113   2.666  0.00  0.00    -0.319 N 
ATOM     15  C   UNL     1      -5.006  -4.706   1.502  0.00  0.00    +0.088 C 
ATOM     16  C   UNL     1      -5.705  -5.946   0.935  0.00  0.00    -0.060 C 
ATOM     17  N   UNL     1      -6.473  -6.603   2.000  0.00  0.00    +0.380 N 
ATOM     18  C   UNL     1      -5.563  -7.102   3.038  0.00  0.00    -0.060 C 
ATOM     19  C   UNL     1      -4.855  -5.924   3.707  0.00  0.00    +0.088 C 
ATOM     20  C   UNL     1      -7.230  -7.727   1.433  0.00  0.00    -0.096 C 
ATOM     21  H   UNL     1      -7.115  -5.940   2.408  0.00  0.00    -0.082 HD
ENDBRANCH  12  14
BRANCH   9  22
ATOM     22  N   UNL     1       1.099  -3.613   3.047  0.00  0.00    -0.276 N 
ATOM     23  C   UNL     1       2.047  -4.494   3.421  0.00  0.00    +0.284 C 
ATOM     24  O   UNL     1       1.731  -5.616   3.772  0.00  0.00    -0.266 OA
ATOM     25  H   UNL     1       1.344  -2.701   2.826  0.00  0.00    +0.155 HD
BRANCH  23  26
ATOM     26  C   UNL     1       3.463  -4.101   3.404  0.00  0.00    +0.191 A 
ATOM     27  C   UNL     1       4.517  -4.899   3.753  0.00  0.00    +0.056 A 
ATOM     28  C   UNL     1       5.678  -4.136   3.593  0.00  0.00    +0.061 A 
ATOM     29  C   UNL     1       5.281  -2.893   3.150  0.00  0.00    +0.205 A 
ATOM     30  O   UNL     1       3.940  -2.896   3.038  0.00  0.00    -0.440 OA
BRANCH  29  31
ATOM     31  C   UNL     1       6.146  -1.791   2.855  0.00  0.00    +0.138 C 
ATOM     32  N   UNL     1       6.832  -0.916   2.620  0.00  0.00    -0.188 NA
ENDBRANCH  29  31
ENDBRANCH  23  26
ENDBRANCH   9  22
TORSDOF 4
