REMARK  Name = CHEMBL271259
REMARK  3 active torsions:
REMARK  status: ('A' for Active; 'I' for Inactive)
REMARK    1  A    between atoms: C_1  and  C_2
REMARK    2  A    between atoms: C_4  and  C_7
REMARK    3  A    between atoms: C_8  and  C_20
REMARK                            x       y       z     vdW  Elec       q    Type
REMARK                         _______ _______ _______ _____ _____    ______ ____
ROOT
ATOM      1  C   UNL     1       0.040  -3.306  -1.598  0.00  0.00    +0.092 A 
ATOM      2  C   UNL     1       1.140  -4.165  -1.608  0.00  0.00    +0.007 A 
ATOM      3  C   UNL     1       1.095  -5.334  -2.497  0.00  0.00    +0.011 A 
ATOM      4  C   UNL     1       2.158  -6.242  -2.564  0.00  0.00    +0.050 A 
ATOM      5  C   UNL     1       2.052  -7.319  -3.419  0.00  0.00    +0.130 A 
ATOM      6  N   UNL     1       0.973  -7.497  -4.163  0.00  0.00    -0.241 NA
ATOM      7  C   UNL     1      -0.051  -6.671  -4.135  0.00  0.00    +0.138 A 
ATOM      8  C   UNL     1      -0.036  -5.555  -3.303  0.00  0.00    +0.068 A 
ATOM      9  N   UNL     1      -1.104  -4.683  -3.265  0.00  0.00    -0.320 N 
ATOM     10  H   UNL     1      -1.875  -4.854  -3.828  0.00  0.00    +0.169 HD
ATOM     11  C   UNL     1      -1.105  -3.605  -2.462  0.00  0.00    +0.261 A 
ATOM     12  O   UNL     1      -2.071  -2.864  -2.455  0.00  0.00    -0.267 OA
ATOM     13 CL   UNL     1       3.357  -8.459  -3.521  0.00  0.00    -0.062 Cl
ENDROOT
BRANCH   1  17
ATOM     14  C   UNL     1      -0.018   1.503   0.010  0.00  0.00    +0.069 C 
ATOM     15  C   UNL     1       0.002  -0.004   0.002  0.00  0.00    +0.081 A 
ATOM     16  C   UNL     1       0.008  -0.818  -1.138  0.00  0.00    +0.076 A 
ATOM     17  C   UNL     1       0.028  -2.119  -0.727  0.00  0.00    +0.173 A 
ATOM     18  O   UNL     1       0.035  -2.121   0.620  0.00  0.00    -0.354 OA
ATOM     19  N   UNL     1       0.023  -0.773   1.055  0.00  0.00    -0.083 NA
ENDBRANCH   1  17
BRANCH   2  20
ATOM     20  C   UNL     1       2.314  -3.907  -0.751  0.00  0.00    -0.016 A 
ATOM     21  C   UNL     1       3.551  -3.607  -1.327  0.00  0.00    +0.008 A 
ATOM     22  C   UNL     1       4.644  -3.367  -0.521  0.00  0.00    +0.001 A 
ATOM     23  C   UNL     1       4.517  -3.422   0.856  0.00  0.00    +0.000 A 
ATOM     24  C   UNL     1       3.295  -3.718   1.434  0.00  0.00    +0.001 A 
ATOM     25  C   UNL     1       2.192  -3.955   0.640  0.00  0.00    +0.008 A 
ENDBRANCH   2  20
TORSDOF 2
