REMARK  Name = CHEMBL403661
REMARK  5 active torsions:
REMARK  status: ('A' for Active; 'I' for Inactive)
REMARK    1  A    between atoms: C_1  and  C_2
REMARK    2  A    between atoms: C_2  and  C_3
REMARK    3  A    between atoms: C_6  and  C_9
REMARK    4  A    between atoms: C_20  and  C_21
REMARK    5  A    between atoms: C_24  and  C_27
REMARK                            x       y       z     vdW  Elec       q    Type
REMARK                         _______ _______ _______ _____ _____    ______ ____
ROOT
ATOM      1  C   UNL     1       2.695  -1.860  -4.732  0.00  0.00    +0.006 A 
ATOM      2  C   UNL     1       2.402  -3.186  -5.295  0.00  0.00    +0.008 A 
ATOM      3  C   UNL     1       1.460  -4.023  -4.688  0.00  0.00    +0.030 A 
ATOM      4  C   UNL     1       1.199  -5.262  -5.230  0.00  0.00    +0.042 A 
ATOM      5  C   UNL     1       1.866  -5.682  -6.374  0.00  0.00    +0.022 A 
ATOM      6  C   UNL     1       2.796  -4.868  -6.982  0.00  0.00    +0.028 A 
ATOM      7  C   UNL     1       3.077  -3.612  -6.452  0.00  0.00    +0.050 A 
ATOM      8  N   UNL     1       4.008  -2.794  -7.061  0.00  0.00    -0.322 N 
ATOM      9  H   UNL     1       4.462  -3.107  -7.859  0.00  0.00    +0.169 HD
ATOM     10  C   UNL     1       4.303  -1.576  -6.577  0.00  0.00    +0.259 A 
ATOM     11  O   UNL     1       5.131  -0.887  -7.146  0.00  0.00    -0.267 OA
ATOM     12  C   UNL     1       3.638  -1.062  -5.378  0.00  0.00    +0.072 A 
ATOM     13 CL   UNL     1       0.031  -6.304  -4.479  0.00  0.00    -0.084 Cl
ENDROOT
BRANCH  12  14
ATOM     14  C   UNL     1       3.964   0.279  -4.859  0.00  0.00    +0.072 A 
ATOM     15  C   UNL     1       3.125   1.352  -4.783  0.00  0.00    +0.139 A 
ATOM     16  N   UNL     1       3.810   2.371  -4.253  0.00  0.00    -0.240 NA
ATOM     17  C   UNL     1       5.032   1.991  -3.994  0.00  0.00    +0.104 A 
ATOM     18  N   UNL     1       5.175   0.694  -4.349  0.00  0.00    -0.342 N 
ATOM     19  H   UNL     1       5.978   0.158  -4.263  0.00  0.00    +0.167 HD
ATOM     20  C   UNL     1       6.109   2.856  -3.392  0.00  0.00    +0.086 C 
ENDBRANCH  12  14
BRANCH   1  24
ATOM     21  C   UNL     1       0.707  -0.490  -1.238  0.00  0.00    -0.048 A 
ATOM     22  C   UNL     1      -0.014  -0.718  -2.396  0.00  0.00    +0.004 A 
ATOM     23  C   UNL     1       0.625  -1.163  -3.535  0.00  0.00    +0.009 A 
ATOM     24  C   UNL     1       2.004  -1.383  -3.517  0.00  0.00    -0.016 A 
ATOM     25  C   UNL     1       2.726  -1.151  -2.344  0.00  0.00    +0.009 A 
ATOM     26  C   UNL     1       2.075  -0.701  -1.214  0.00  0.00    +0.004 A 
BRANCH  21  28
ATOM     27  C   UNL     1      -0.019   1.526   0.010  0.00  0.00    +0.009 C 
ATOM     28  C   UNL     1       0.002  -0.004   0.002  0.00  0.00    +0.032 C 
ENDBRANCH  21  28
ENDBRANCH   1  24
TORSDOF 3
