REMARK  Name = CHEMBL451575
REMARK  10 active torsions:
REMARK  status: ('A' for Active; 'I' for Inactive)
REMARK    1  A    between atoms: C_1  and  C_2
REMARK    2  A    between atoms: C_2  and  O_3
REMARK    3  A    between atoms: O_3  and  N_4
REMARK    4  A    between atoms: C_5  and  C_7
REMARK    5  A    between atoms: N_9  and  C_34
REMARK    6  A    between atoms: N_18  and  C_19
REMARK    7  A    between atoms: C_22  and  C_25
REMARK    8  A    between atoms: C_25  and  C_26
REMARK    9  A    between atoms: C_26  and  N_27
REMARK   10  A    between atoms: N_30  and  C_33
REMARK                            x       y       z     vdW  Elec       q    Type
REMARK                         _______ _______ _______ _____ _____    ______ ____
ROOT
ATOM      1  C   UNL     1       1.597  -3.955  -2.667  0.00  0.00    +0.102 A 
ATOM      2  C   UNL     1       2.006  -4.814  -3.663  0.00  0.00    +0.110 A 
ATOM      3  N   UNL     1       2.068  -6.145  -3.483  0.00  0.00    -0.300 N 
ATOM      4  C   UNL     1       1.731  -6.749  -2.297  0.00  0.00    +0.154 A 
ATOM      5  C   UNL     1       1.298  -5.973  -1.203  0.00  0.00    +0.083 A 
ATOM      6  C   UNL     1       1.220  -4.512  -1.355  0.00  0.00    +0.205 A 
ATOM      7  O   UNL     1       0.857  -3.795  -0.439  0.00  0.00    -0.286 OA
ATOM      8  C   UNL     1       0.962  -6.610  -0.008  0.00  0.00    +0.129 A 
ATOM      9  N   UNL     1       1.063  -7.927   0.053  0.00  0.00    -0.222 NA
ATOM     10  C   UNL     1       1.474  -8.631  -0.995  0.00  0.00    +0.221 A 
ATOM     11  N   UNL     1       1.803  -8.067  -2.148  0.00  0.00    -0.196 NA
ATOM     12  N   UNL     1       1.563 -10.005  -0.880  0.00  0.00    -0.284 N 
ATOM     13  H   UNL     1       1.936 -10.530  -1.605  0.00  0.00    +0.155 HD
ENDROOT
BRANCH   3  14
ATOM     14  C   UNL     1       2.494  -6.948  -4.548  0.00  0.00    +0.048 A 
ATOM     15  C   UNL     1       3.817  -6.904  -4.967  0.00  0.00    +0.026 A 
ATOM     16  C   UNL     1       4.232  -7.698  -6.017  0.00  0.00    +0.006 A 
ATOM     17  C   UNL     1       3.334  -8.539  -6.655  0.00  0.00    -0.044 A 
ATOM     18  C   UNL     1       2.016  -8.584  -6.240  0.00  0.00    -0.042 A 
ATOM     19  C   UNL     1       1.597  -7.794  -5.184  0.00  0.00    +0.030 A 
ATOM     20  C   UNL     1       1.245  -9.571  -7.090  0.00  0.00    +0.036 C 
ATOM     21  C   UNL     1       2.121  -9.796  -8.341  0.00  0.00    +0.009 C 
ATOM     22  C   UNL     1       3.539  -9.492  -7.812  0.00  0.00    +0.036 C 
ENDBRANCH   3  14
BRANCH  12  23
ATOM     23  C   UNL     1       1.114 -10.639   0.283  0.00  0.00    +0.034 A 
ATOM     24  C   UNL     1      -0.034 -10.188   0.922  0.00  0.00    +0.023 A 
ATOM     25  C   UNL     1      -0.475 -10.816   2.071  0.00  0.00    +0.005 A 
ATOM     26  C   UNL     1       0.225 -11.893   2.584  0.00  0.00    -0.049 A 
ATOM     27  C   UNL     1       1.368 -12.344   1.950  0.00  0.00    +0.005 A 
ATOM     28  C   UNL     1       1.811 -11.724   0.798  0.00  0.00    +0.023 A 
BRANCH  26  29
ATOM     29  C   UNL     1      -0.258 -12.575   3.837  0.00  0.00    +0.016 C 
BRANCH  29  30
ATOM     30  C   UNL     1      -1.220 -13.705   3.464  0.00  0.00    -0.074 C 
BRANCH  30  31
ATOM     31  N   UNL     1      -1.691 -14.371   4.686  0.00  0.00    +0.382 N 
ATOM     32  C   UNL     1      -0.559 -15.026   5.354  0.00  0.00    -0.063 C 
ATOM     33  C   UNL     1      -1.046 -15.703   6.637  0.00  0.00    +0.065 C 
ATOM     34  N   UNL     1      -2.079 -16.693   6.303  0.00  0.00    -0.309 NA
ATOM     35  C   UNL     1      -3.208 -16.056   5.611  0.00  0.00    +0.065 C 
ATOM     36  C   UNL     1      -2.704 -15.376   4.337  0.00  0.00    -0.063 C 
ATOM     37  C   UNL     1      -2.533 -17.407   7.505  0.00  0.00    +0.104 C 
ATOM     38  H   UNL     1      -2.096 -13.686   5.307  0.00  0.00    -0.082 HD
ENDBRANCH  30  31
ENDBRANCH  29  30
ENDBRANCH  26  29
ENDBRANCH  12  23
BRANCH   1  40
ATOM     39  N   UNL     1       1.241  -1.665  -1.895  0.00  0.00    -0.190 N 
ATOM     40  C   UNL     1       1.542  -2.504  -2.906  0.00  0.00    +0.272 C 
ATOM     41  O   UNL     1       1.768  -2.062  -4.016  0.00  0.00    -0.268 OA
ATOM     42  H   UNL     1       0.994  -2.021  -1.027  0.00  0.00    +0.183 HD
BRANCH  39  43
ATOM     43  O   UNL     1       1.287  -0.265  -2.100  0.00  0.00    -0.280 OA
BRANCH  43  45
ATOM     44  C   UNL     1       1.027   1.994  -1.279  0.00  0.00    +0.036 C 
ATOM     45  C   UNL     1       0.945   0.503  -0.944  0.00  0.00    +0.187 C 
ENDBRANCH  43  45
ENDBRANCH  39  43
ENDBRANCH   1  40
TORSDOF 8
