REMARK  Name = CHEMBL256893
REMARK  6 active torsions:
REMARK  status: ('A' for Active; 'I' for Inactive)
REMARK    1  A    between atoms: C_1  and  N_2
REMARK    2  A    between atoms: N_5  and  C_8
REMARK    3  A    between atoms: C_8  and  C_9
REMARK    4  A    between atoms: C_12  and  N_15
REMARK    5  A    between atoms: C_22  and  C_36
REMARK    6  A    between atoms: N_24  and  C_27
REMARK                            x       y       z     vdW  Elec       q    Type
REMARK                         _______ _______ _______ _____ _____    ______ ____
ROOT
ATOM      1  N   UNL     1       1.679  -7.120   5.549  0.00  0.00    -0.284 N 
ATOM      2  C   UNL     1       0.868  -7.046   6.665  0.00  0.00    +0.221 A 
ATOM      3  N   UNL     1      -0.436  -6.856   6.495  0.00  0.00    -0.222 NA
ATOM      4  C   UNL     1      -1.253  -6.779   7.531  0.00  0.00    +0.129 A 
ATOM      5  C   UNL     1      -0.715  -6.903   8.813  0.00  0.00    +0.083 A 
ATOM      6  C   UNL     1      -1.551  -6.830  10.020  0.00  0.00    +0.204 A 
ATOM      7  O   UNL     1      -2.756  -6.657   9.950  0.00  0.00    -0.286 OA
ATOM      8  C   UNL     1      -0.869  -6.975  11.318  0.00  0.00    +0.100 A 
ATOM      9  C   UNL     1       0.495  -7.169  11.335  0.00  0.00    +0.110 A 
ATOM     10  N   UNL     1       1.226  -7.230  10.208  0.00  0.00    -0.300 N 
ATOM     11  C   UNL     1       0.672  -7.104   8.958  0.00  0.00    +0.154 A 
ATOM     12  N   UNL     1       1.419  -7.174   7.862  0.00  0.00    -0.196 NA
ATOM     13  H   UNL     1       2.619  -7.338   5.646  0.00  0.00    +0.155 HD
ENDROOT
BRANCH  10  14
ATOM     14  C   UNL     1       2.608  -7.429  10.313  0.00  0.00    +0.048 A 
ATOM     15  C   UNL     1       3.104  -8.645  10.767  0.00  0.00    +0.026 A 
ATOM     16  C   UNL     1       4.467  -8.836  10.868  0.00  0.00    +0.006 A 
ATOM     17  C   UNL     1       5.343  -7.820  10.520  0.00  0.00    -0.044 A 
ATOM     18  C   UNL     1       4.852  -6.609  10.068  0.00  0.00    -0.042 A 
ATOM     19  C   UNL     1       3.486  -6.415   9.960  0.00  0.00    +0.030 A 
ATOM     20  C   UNL     1       6.002  -5.675   9.757  0.00  0.00    +0.036 C 
ATOM     21  C   UNL     1       7.224  -6.285  10.476  0.00  0.00    +0.009 C 
ATOM     22  C   UNL     1       6.856  -7.782  10.542  0.00  0.00    +0.036 C 
ENDBRANCH  10  14
BRANCH   1  26
ATOM     23  C   UNL     1       0.087  -6.405   1.767  0.00  0.00    -0.064 A 
ATOM     24  C   UNL     1      -0.415  -5.731   2.865  0.00  0.00    +0.003 A 
ATOM     25  C   UNL     1       0.111  -5.966   4.120  0.00  0.00    +0.023 A 
ATOM     26  C   UNL     1       1.144  -6.880   4.279  0.00  0.00    +0.034 A 
ATOM     27  C   UNL     1       1.646  -7.555   3.174  0.00  0.00    +0.023 A 
ATOM     28  C   UNL     1       1.112  -7.320   1.922  0.00  0.00    +0.003 A 
BRANCH  23  29
ATOM     29  C   UNL     1      -0.489  -6.146   0.398  0.00  0.00    -0.043 C 
BRANCH  29  34
ATOM     30  C   UNL     1      -5.474  -8.492  -0.781  0.00  0.00    +0.104 C 
ATOM     31  N   UNL     1      -4.326  -7.612  -0.527  0.00  0.00    -0.309 NA
ATOM     32  C   UNL     1      -3.240  -7.875  -1.482  0.00  0.00    +0.065 C 
ATOM     33  C   UNL     1      -2.090  -6.900  -1.222  0.00  0.00    -0.063 C 
ATOM     34  N   UNL     1      -1.605  -7.070   0.155  0.00  0.00    +0.384 N 
ATOM     35  C   UNL     1      -2.694  -6.781   1.097  0.00  0.00    -0.063 C 
ATOM     36  C   UNL     1      -3.850  -7.754   0.857  0.00  0.00    +0.065 C 
ATOM     37  H   UNL     1      -1.291  -8.019   0.286  0.00  0.00    -0.081 HD
ENDBRANCH  29  34
ENDBRANCH  23  29
ENDBRANCH   1  26
BRANCH   8  38
ATOM     38  C   UNL     1      -1.631  -6.915  12.575  0.00  0.00    +0.247 C 
ATOM     39  O   UNL     1      -1.047  -6.930  13.642  0.00  0.00    -0.270 OA
ATOM     40  N   UNL     1      -2.976  -6.842  12.544  0.00  0.00    -0.325 N 
ATOM     41  H   UNL     1      -3.446  -6.903  11.698  0.00  0.00    +0.145 HD
ATOM     42  H   UNL     1      -3.475  -6.728  13.368  0.00  0.00    +0.145 HD
ENDBRANCH   8  38
TORSDOF 5
