REMARK  Name = CHEMBL255584
REMARK  5 active torsions:
REMARK  status: ('A' for Active; 'I' for Inactive)
REMARK    1  A    between atoms: C_1  and  N_2
REMARK    2  A    between atoms: N_5  and  C_8
REMARK    3  A    between atoms: C_12  and  N_14
REMARK    4  A    between atoms: C_21  and  C_35
REMARK    5  A    between atoms: N_23  and  C_26
REMARK                            x       y       z     vdW  Elec       q    Type
REMARK                         _______ _______ _______ _____ _____    ______ ____
ROOT
ATOM      1  N   UNL     1       0.375  -5.959   4.349  0.00  0.00    -0.284 N 
ATOM      2  C   UNL     1      -0.149  -7.066   4.988  0.00  0.00    +0.221 A 
ATOM      3  N   UNL     1      -1.309  -7.558   4.566  0.00  0.00    -0.222 NA
ATOM      4  C   UNL     1      -1.851  -8.615   5.144  0.00  0.00    +0.129 A 
ATOM      5  C   UNL     1      -1.176  -9.207   6.213  0.00  0.00    +0.083 A 
ATOM      6  C   UNL     1      -1.707 -10.386   6.913  0.00  0.00    +0.204 A 
ATOM      7  O   UNL     1      -2.764 -10.897   6.587  0.00  0.00    -0.286 OA
ATOM      8  C   UNL     1      -0.903 -10.922   8.026  0.00  0.00    +0.100 A 
ATOM      9  C   UNL     1       0.284 -10.303   8.349  0.00  0.00    +0.110 A 
ATOM     10  N   UNL     1       0.736  -9.225   7.684  0.00  0.00    -0.300 N 
ATOM     11  C   UNL     1       0.052  -8.661   6.636  0.00  0.00    +0.154 A 
ATOM     12  N   UNL     1       0.527  -7.599   5.994  0.00  0.00    -0.196 NA
ATOM     13  H   UNL     1       1.259  -5.637   4.582  0.00  0.00    +0.155 HD
ENDROOT
BRANCH  10  14
ATOM     14  C   UNL     1       1.953  -8.655   8.076  0.00  0.00    +0.048 A 
ATOM     15  C   UNL     1       3.136  -9.368   7.928  0.00  0.00    +0.026 A 
ATOM     16  C   UNL     1       4.333  -8.802   8.316  0.00  0.00    +0.006 A 
ATOM     17  C   UNL     1       4.360  -7.525   8.853  0.00  0.00    -0.044 A 
ATOM     18  C   UNL     1       3.184  -6.812   9.002  0.00  0.00    -0.042 A 
ATOM     19  C   UNL     1       1.983  -7.375   8.609  0.00  0.00    +0.030 A 
ATOM     20  C   UNL     1       3.481  -5.456   9.606  0.00  0.00    +0.036 C 
ATOM     21  C   UNL     1       4.894  -5.584  10.212  0.00  0.00    +0.009 C 
ATOM     22  C   UNL     1       5.526  -6.695   9.347  0.00  0.00    +0.036 C 
ENDBRANCH  10  14
BRANCH   1  27
ATOM     23  C   UNL     1      -0.475  -4.083   1.298  0.00  0.00    +0.032 A 
ATOM     24  C   UNL     1      -1.857  -4.001   1.420  0.00  0.00    +0.023 A 
ATOM     25  C   UNL     1      -2.490  -4.566   2.510  0.00  0.00    +0.004 A 
ATOM     26  C   UNL     1      -1.753  -5.216   3.481  0.00  0.00    +0.023 A 
ATOM     27  C   UNL     1      -0.371  -5.301   3.365  0.00  0.00    +0.035 A 
ATOM     28  C   UNL     1       0.268  -4.739   2.269  0.00  0.00    +0.046 A 
BRANCH  23  33
ATOM     29  C   UNL     1       1.893  -0.260  -1.820  0.00  0.00    +0.105 C 
ATOM     30  N   UNL     1       1.371  -1.566  -1.394  0.00  0.00    -0.302 NA
ATOM     31  C   UNL     1      -0.079  -1.505  -1.168  0.00  0.00    +0.103 C 
ATOM     32  C   UNL     1      -0.611  -2.918  -0.903  0.00  0.00    +0.120 C 
ATOM     33  N   UNL     1       0.165  -3.511   0.196  0.00  0.00    -0.327 N 
ATOM     34  C   UNL     1       1.633  -3.485   0.105  0.00  0.00    +0.120 C 
ATOM     35  C   UNL     1       2.076  -2.050  -0.199  0.00  0.00    +0.103 C 
ENDBRANCH  23  33
ENDBRANCH   1  27
BRANCH   8  36
ATOM     36  C   UNL     1      -1.362 -12.100   8.780  0.00  0.00    +0.247 C 
ATOM     37  O   UNL     1      -0.647 -12.593   9.632  0.00  0.00    -0.270 OA
ATOM     38  N   UNL     1      -2.575 -12.631   8.528  0.00  0.00    -0.325 N 
ATOM     39  H   UNL     1      -3.115 -12.284   7.801  0.00  0.00    +0.145 HD
ATOM     40  H   UNL     1      -2.908 -13.361   9.074  0.00  0.00    +0.145 HD
ENDBRANCH   8  36
TORSDOF 4
