REMARK  Name = CHEMBL253864
REMARK  3 active torsions:
REMARK  status: ('A' for Active; 'I' for Inactive)
REMARK    1  A    between atoms: C_4  and  N_15
REMARK    2  A    between atoms: C_5  and  N_7
REMARK    3  A    between atoms: C_8  and  C_10
REMARK                            x       y       z     vdW  Elec       q    Type
REMARK                         _______ _______ _______ _____ _____    ______ ____
ROOT
ATOM      1  C   UNL     1      -0.033   1.372  -0.012  0.00  0.00    +0.002 A 
ATOM      2  C   UNL     1       1.150   2.090  -0.025  0.00  0.00    +0.002 A 
ATOM      3  C   UNL     1       2.364   1.429  -0.038  0.00  0.00    +0.025 A 
ATOM      4  C   UNL     1       2.399   0.042  -0.036  0.00  0.00    +0.051 A 
ATOM      5  C   UNL     1       1.206  -0.681  -0.022  0.00  0.00    +0.055 A 
ATOM      6  C   UNL     1      -0.007  -0.010  -0.010  0.00  0.00    +0.025 A 
ENDROOT
BRANCH   4   7
ATOM      7  N   UNL     1       3.626  -0.629  -0.050  0.00  0.00    -0.328 N 
ATOM      8  C   UNL     1       4.271  -0.984  -1.321  0.00  0.00    +0.105 C 
ATOM      9  C   UNL     1       5.702  -0.435  -1.318  0.00  0.00    +0.019 C 
ATOM     10  C   UNL     1       6.437  -0.944  -0.076  0.00  0.00    +0.003 C 
ATOM     11  C   UNL     1       5.724  -0.443   1.182  0.00  0.00    +0.019 C 
ATOM     12  C   UNL     1       4.297  -0.986   1.208  0.00  0.00    +0.105 C 
ENDBRANCH   4   7
BRANCH   5  13
ATOM     13  N   UNL     1       1.234  -2.081  -0.021  0.00  0.00    -0.277 N 
ATOM     14  C   UNL     1       0.295  -2.774   0.653  0.00  0.00    +0.286 C 
ATOM     15  O   UNL     1      -0.623  -2.186   1.193  0.00  0.00    -0.266 OA
ATOM     16  H   UNL     1       1.929  -2.553  -0.506  0.00  0.00    +0.155 HD
BRANCH  14  17
ATOM     17  C   UNL     1       0.380  -4.243   0.736  0.00  0.00    +0.222 A 
ATOM     18  C   UNL     1      -0.498  -5.064   1.376  0.00  0.00    +0.077 A 
ATOM     19  C   UNL     1      -0.051  -6.386   1.214  0.00  0.00    +0.157 A 
ATOM     20  N   UNL     1       1.044  -6.364   0.509  0.00  0.00    -0.086 NA
ATOM     21  O   UNL     1       1.337  -5.017   0.188  0.00  0.00    -0.350 OA
ENDBRANCH  14  17
ENDBRANCH   5  13
TORSDOF 3
