REMARK  Name = CHEMBL257665
REMARK  5 active torsions:
REMARK  status: ('A' for Active; 'I' for Inactive)
REMARK    1  A    between atoms: C_1  and  N_2
REMARK    2  A    between atoms: N_5  and  C_8
REMARK    3  A    between atoms: C_11  and  N_14
REMARK    4  A    between atoms: C_21  and  C_33
REMARK    5  A    between atoms: N_23  and  C_26
REMARK                            x       y       z     vdW  Elec       q    Type
REMARK                         _______ _______ _______ _____ _____    ______ ____
ROOT
ATOM      1  N   UNL     1      -3.010  -6.058   5.291  0.00  0.00    -0.284 N 
ATOM      2  C   UNL     1      -2.048  -6.788   5.960  0.00  0.00    +0.221 A 
ATOM      3  N   UNL     1      -0.909  -6.191   6.292  0.00  0.00    -0.222 NA
ATOM      4  C   UNL     1       0.043  -6.847   6.932  0.00  0.00    +0.129 A 
ATOM      5  C   UNL     1      -0.175  -8.187   7.255  0.00  0.00    +0.083 A 
ATOM      6  C   UNL     1       0.828  -8.992   7.967  0.00  0.00    +0.204 A 
ATOM      7  O   UNL     1       1.899  -8.519   8.307  0.00  0.00    -0.286 OA
ATOM      8  C   UNL     1       0.481 -10.395   8.252  0.00  0.00    +0.100 A 
ATOM      9  C   UNL     1      -0.745 -10.874   7.843  0.00  0.00    +0.104 A 
ATOM     10  N   UNL     1      -1.635 -10.106   7.195  0.00  0.00    -0.328 N 
ATOM     11  C   UNL     1      -1.395  -8.791   6.889  0.00  0.00    +0.150 A 
ATOM     12  N   UNL     1      -2.299  -8.055   6.251  0.00  0.00    -0.196 NA
ATOM     13  H   UNL     1      -3.882  -6.447   5.118  0.00  0.00    +0.155 HD
ENDROOT
BRANCH  10  14
ATOM     14  C   UNL     1      -2.914 -10.698   6.797  0.00  0.00    +0.092 C 
ATOM     15  C   UNL     1      -3.280 -11.871   7.734  0.00  0.00    +0.029 C 
ATOM     16  C   UNL     1      -4.622 -11.441   8.400  0.00  0.00    -0.009 C 
ATOM     17  C   UNL     1      -4.226 -10.278   9.361  0.00  0.00    +0.004 C 
ATOM     18  C   UNL     1      -3.861  -9.105   8.424  0.00  0.00    +0.006 C 
ATOM     19  C   UNL     1      -4.071  -9.669   6.985  0.00  0.00    +0.012 C 
ATOM     20  C   UNL     1      -5.283 -10.636   7.227  0.00  0.00    +0.009 C 
ENDBRANCH  10  14
BRANCH   1  24
ATOM     21  C   UNL     1      -2.170  -2.178   4.013  0.00  0.00    +0.030 A 
ATOM     22  C   UNL     1      -1.167  -3.138   4.024  0.00  0.00    +0.025 A 
ATOM     23  C   UNL     1      -1.445  -4.423   4.447  0.00  0.00    +0.025 A 
ATOM     24  C   UNL     1      -2.728  -4.754   4.862  0.00  0.00    +0.034 A 
ATOM     25  C   UNL     1      -3.731  -3.794   4.852  0.00  0.00    +0.025 A 
ATOM     26  C   UNL     1      -3.451  -2.508   4.434  0.00  0.00    +0.025 A 
BRANCH  21  31
ATOM     27  C   UNL     1      -1.421   2.029   0.591  0.00  0.00    +0.105 C 
ATOM     28  N   UNL     1      -1.506   1.267   1.844  0.00  0.00    -0.302 NA
ATOM     29  C   UNL     1      -0.516   0.182   1.869  0.00  0.00    +0.103 C 
ATOM     30  C   UNL     1      -0.513  -0.471   3.256  0.00  0.00    +0.120 C 
ATOM     31  N   UNL     1      -1.888  -0.876   3.585  0.00  0.00    -0.327 N 
ATOM     32  C   UNL     1      -2.959   0.123   3.451  0.00  0.00    +0.120 C 
ATOM     33  C   UNL     1      -2.866   0.752   2.056  0.00  0.00    +0.103 C 
ENDBRANCH  21  31
ENDBRANCH   1  24
BRANCH   8  34
ATOM     34  C   UNL     1       1.428 -11.271   8.960  0.00  0.00    +0.247 C 
ATOM     35  O   UNL     1       1.092 -12.395   9.283  0.00  0.00    -0.270 OA
ATOM     36  N   UNL     1       2.668 -10.829   9.251  0.00  0.00    -0.325 N 
ATOM     37  H   UNL     1       2.912  -9.910   9.058  0.00  0.00    +0.145 HD
ATOM     38  H   UNL     1       3.315 -11.429   9.652  0.00  0.00    +0.145 HD
ENDBRANCH   8  34
TORSDOF 4
