REMARK  Name = CHEMBL438533
REMARK  6 active torsions:
REMARK  status: ('A' for Active; 'I' for Inactive)
REMARK    1  A    between atoms: C_1  and  C_2
REMARK    2  A    between atoms: N_5  and  C_8
REMARK    3  A    between atoms: C_10  and  C_24
REMARK    4  A    between atoms: C_13  and  N_14
REMARK    5  A    between atoms: C_15  and  C_17
REMARK    6  A    between atoms: C_20  and  C_22
REMARK                            x       y       z     vdW  Elec       q    Type
REMARK                         _______ _______ _______ _____ _____    ______ ____
ROOT
ATOM      1  C   UNL     1      -1.096  -3.501   1.980  0.00  0.00    +0.051 A 
ATOM      2  C   UNL     1      -0.948  -4.858   1.735  0.00  0.00    +0.029 A 
ATOM      3  C   UNL     1      -1.453  -5.781   2.632  0.00  0.00    -0.043 A 
ATOM      4  C   UNL     1      -2.106  -5.356   3.774  0.00  0.00    +0.006 A 
ATOM      5  C   UNL     1      -2.257  -4.005   4.027  0.00  0.00    +0.025 A 
ATOM      6  C   UNL     1      -1.750  -3.072   3.135  0.00  0.00    +0.055 A 
ENDROOT
BRANCH   3   7
ATOM      7  C   UNL     1      -1.292  -7.255   2.363  0.00  0.00    +0.016 C 
ATOM      8  C   UNL     1      -0.507  -7.902   3.509  0.00  0.00    -0.011 C 
ATOM      9  C   UNL     1      -0.416  -9.410   3.269  0.00  0.00    -0.082 C 
ATOM     10  N   UNL     1      -1.767  -9.983   3.215  0.00  0.00    +0.379 N 
ATOM     11  C   UNL     1      -2.500  -9.420   2.075  0.00  0.00    -0.082 C 
ATOM     12  C   UNL     1      -2.672  -7.912   2.268  0.00  0.00    -0.011 C 
ATOM     13  H   UNL     1      -1.702 -10.985   3.110  0.00  0.00    -0.086 HD
ATOM     14  H   UNL     1      -2.258  -9.767   4.069  0.00  0.00    -0.086 HD
ENDBRANCH   3   7
BRANCH   1  19
ATOM     15  C   UNL     1       0.007   1.513   0.013  0.00  0.00    +0.007 C 
ATOM     16  C   UNL     1       0.016  -0.017   0.003  0.00  0.00    -0.011 C 
ATOM     17  C   UNL     1      -1.424  -0.535   0.012  0.00  0.00    +0.022 C 
ATOM     18  C   UNL     1      -1.413  -2.066  -0.033  0.00  0.00    +0.105 C 
ATOM     19  N   UNL     1      -0.585  -2.565   1.074  0.00  0.00    -0.328 N 
ATOM     20  C   UNL     1       0.788  -2.062   1.212  0.00  0.00    +0.105 C 
ATOM     21  C   UNL     1       0.752  -0.531   1.243  0.00  0.00    +0.022 C 
ENDBRANCH   1  19
BRANCH   6  22
ATOM     22  N   UNL     1      -1.897  -1.703   3.392  0.00  0.00    -0.277 N 
ATOM     23  C   UNL     1      -2.055  -1.268   4.657  0.00  0.00    +0.284 C 
ATOM     24  O   UNL     1      -1.970  -2.051   5.585  0.00  0.00    -0.266 OA
ATOM     25  H   UNL     1      -1.885  -1.068   2.659  0.00  0.00    +0.155 HD
BRANCH  23  26
ATOM     26  C   UNL     1      -2.331   0.152   4.917  0.00  0.00    +0.191 A 
ATOM     27  C   UNL     1      -2.506   0.719   6.149  0.00  0.00    +0.056 A 
ATOM     28  C   UNL     1      -2.745   2.082   5.942  0.00  0.00    +0.061 A 
ATOM     29  C   UNL     1      -2.705   2.291   4.581  0.00  0.00    +0.205 A 
ATOM     30  O   UNL     1      -2.449   1.114   3.982  0.00  0.00    -0.440 OA
BRANCH  29  31
ATOM     31  C   UNL     1      -2.898   3.546   3.919  0.00  0.00    +0.138 C 
ATOM     32  N   UNL     1      -3.051   4.541   3.393  0.00  0.00    -0.188 NA
ENDBRANCH  29  31
ENDBRANCH  23  26
ENDBRANCH   6  22
TORSDOF 5
