REMARK  Name = CHEMBL398933
REMARK  4 active torsions:
REMARK  status: ('A' for Active; 'I' for Inactive)
REMARK    1  A    between atoms: C_4  and  N_18
REMARK    2  A    between atoms: C_5  and  N_7
REMARK    3  A    between atoms: C_8  and  C_10
REMARK    4  A    between atoms: C_12  and  C_16
REMARK                            x       y       z     vdW  Elec       q    Type
REMARK                         _______ _______ _______ _____ _____    ______ ____
ROOT
ATOM      1  C   UNL     1      -0.033   1.372  -0.012  0.00  0.00    +0.002 A 
ATOM      2  C   UNL     1       1.149   2.090  -0.025  0.00  0.00    +0.002 A 
ATOM      3  C   UNL     1       2.364   1.429  -0.037  0.00  0.00    +0.025 A 
ATOM      4  C   UNL     1       2.398   0.042  -0.036  0.00  0.00    +0.051 A 
ATOM      5  C   UNL     1       1.206  -0.681  -0.022  0.00  0.00    +0.055 A 
ATOM      6  C   UNL     1      -0.008  -0.010  -0.010  0.00  0.00    +0.025 A 
ENDROOT
BRANCH   4   7
ATOM      7  N   UNL     1       3.626  -0.629  -0.049  0.00  0.00    -0.328 N 
ATOM      8  C   UNL     1       4.272  -0.984  -1.320  0.00  0.00    +0.105 C 
ATOM      9  C   UNL     1       5.702  -0.435  -1.317  0.00  0.00    +0.019 C 
ATOM     10  C   UNL     1       6.437  -0.945  -0.074  0.00  0.00    +0.003 C 
ATOM     11  C   UNL     1       5.724  -0.443   1.183  0.00  0.00    +0.019 C 
ATOM     12  C   UNL     1       4.297  -0.986   1.208  0.00  0.00    +0.105 C 
ENDBRANCH   4   7
BRANCH   5  13
ATOM     13  N   UNL     1       1.234  -2.082  -0.021  0.00  0.00    -0.279 N 
ATOM     14  C   UNL     1       0.294  -2.774   0.654  0.00  0.00    +0.265 C 
ATOM     15  O   UNL     1      -0.624  -2.186   1.194  0.00  0.00    -0.268 OA
ATOM     16  H   UNL     1       1.929  -2.553  -0.506  0.00  0.00    +0.155 HD
BRANCH  14  17
ATOM     17  C   UNL     1       0.379  -4.237   0.737  0.00  0.00    +0.103 A 
ATOM     18  C   UNL     1      -0.504  -5.053   1.381  0.00  0.00    +0.051 A 
ATOM     19  C   UNL     1      -0.044  -6.378   1.210  0.00  0.00    +0.070 A 
ATOM     20  C   UNL     1       1.114  -6.311   0.460  0.00  0.00    +0.102 A 
ATOM     21  N   UNL     1       1.361  -5.021   0.174  0.00  0.00    -0.356 N 
ATOM     22  H   UNL     1       2.113  -4.694  -0.345  0.00  0.00    +0.166 HD
BRANCH  19  23
ATOM     23  C   UNL     1      -0.662  -7.565   1.718  0.00  0.00    +0.101 C 
ATOM     24  N   UNL     1      -1.153  -8.507   2.121  0.00  0.00    -0.191 NA
ENDBRANCH  19  23
ENDBRANCH  14  17
ENDBRANCH   5  13
TORSDOF 4
