REMARK  Name = CHEMBL256950
REMARK  5 active torsions:
REMARK  status: ('A' for Active; 'I' for Inactive)
REMARK    1  A    between atoms: C_3  and  N_18
REMARK    2  A    between atoms: C_4  and  C_13
REMARK    3  A    between atoms: C_6  and  C_7
REMARK    4  A    between atoms: C_19  and  C_21
REMARK    5  A    between atoms: C_23  and  C_26
REMARK                            x       y       z     vdW  Elec       q    Type
REMARK                         _______ _______ _______ _____ _____    ______ ____
ROOT
ATOM      1  C   UNL     1      -0.020   1.395   0.031  0.00  0.00    +0.006 A 
ATOM      2  C   UNL     1       1.166   2.105   0.015  0.00  0.00    +0.024 A 
ATOM      3  C   UNL     1       2.378   1.432  -0.004  0.00  0.00    +0.041 A 
ATOM      4  C   UNL     1       2.395   0.030  -0.007  0.00  0.00    -0.001 A 
ATOM      5  C   UNL     1       1.191  -0.674   0.009  0.00  0.00    +0.014 A 
ATOM      6  C   UNL     1      -0.007   0.011   0.028  0.00  0.00    -0.044 A 
ENDROOT
BRANCH   6   7
ATOM      7  C   UNL     1      -1.307  -0.751   0.046  0.00  0.00    +0.016 C 
ATOM      8  C   UNL     1      -2.136  -0.378  -1.186  0.00  0.00    -0.011 C 
ATOM      9  C   UNL     1      -3.487  -1.094  -1.121  0.00  0.00    -0.082 C 
ATOM     10  N   UNL     1      -4.202  -0.687   0.095  0.00  0.00    +0.379 N 
ATOM     11  C   UNL     1      -3.447  -1.106   1.282  0.00  0.00    -0.082 C 
ATOM     12  C   UNL     1      -2.095  -0.390   1.308  0.00  0.00    -0.011 C 
ATOM     13  H   UNL     1      -4.308   0.316   0.102  0.00  0.00    -0.086 HD
ATOM     14  H   UNL     1      -5.114  -1.119   0.108  0.00  0.00    -0.086 HD
ENDBRANCH   6   7
BRANCH   4  15
ATOM     15  C   UNL     1       3.680  -0.698  -0.028  0.00  0.00    -0.042 C 
ATOM     16  C   UNL     1       4.459  -0.816  -1.090  0.00  0.00    -0.023 C 
ATOM     17  C   UNL     1       5.695  -1.621  -0.763  0.00  0.00    +0.028 C 
ATOM     18  C   UNL     1       5.765  -1.629   0.781  0.00  0.00    +0.009 C 
ATOM     19  C   UNL     1       4.286  -1.403   1.163  0.00  0.00    +0.036 C 
ENDBRANCH   4  15
BRANCH   3  20
ATOM     20  N   UNL     1       3.577   2.147  -0.021  0.00  0.00    -0.278 N 
ATOM     21  C   UNL     1       3.654   3.317  -0.685  0.00  0.00    +0.286 C 
ATOM     22  O   UNL     1       2.660   3.790  -1.201  0.00  0.00    -0.266 OA
ATOM     23  H   UNL     1       4.354   1.802   0.446  0.00  0.00    +0.155 HD
BRANCH  21  24
ATOM     24  C   UNL     1       4.946   4.024  -0.787  0.00  0.00    +0.217 A 
ATOM     25  N   UNL     1       5.151   5.211  -1.424  0.00  0.00    -0.211 NA
ATOM     26  C   UNL     1       6.481   5.516  -1.284  0.00  0.00    +0.161 A 
ATOM     27  C   UNL     1       7.045   4.486  -0.555  0.00  0.00    +0.152 A 
ATOM     28  N   UNL     1       6.086   3.612  -0.272  0.00  0.00    -0.229 NA
BRANCH  26  29
ATOM     29  C   UNL     1       7.154   6.673  -1.794  0.00  0.00    +0.121 C 
ATOM     30  N   UNL     1       7.687   7.591  -2.198  0.00  0.00    -0.189 NA
ENDBRANCH  26  29
ENDBRANCH  21  24
ENDBRANCH   3  20
TORSDOF 5
