REMARK  Name = CHEMBL1088040
REMARK  6 active torsions:
REMARK  status: ('A' for Active; 'I' for Inactive)
REMARK    1  A    between atoms: C_1  and  N_2
REMARK    2  A    between atoms: C_4  and  C_7
REMARK    3  A    between atoms: C_10  and  N_23
REMARK    4  A    between atoms: C_11  and  N_13
REMARK    5  A    between atoms: N_13  and  C_14
REMARK    6  A    between atoms: C_14  and  C_15
REMARK                            x       y       z     vdW  Elec       q    Type
REMARK                         _______ _______ _______ _____ _____    ______ ____
ROOT
ATOM      1  C   UNL     1       0.041  -3.290  -1.541  0.00  0.00    +0.094 A 
ATOM      2  C   UNL     1       0.142  -3.150  -2.921  0.00  0.00    +0.141 A 
ATOM      3  N   UNL     1       0.153  -4.221  -3.698  0.00  0.00    -0.235 NA
ATOM      4  C   UNL     1       0.068  -5.430  -3.164  0.00  0.00    +0.156 A 
ATOM      5  C   UNL     1      -0.035  -5.575  -1.774  0.00  0.00    +0.160 A 
ATOM      6  N   UNL     1      -0.040  -4.503  -0.998  0.00  0.00    -0.227 NA
ENDROOT
BRANCH   1  10
ATOM      7  C   UNL     1      -0.018   1.461   0.010  0.00  0.00    +0.172 C 
ATOM      8  N   UNL     1       0.002  -0.004   0.002  0.00  0.00    -0.274 N 
ATOM      9  C   UNL     1       0.008  -0.788  -1.094  0.00  0.00    +0.118 A 
ATOM     10  C   UNL     1       0.028  -2.086  -0.673  0.00  0.00    +0.039 A 
ATOM     11  C   UNL     1       0.035  -2.076   0.736  0.00  0.00    +0.144 A 
ATOM     12  N   UNL     1       0.025  -0.831   1.132  0.00  0.00    -0.179 NA
ENDBRANCH   1  10
BRANCH   4  13
ATOM     13  N   UNL     1       0.079  -6.556  -3.984  0.00  0.00    -0.340 N 
ATOM     14  H   UNL     1       0.150  -6.455  -4.946  0.00  0.00    +0.144 HD
ATOM     15  H   UNL     1       0.017  -7.441  -3.592  0.00  0.00    +0.144 HD
ENDBRANCH   4  13
BRANCH   5  16
ATOM     16  N   UNL     1      -0.125  -6.845  -1.210  0.00  0.00    -0.322 N 
ATOM     17  H   UNL     1      -0.117  -7.630  -1.780  0.00  0.00    +0.148 HD
BRANCH  16  18
ATOM     18  C   UNL     1      -0.232  -6.995   0.243  0.00  0.00    +0.141 C 
BRANCH  18  19
ATOM     19  C   UNL     1      -0.315  -8.459   0.592  0.00  0.00    +0.006 A 
ATOM     20  C   UNL     1      -1.547  -9.084   0.663  0.00  0.00    +0.047 A 
ATOM     21  C   UNL     1      -1.623 -10.428   0.984  0.00  0.00    +0.020 A 
ATOM     22  C   UNL     1      -0.468 -11.146   1.233  0.00  0.00    +0.003 A 
ATOM     23  C   UNL     1       0.763 -10.521   1.161  0.00  0.00    +0.020 A 
ATOM     24  C   UNL     1       0.840  -9.179   0.835  0.00  0.00    +0.047 A 
ATOM     25 CL   UNL     1       2.387  -8.397   0.738  0.00  0.00    -0.083 Cl
ATOM     26 CL   UNL     1      -2.998  -8.183   0.352  0.00  0.00    -0.083 Cl
ENDBRANCH  18  19
ENDBRANCH  16  18
ENDBRANCH   5  16
TORSDOF 5
