REMARK  Name = CHEMBL518051
REMARK  4 active torsions:
REMARK  status: ('A' for Active; 'I' for Inactive)
REMARK    1  A    between atoms: C_3  and  N_8
REMARK    2  A    between atoms: C_15  and  C_17
REMARK    3  A    between atoms: C_17  and  C_18
REMARK    4  A    between atoms: C_18  and  N_19
REMARK                            x       y       z     vdW  Elec       q    Type
REMARK                         _______ _______ _______ _____ _____    ______ ____
ROOT
ATOM      1  N   UNL     1       3.584   2.125  -0.021  0.00  0.00    -0.269 N 
ATOM      2  C   UNL     1       4.758   1.470   0.066  0.00  0.00    +0.310 C 
ATOM      3  O   UNL     1       4.778   0.255   0.060  0.00  0.00    -0.252 OA
ATOM      4  N   UNL     1       5.911   2.163   0.160  0.00  0.00    -0.248 N 
ATOM      5  C   UNL     1       7.122   1.487   0.249  0.00  0.00    +0.166 A 
ATOM      6  N   UNL     1       7.336   0.189   0.252  0.00  0.00    -0.233 NA
ATOM      7  C   UNL     1       8.559  -0.301   0.344  0.00  0.00    +0.124 A 
ATOM      8  C   UNL     1       9.575   0.592   0.436  0.00  0.00    +0.013 A 
ATOM      9  S   UNL     1       8.672   2.131   0.374  0.00  0.00    -0.057 S 
ATOM     10  H   UNL     1       3.572   3.092  -0.094  0.00  0.00    +0.156 HD
ATOM     11  H   UNL     1       5.895   3.132   0.165  0.00  0.00    +0.158 HD
ENDROOT
BRANCH   1  14
ATOM     12  C   UNL     1       1.086  -0.460   0.752  0.00  0.00    +0.003 A 
ATOM     13  C   UNL     1       2.275   0.244   0.739  0.00  0.00    +0.023 A 
ATOM     14  C   UNL     1       2.381   1.410  -0.006  0.00  0.00    +0.036 A 
ATOM     15  C   UNL     1       1.292   1.866  -0.737  0.00  0.00    +0.043 A 
ATOM     16  C   UNL     1       0.105   1.158  -0.720  0.00  0.00    +0.043 A 
ATOM     17  C   UNL     1       0.003  -0.005   0.025  0.00  0.00    +0.020 A 
ATOM     18 CL   UNL     1      -1.258   1.726  -1.632  0.00  0.00    -0.083 Cl
ENDBRANCH   1  14
BRANCH   8  19
ATOM     19  C   UNL     1      11.058   0.351   0.553  0.00  0.00    +0.062 C 
BRANCH  19  20
ATOM     20  C   UNL     1      11.675   0.286  -0.846  0.00  0.00    +0.108 C 
BRANCH  20  21
ATOM     21  N   UNL     1      13.117   0.052  -0.733  0.00  0.00    -0.328 N 
ATOM     22  C   UNL     1      13.895  -0.045  -1.875  0.00  0.00    +0.136 A 
ATOM     23  C   UNL     1      15.258  -0.271  -1.789  0.00  0.00    +0.077 A 
ATOM     24  C   UNL     1      16.055  -0.372  -2.949  0.00  0.00    +0.083 A 
ATOM     25  C   UNL     1      17.424  -0.602  -2.720  0.00  0.00    +0.036 A 
ATOM     26  C   UNL     1      17.891  -0.713  -1.462  0.00  0.00    +0.048 A 
ATOM     27  S   UNL     1      16.422  -0.497  -0.471  0.00  0.00    -0.092 S 
ATOM     28  N   UNL     1      15.397  -0.232  -4.126  0.00  0.00    -0.235 NA
ATOM     29  C   UNL     1      14.107  -0.019  -4.165  0.00  0.00    +0.223 A 
ATOM     30  N   UNL     1      13.349   0.072  -3.086  0.00  0.00    -0.220 NA
ATOM     31  H   UNL     1      13.527  -0.035   0.142  0.00  0.00    +0.147 HD
ENDBRANCH  20  21
ENDBRANCH  19  20
ENDBRANCH   8  19
TORSDOF 4
