REMARK  Name = CHEMBL257664
REMARK  7 active torsions:
REMARK  status: ('A' for Active; 'I' for Inactive)
REMARK    1  A    between atoms: C_1  and  N_2
REMARK    2  A    between atoms: C_3  and  C_5
REMARK    3  A    between atoms: N_7  and  C_30
REMARK    4  A    between atoms: N_16  and  C_17
REMARK    5  A    between atoms: C_20  and  N_23
REMARK    6  A    between atoms: N_26  and  C_29
REMARK    7  A    between atoms: C_30  and  C_31
REMARK                            x       y       z     vdW  Elec       q    Type
REMARK                         _______ _______ _______ _____ _____    ______ ____
ROOT
ATOM      1  C   UNL     1      -1.071  -2.137  -0.807  0.00  0.00    +0.100 A 
ATOM      2  C   UNL     1      -2.255  -2.835  -0.715  0.00  0.00    +0.104 A 
ATOM      3  N   UNL     1      -2.295  -4.176  -0.656  0.00  0.00    -0.326 N 
ATOM      4  C   UNL     1      -1.166  -4.953  -0.682  0.00  0.00    +0.150 A 
ATOM      5  C   UNL     1       0.107  -4.353  -0.774  0.00  0.00    +0.083 A 
ATOM      6  C   UNL     1       0.197  -2.888  -0.848  0.00  0.00    +0.204 A 
ATOM      7  O   UNL     1       1.271  -2.319  -0.934  0.00  0.00    -0.286 OA
ATOM      8  C   UNL     1       1.241  -5.167  -0.799  0.00  0.00    +0.129 A 
ATOM      9  N   UNL     1       1.077  -6.476  -0.735  0.00  0.00    -0.222 NA
ATOM     10  C   UNL     1      -0.136  -7.012  -0.648  0.00  0.00    +0.221 A 
ATOM     11  N   UNL     1      -1.238  -6.278  -0.622  0.00  0.00    -0.196 NA
ATOM     12  N   UNL     1      -0.252  -8.386  -0.584  0.00  0.00    -0.284 N 
ATOM     13  H   UNL     1      -1.129  -8.800  -0.598  0.00  0.00    +0.155 HD
ENDROOT
BRANCH  12  14
ATOM     14  C   UNL     1       0.897  -9.183  -0.500  0.00  0.00    +0.034 A 
ATOM     15  C   UNL     1       2.014  -8.720   0.183  0.00  0.00    +0.025 A 
ATOM     16  C   UNL     1       3.147  -9.505   0.266  0.00  0.00    +0.025 A 
ATOM     17  C   UNL     1       3.170 -10.758  -0.333  0.00  0.00    +0.030 A 
ATOM     18  C   UNL     1       2.052 -11.220  -1.016  0.00  0.00    +0.025 A 
ATOM     19  C   UNL     1       0.918 -10.438  -1.095  0.00  0.00    +0.025 A 
BRANCH  17  20
ATOM     20  N   UNL     1       4.318 -11.553  -0.250  0.00  0.00    -0.333 N 
ATOM     21  C   UNL     1       4.412 -12.825  -0.983  0.00  0.00    +0.086 C 
ATOM     22  C   UNL     1       5.730 -12.840  -1.763  0.00  0.00    -0.060 C 
ATOM     23  N   UNL     1       6.846 -12.587  -0.843  0.00  0.00    +0.380 N 
ATOM     24  C   UNL     1       6.734 -11.235  -0.281  0.00  0.00    -0.060 C 
ATOM     25  C   UNL     1       5.468 -11.138   0.568  0.00  0.00    +0.086 C 
ATOM     26  C   UNL     1       8.116 -12.710  -1.570  0.00  0.00    -0.096 C 
ATOM     27  H   UNL     1       6.823 -13.264  -0.094  0.00  0.00    -0.082 HD
ENDBRANCH  17  20
ENDBRANCH  12  14
BRANCH   1  30
ATOM     28  C   UNL     1       0.065   1.455  -1.248  0.00  0.00    +0.128 C 
ATOM     29  N   UNL     1       0.081  -0.000  -1.077  0.00  0.00    -0.314 N 
ATOM     30  C   UNL     1      -1.072  -0.667  -0.869  0.00  0.00    +0.249 C 
ATOM     31  O   UNL     1      -2.113  -0.053  -0.733  0.00  0.00    -0.270 OA
ATOM     32  H   UNL     1       0.921  -0.484  -1.113  0.00  0.00    +0.149 HD
ENDBRANCH   1  30
BRANCH   3  33
ATOM     33  C   UNL     1      -3.600  -4.836  -0.559  0.00  0.00    +0.158 C 
BRANCH  33  34
ATOM     34  C   UNL     1      -4.121  -5.122  -1.944  0.00  0.00    -0.028 A 
ATOM     35  C   UNL     1      -4.897  -4.184  -2.598  0.00  0.00    +0.005 A 
ATOM     36  C   UNL     1      -5.376  -4.447  -3.868  0.00  0.00    +0.000 A 
ATOM     37  C   UNL     1      -5.078  -5.648  -4.484  0.00  0.00    +0.000 A 
ATOM     38  C   UNL     1      -4.301  -6.586  -3.830  0.00  0.00    +0.000 A 
ATOM     39  C   UNL     1      -3.819  -6.321  -2.562  0.00  0.00    +0.005 A 
ENDBRANCH  33  34
ENDBRANCH   3  33
TORSDOF 5
