REMARK  Name = CHEMBL249957
REMARK  5 active torsions:
REMARK  status: ('A' for Active; 'I' for Inactive)
REMARK    1  A    between atoms: C_3  and  N_23
REMARK    2  A    between atoms: C_4  and  N_13
REMARK    3  A    between atoms: C_6  and  N_7
REMARK    4  A    between atoms: C_14  and  C_16
REMARK    5  A    between atoms: C_19  and  C_21
REMARK                            x       y       z     vdW  Elec       q    Type
REMARK                         _______ _______ _______ _____ _____    ______ ____
ROOT
ATOM      1  C   UNL     1       0.018   1.101  -0.007  0.00  0.00    +0.025 A 
ATOM      2  C   UNL     1       1.130   1.922   0.018  0.00  0.00    +0.027 A 
ATOM      3  C   UNL     1       2.401   1.370   0.005  0.00  0.00    +0.051 A 
ATOM      4  C   UNL     1       2.558  -0.016  -0.032  0.00  0.00    +0.057 A 
ATOM      5  C   UNL     1       1.441  -0.837  -0.055  0.00  0.00    +0.048 A 
ATOM      6  C   UNL     1       0.170  -0.278  -0.043  0.00  0.00    +0.032 A 
ENDROOT
BRANCH   6   7
ATOM      7  N   UNL     1      -0.958  -1.106  -0.067  0.00  0.00    -0.330 N 
ATOM      8  C   UNL     1      -0.817  -2.566   0.017  0.00  0.00    +0.105 C 
ATOM      9  C   UNL     1      -1.694  -3.081   1.163  0.00  0.00    +0.019 C 
ATOM     10  C   UNL     1      -3.131  -2.599   0.956  0.00  0.00    +0.003 C 
ATOM     11  C   UNL     1      -3.166  -1.069   0.972  0.00  0.00    +0.019 C 
ATOM     12  C   UNL     1      -2.307  -0.531  -0.170  0.00  0.00    +0.105 C 
ENDBRANCH   6   7
BRANCH   3  13
ATOM     13  N   UNL     1       3.529   2.203   0.028  0.00  0.00    -0.328 N 
ATOM     14  C   UNL     1       4.129   2.686  -1.223  0.00  0.00    +0.105 C 
ATOM     15  C   UNL     1       4.232   4.213  -1.163  0.00  0.00    +0.019 C 
ATOM     16  C   UNL     1       4.997   4.619   0.099  0.00  0.00    +0.003 C 
ATOM     17  C   UNL     1       4.236   4.138   1.336  0.00  0.00    +0.019 C 
ATOM     18  C   UNL     1       4.129   2.615   1.305  0.00  0.00    +0.105 C 
ENDBRANCH   3  13
BRANCH   4  19
ATOM     19  N   UNL     1       3.841  -0.577  -0.045  0.00  0.00    -0.277 N 
ATOM     20  C   UNL     1       4.035  -1.804  -0.568  0.00  0.00    +0.284 C 
ATOM     21  O   UNL     1       3.117  -2.382  -1.119  0.00  0.00    -0.266 OA
ATOM     22  H   UNL     1       4.590  -0.082   0.322  0.00  0.00    +0.155 HD
BRANCH  20  23
ATOM     23  C   UNL     1       5.354  -2.443  -0.472  0.00  0.00    +0.191 A 
ATOM     24  C   UNL     1       5.681  -3.676  -0.963  0.00  0.00    +0.056 A 
ATOM     25  C   UNL     1       7.029  -3.895  -0.657  0.00  0.00    +0.061 A 
ATOM     26  C   UNL     1       7.471  -2.776   0.014  0.00  0.00    +0.205 A 
ATOM     27  O   UNL     1       6.446  -1.910   0.110  0.00  0.00    -0.440 OA
BRANCH  26  28
ATOM     28  C   UNL     1       8.795  -2.569   0.519  0.00  0.00    +0.138 C 
ATOM     29  N   UNL     1       9.846  -2.404   0.919  0.00  0.00    -0.188 NA
ENDBRANCH  26  28
ENDBRANCH  20  23
ENDBRANCH   4  19
TORSDOF 5
