REMARK  Name = CHEMBL481402
REMARK  11 active torsions:
REMARK  status: ('A' for Active; 'I' for Inactive)
REMARK    1  A    between atoms: C_1  and  N_2
REMARK    2  A    between atoms: N_5  and  C_8
REMARK    3  A    between atoms: C_8  and  C_9
REMARK    4  A    between atoms: C_9  and  C_10
REMARK    5  A    between atoms: C_10  and  O_11
REMARK    6  A    between atoms: O_11  and  C_12
REMARK    7  A    between atoms: C_17  and  O_18
REMARK    8  A    between atoms: O_18  and  C_19
REMARK    9  A    between atoms: C_22  and  C_33
REMARK   10  A    between atoms: C_23  and  N_24
REMARK   11  A    between atoms: N_24  and  C_25
REMARK                            x       y       z     vdW  Elec       q    Type
REMARK                         _______ _______ _______ _____ _____    ______ ____
ROOT
ATOM      1  C   UNL     1       3.647  -9.628   3.486  0.00  0.00    +0.163 A 
ATOM      2  C   UNL     1       2.533  -9.831   2.724  0.00  0.00    +0.061 A 
ATOM      3  C   UNL     1       1.393 -10.413   3.297  0.00  0.00    +0.026 A 
ATOM      4  C   UNL     1       1.401 -10.789   4.662  0.00  0.00    +0.076 A 
ATOM      5  C   UNL     1       2.557 -10.570   5.425  0.00  0.00    +0.077 A 
ATOM      6  C   UNL     1       3.666 -10.002   4.837  0.00  0.00    +0.164 A 
ATOM      7  N   UNL     1       0.313 -11.347   5.215  0.00  0.00    -0.254 NA
ATOM      8  C   UNL     1      -0.780 -11.564   4.530  0.00  0.00    +0.126 A 
ATOM      9  C   UNL     1      -0.877 -11.223   3.172  0.00  0.00    +0.076 A 
ATOM     10  C   UNL     1       0.224 -10.635   2.531  0.00  0.00    +0.054 A 
ENDROOT
BRANCH   9  11
ATOM     11  C   UNL     1      -2.120 -11.480   2.428  0.00  0.00    +0.245 C 
ATOM     12  O   UNL     1      -2.233 -11.095   1.279  0.00  0.00    -0.270 OA
ATOM     13  N   UNL     1      -3.135 -12.143   3.018  0.00  0.00    -0.325 N 
ATOM     14  H   UNL     1      -3.045 -12.450   3.934  0.00  0.00    +0.145 HD
ATOM     15  H   UNL     1      -3.954 -12.312   2.528  0.00  0.00    +0.145 HD
ENDBRANCH   9  11
BRANCH   6  16
ATOM     16  O   UNL     1       4.787  -9.797   5.576  0.00  0.00    -0.491 OA
ATOM     17  C   UNL     1       4.744 -10.200   6.947  0.00  0.00    +0.277 C 
ENDBRANCH   6  16
BRANCH  10  18
ATOM     18  N   UNL     1       0.169 -10.285   1.198  0.00  0.00    -0.313 N 
ATOM     19  H   UNL     1      -0.062  -9.378   0.944  0.00  0.00    +0.152 HD
BRANCH  18  20
ATOM     20  C   UNL     1       0.447 -11.238   0.213  0.00  0.00    +0.033 A 
ATOM     21  C   UNL     1       0.640 -12.568   0.566  0.00  0.00    +0.026 A 
ATOM     22  C   UNL     1       0.914 -13.507  -0.408  0.00  0.00    +0.041 A 
ATOM     23  C   UNL     1       0.997 -13.125  -1.737  0.00  0.00    +0.142 A 
ATOM     24  C   UNL     1       0.805 -11.800  -2.092  0.00  0.00    +0.078 A 
ATOM     25  C   UNL     1       0.525 -10.857  -1.120  0.00  0.00    +0.046 A 
ATOM     26 CL   UNL     1       0.910 -11.324  -3.758  0.00  0.00    -0.081 Cl
ATOM     27  F   UNL     1       1.266 -14.046  -2.688  0.00  0.00    -0.204 F 
ENDBRANCH  18  20
ENDBRANCH  10  18
BRANCH   1  28
ATOM     28  O   UNL     1       4.751  -9.063   2.929  0.00  0.00    -0.488 OA
BRANCH  28  29
ATOM     29  C   UNL     1       4.669  -8.705   1.548  0.00  0.00    +0.230 C 
BRANCH  29  30
ATOM     30  C   UNL     1       5.997  -8.089   1.101  0.00  0.00    +0.056 C 
BRANCH  30  31
ATOM     31  C   UNL     1       5.909  -7.705  -0.377  0.00  0.00    +0.087 C 
BRANCH  31  36
ATOM     32  C   UNL     1      10.730  -6.246  -2.903  0.00  0.00    -0.096 C 
ATOM     33  N   UNL     1       9.458  -6.872  -2.517  0.00  0.00    +0.379 N 
ATOM     34  C   UNL     1       8.392  -5.862  -2.528  0.00  0.00    -0.064 C 
ATOM     35  C   UNL     1       7.064  -6.518  -2.144  0.00  0.00    +0.066 C 
ATOM     36  N   UNL     1       7.183  -7.113  -0.806  0.00  0.00    -0.306 NA
ATOM     37  C   UNL     1       8.264  -8.109  -0.773  0.00  0.00    +0.066 C 
ATOM     38  C   UNL     1       9.582  -7.441  -1.168  0.00  0.00    -0.064 C 
ATOM     39  H   UNL     1       9.232  -7.606  -3.171  0.00  0.00    -0.082 HD
ENDBRANCH  31  36
ENDBRANCH  30  31
ENDBRANCH  29  30
ENDBRANCH  28  29
ENDBRANCH   1  28
TORSDOF 9
