REMARK  Name = CHEMBL521580
REMARK  9 active torsions:
REMARK  status: ('A' for Active; 'I' for Inactive)
REMARK    1  A    between atoms: C_1  and  C_2
REMARK    2  A    between atoms: C_2  and  C_38
REMARK    3  A    between atoms: C_5  and  N_8
REMARK    4  A    between atoms: C_10  and  C_33
REMARK    5  A    between atoms: N_19  and  C_20
REMARK    6  A    between atoms: C_23  and  C_26
REMARK    7  A    between atoms: N_29  and  C_32
REMARK    8  A    between atoms: N_35  and  O_36
REMARK    9  A    between atoms: O_36  and  C_37
REMARK                            x       y       z     vdW  Elec       q    Type
REMARK                         _______ _______ _______ _____ _____    ______ ____
ROOT
ATOM      1  N   UNL     1      -0.430  -4.361   0.895  0.00  0.00    -0.328 N 
ATOM      2  C   UNL     1       0.154  -5.127  -0.040  0.00  0.00    +0.104 A 
ATOM      3  C   UNL     1       0.130  -6.503   0.016  0.00  0.00    +0.102 A 
ATOM      4  C   UNL     1      -0.561  -7.158   1.140  0.00  0.00    +0.205 A 
ATOM      5  O   UNL     1      -0.611  -8.372   1.236  0.00  0.00    -0.286 OA
ATOM      6  C   UNL     1      -1.187  -6.282   2.141  0.00  0.00    +0.083 A 
ATOM      7  C   UNL     1      -1.090  -4.885   1.977  0.00  0.00    +0.150 A 
ATOM      8  N   UNL     1      -1.655  -4.100   2.888  0.00  0.00    -0.196 NA
ATOM      9  C   UNL     1      -2.288  -4.625   3.926  0.00  0.00    +0.221 A 
ATOM     10  N   UNL     1      -2.392  -5.937   4.111  0.00  0.00    -0.222 NA
ATOM     11  C   UNL     1      -1.868  -6.790   3.248  0.00  0.00    +0.129 A 
ATOM     12  N   UNL     1      -2.863  -3.777   4.852  0.00  0.00    -0.284 N 
ATOM     13  H   UNL     1      -2.869  -2.820   4.694  0.00  0.00    +0.155 HD
ENDROOT
BRANCH   1  18
ATOM     14  C   UNL     1       0.604   0.998  -0.850  0.00  0.00    +0.011 C 
ATOM     15  C   UNL     1       0.526  -0.523  -0.705  0.00  0.00    -0.035 C 
ATOM     16  C   UNL     1      -0.941  -0.960  -0.699  0.00  0.00    +0.008 C 
ATOM     17  C   UNL     1      -1.019  -2.481  -0.555  0.00  0.00    +0.025 C 
ATOM     18  C   UNL     1      -0.355  -2.904   0.757  0.00  0.00    +0.089 C 
ATOM     19  C   UNL     1       1.111  -2.467   0.751  0.00  0.00    +0.025 C 
ATOM     20  C   UNL     1       1.189  -0.946   0.607  0.00  0.00    +0.008 C 
ATOM     21  C   UNL     1       1.250  -1.185  -1.879  0.00  0.00    +0.011 C 
ENDBRANCH   1  18
BRANCH  12  22
ATOM     22  C   UNL     1      -3.435  -4.297   6.016  0.00  0.00    +0.034 A 
ATOM     23  C   UNL     1      -2.873  -5.409   6.631  0.00  0.00    +0.023 A 
ATOM     24  C   UNL     1      -3.441  -5.921   7.781  0.00  0.00    +0.006 A 
ATOM     25  C   UNL     1      -4.567  -5.327   8.321  0.00  0.00    -0.044 A 
ATOM     26  C   UNL     1      -5.129  -4.220   7.712  0.00  0.00    +0.006 A 
ATOM     27  C   UNL     1      -4.563  -3.700   6.565  0.00  0.00    +0.023 A 
BRANCH  25  28
ATOM     28  C   UNL     1      -5.185  -5.889   9.576  0.00  0.00    +0.016 C 
ATOM     29  C   UNL     1      -6.631  -6.306   9.293  0.00  0.00    -0.011 C 
ATOM     30  C   UNL     1      -7.276  -6.801  10.589  0.00  0.00    -0.079 C 
ATOM     31  N   UNL     1      -7.262  -5.726  11.588  0.00  0.00    +0.378 N 
ATOM     32  C   UNL     1      -5.877  -5.370  11.918  0.00  0.00    -0.079 C 
ATOM     33  C   UNL     1      -5.178  -4.820  10.673  0.00  0.00    -0.011 C 
ATOM     34  C   UNL     1      -7.952  -6.180  12.803  0.00  0.00    -0.096 C 
ATOM     35  H   UNL     1      -7.737  -4.917  11.217  0.00  0.00    -0.082 HD
ENDBRANCH  25  28
ENDBRANCH  12  22
BRANCH   3  36
ATOM     36  C   UNL     1       0.783  -7.305  -1.031  0.00  0.00    +0.272 C 
ATOM     37  O   UNL     1       1.261  -6.759  -2.007  0.00  0.00    -0.268 OA
ATOM     38  N   UNL     1       0.852  -8.646  -0.908  0.00  0.00    -0.191 N 
ATOM     39  H   UNL     1       0.542  -9.075  -0.095  0.00  0.00    +0.183 HD
BRANCH  38  40
ATOM     40  O   UNL     1       1.377  -9.428  -1.965  0.00  0.00    -0.283 OA
ATOM     41  C   UNL     1       1.391 -10.831  -1.699  0.00  0.00    +0.226 C 
ENDBRANCH  38  40
ENDBRANCH   3  36
TORSDOF 5
