REMARK  Name = CHEMBL576982
REMARK  10 active torsions:
REMARK  status: ('A' for Active; 'I' for Inactive)
REMARK    1  A    between atoms: C_1  and  C_2
REMARK    2  A    between atoms: C_2  and  C_3
REMARK    3  A    between atoms: C_2  and  C_4
REMARK    4  A    between atoms: C_2  and  C_5
REMARK    5  A    between atoms: N_13  and  C_14
REMARK    6  A    between atoms: C_17  and  C_20
REMARK    7  A    between atoms: C_26  and  O_32
REMARK    8  A    between atoms: O_32  and  C_33
REMARK    9  A    between atoms: C_33  and  C_34
REMARK   10  A    between atoms: C_34  and  N_35
REMARK                            x       y       z     vdW  Elec       q    Type
REMARK                         _______ _______ _______ _____ _____    ______ ____
ROOT
ATOM      1  C   UNL     1       6.681   0.805  -2.900  0.00  0.00    +0.035 A 
ATOM      2  C   UNL     1       6.698   1.393  -1.641  0.00  0.00    +0.024 A 
ATOM      3  C   UNL     1       7.803   2.106  -1.227  0.00  0.00    +0.012 A 
ATOM      4  C   UNL     1       8.905   2.236  -2.072  0.00  0.00    +0.002 A 
ATOM      5  C   UNL     1       8.885   1.645  -3.334  0.00  0.00    +0.012 A 
ATOM      6  C   UNL     1       7.780   0.929  -3.742  0.00  0.00    +0.024 A 
ENDROOT
BRANCH   4   7
ATOM      7  C   UNL     1      10.094   3.003  -1.629  0.00  0.00    +0.090 A 
ATOM      8  C   UNL     1      11.222   3.210  -2.350  0.00  0.00    +0.122 A 
ATOM      9  N   UNL     1      12.083   3.975  -1.569  0.00  0.00    -0.293 N 
ATOM     10  C   UNL     1      13.367   4.521  -1.710  0.00  0.00    +0.063 A 
ATOM     11  C   UNL     1      14.206   4.410  -2.831  0.00  0.00    +0.031 A 
ATOM     12  C   UNL     1      15.449   4.995  -2.842  0.00  0.00    +0.048 A 
ATOM     13  C   UNL     1      15.915   5.715  -1.749  0.00  0.00    +0.122 A 
ATOM     14  C   UNL     1      15.105   5.840  -0.629  0.00  0.00    +0.062 A 
ATOM     15  C   UNL     1      13.861   5.252  -0.624  0.00  0.00    +0.043 A 
ATOM     16  S   UNL     1      12.543   5.166   0.563  0.00  0.00    -0.049 S 
ATOM     17  C   UNL     1      11.412   4.189  -0.401  0.00  0.00    +0.179 A 
ATOM     18  N   UNL     1      10.241   3.622  -0.438  0.00  0.00    -0.221 NA
BRANCH  13  19
ATOM     19  O   UNL     1      17.148   6.288  -1.775  0.00  0.00    -0.491 OA
BRANCH  19  20
ATOM     20  C   UNL     1      17.919   6.112  -2.965  0.00  0.00    +0.244 C 
BRANCH  20  21
ATOM     21  C   UNL     1      19.266   6.822  -2.809  0.00  0.00    +0.125 C 
BRANCH  21  22
ATOM     22  N   UNL     1      20.029   6.192  -1.724  0.00  0.00    -0.295 NA
ATOM     23  C   UNL     1      21.213   6.993  -1.379  0.00  0.00    +0.112 C 
ATOM     24  C   UNL     1      21.944   6.333  -0.206  0.00  0.00    +0.175 C 
ATOM     25  O   UNL     1      22.283   4.989  -0.558  0.00  0.00    -0.377 OA
ATOM     26  C   UNL     1      21.154   4.181  -0.900  0.00  0.00    +0.175 C 
ATOM     27  C   UNL     1      20.415   4.819  -2.079  0.00  0.00    +0.112 C 
ENDBRANCH  21  22
ENDBRANCH  20  21
ENDBRANCH  19  20
ENDBRANCH  13  19
ENDBRANCH   4   7
BRANCH   1  36
ATOM     28  C   UNL     1       0.322   1.403  -2.063  0.00  0.00    +0.144 A 
ATOM     29  C   UNL     1       1.660   1.322  -2.175  0.00  0.00    +0.092 A 
ATOM     30  C   UNL     1       1.963   0.256  -3.053  0.00  0.00    +0.169 A 
ATOM     31  N   UNL     1       0.833  -0.274  -3.446  0.00  0.00    -0.063 NA
ATOM     32  O   UNL     1      -0.221   0.438  -2.822  0.00  0.00    -0.357 OA
ATOM     33  N   UNL     1       3.239  -0.157  -3.433  0.00  0.00    -0.251 N 
ATOM     34  C   UNL     1       4.325   0.481  -2.951  0.00  0.00    +0.309 C 
ATOM     35  O   UNL     1       4.191   1.415  -2.186  0.00  0.00    -0.252 OA
ATOM     36  N   UNL     1       5.559   0.082  -3.318  0.00  0.00    -0.269 N 
ATOM     37  H   UNL     1       3.346  -0.902  -4.044  0.00  0.00    +0.158 HD
ATOM     38  H   UNL     1       5.669  -0.707  -3.873  0.00  0.00    +0.156 HD
BRANCH  28  40
ATOM     39  C   UNL     1      -0.108   3.818  -1.699  0.00  0.00    +0.019 C 
ATOM     40  C   UNL     1      -0.436   2.400  -1.226  0.00  0.00    +0.023 C 
ATOM     41  C   UNL     1      -0.031   2.246   0.242  0.00  0.00    +0.019 C 
ATOM     42  C   UNL     1      -1.938   2.149  -1.369  0.00  0.00    +0.019 C 
ENDBRANCH  28  40
ENDBRANCH   1  36
TORSDOF 7
