REMARK  Name = CHEMBL257665
REMARK  5 active torsions:
REMARK  status: ('A' for Active; 'I' for Inactive)
REMARK    1  A    between atoms: C_1  and  N_2
REMARK    2  A    between atoms: N_5  and  C_8
REMARK    3  A    between atoms: C_11  and  N_14
REMARK    4  A    between atoms: C_21  and  C_33
REMARK    5  A    between atoms: N_23  and  C_26
REMARK                            x       y       z     vdW  Elec       q    Type
REMARK                         _______ _______ _______ _____ _____    ______ ____
ROOT
ATOM      1  N   UNL     1      -3.160  -5.941   5.680  0.00  0.00    -0.284 N 
ATOM      2  C   UNL     1      -2.159  -6.702   6.251  0.00  0.00    +0.221 A 
ATOM      3  N   UNL     1      -1.019  -6.110   6.588  0.00  0.00    -0.222 NA
ATOM      4  C   UNL     1      -0.031  -6.795   7.137  0.00  0.00    +0.129 A 
ATOM      5  C   UNL     1      -0.212  -8.162   7.357  0.00  0.00    +0.083 A 
ATOM      6  C   UNL     1       0.833  -8.999   7.963  0.00  0.00    +0.204 A 
ATOM      7  O   UNL     1       1.907  -8.533   8.300  0.00  0.00    -0.286 OA
ATOM      8  C   UNL     1       0.523 -10.429   8.144  0.00  0.00    +0.100 A 
ATOM      9  C   UNL     1      -0.709 -10.899   7.744  0.00  0.00    +0.104 A 
ATOM     10  N   UNL     1      -1.637 -10.100   7.193  0.00  0.00    -0.328 N 
ATOM     11  C   UNL     1      -1.434  -8.760   6.988  0.00  0.00    +0.150 A 
ATOM     12  N   UNL     1      -2.375  -7.994   6.446  0.00  0.00    -0.196 NA
ATOM     13  H   UNL     1      -4.030  -6.334   5.508  0.00  0.00    +0.155 HD
ENDROOT
BRANCH  10  14
ATOM     14  C   UNL     1      -2.920 -10.685   6.796  0.00  0.00    +0.092 C 
ATOM     15  C   UNL     1      -3.296 -11.851   7.739  0.00  0.00    +0.029 C 
ATOM     16  C   UNL     1      -3.373 -13.100   6.809  0.00  0.00    -0.009 C 
ATOM     17  C   UNL     1      -1.893 -13.380   6.407  0.00  0.00    +0.004 C 
ATOM     18  C   UNL     1      -1.517 -12.213   5.464  0.00  0.00    +0.006 C 
ATOM     19  C   UNL     1      -2.806 -11.339   5.386  0.00  0.00    +0.012 C 
ATOM     20  C   UNL     1      -3.914 -12.446   5.489  0.00  0.00    +0.009 C 
ENDBRANCH  10  14
BRANCH   1  24
ATOM     21  C   UNL     1      -2.441  -1.953   4.695  0.00  0.00    +0.030 A 
ATOM     22  C   UNL     1      -1.420  -2.889   4.591  0.00  0.00    +0.025 A 
ATOM     23  C   UNL     1      -1.658  -4.209   4.917  0.00  0.00    +0.025 A 
ATOM     24  C   UNL     1      -2.918  -4.601   5.349  0.00  0.00    +0.034 A 
ATOM     25  C   UNL     1      -3.939  -3.666   5.453  0.00  0.00    +0.025 A 
ATOM     26  C   UNL     1      -3.700  -2.344   5.132  0.00  0.00    +0.025 A 
BRANCH  21  31
ATOM     27  C   UNL     1      -1.901   2.533   1.604  0.00  0.00    +0.105 C 
ATOM     28  N   UNL     1      -1.924   1.670   2.793  0.00  0.00    -0.302 NA
ATOM     29  C   UNL     1      -0.914   0.609   2.693  0.00  0.00    +0.103 C 
ATOM     30  C   UNL     1      -0.846  -0.154   4.021  0.00  0.00    +0.120 C 
ATOM     31  N   UNL     1      -2.200  -0.615   4.364  0.00  0.00    -0.327 N 
ATOM     32  C   UNL     1      -3.294   0.368   4.351  0.00  0.00    +0.120 C 
ATOM     33  C   UNL     1      -3.265   1.111   3.011  0.00  0.00    +0.103 C 
ENDBRANCH  21  31
ENDBRANCH   1  24
BRANCH   8  34
ATOM     34  C   UNL     1       1.513 -11.338   8.743  0.00  0.00    +0.247 C 
ATOM     35  O   UNL     1       1.210 -12.492   8.985  0.00  0.00    -0.270 OA
ATOM     36  N   UNL     1       2.754 -10.894   9.022  0.00  0.00    -0.325 N 
ATOM     37  H   UNL     1       2.974  -9.958   8.897  0.00  0.00    +0.145 HD
ATOM     38  H   UNL     1       3.428 -11.511   9.348  0.00  0.00    +0.145 HD
ENDBRANCH   8  34
TORSDOF 4
