REMARK  Name = CHEMBL1088598
REMARK  6 active torsions:
REMARK  status: ('A' for Active; 'I' for Inactive)
REMARK    1  A    between atoms: C_4  and  C_8
REMARK    2  A    between atoms: C_8  and  N_9
REMARK    3  A    between atoms: C_14  and  C_16
REMARK    4  A    between atoms: C_19  and  C_22
REMARK    5  A    between atoms: C_28  and  C_30
REMARK    6  A    between atoms: C_30  and  N_31
REMARK                            x       y       z     vdW  Elec       q    Type
REMARK                         _______ _______ _______ _____ _____    ______ ____
ROOT
ATOM      1  N   UNL     1       5.087  -0.553   2.824  0.00  0.00    -0.322 N 
ATOM      2  C   UNL     1       6.168  -1.428   2.841  0.00  0.00    +0.160 A 
ATOM      3  C   UNL     1       6.698  -1.869   4.064  0.00  0.00    +0.156 A 
ATOM      4  N   UNL     1       7.727  -2.702   4.077  0.00  0.00    -0.235 NA
ATOM      5  C   UNL     1       8.257  -3.119   2.938  0.00  0.00    +0.141 A 
ATOM      6  C   UNL     1       7.736  -2.685   1.725  0.00  0.00    +0.091 A 
ATOM      7  N   UNL     1       6.696  -1.850   1.705  0.00  0.00    -0.227 NA
ATOM      8  N   UNL     1       6.143  -1.431   5.261  0.00  0.00    -0.340 N 
ATOM      9  H   UNL     1       4.700  -0.243   3.658  0.00  0.00    +0.148 HD
ATOM     10  H   UNL     1       5.389  -0.821   5.251  0.00  0.00    +0.144 HD
ATOM     11  H   UNL     1       6.509  -1.736   6.105  0.00  0.00    +0.144 HD
ENDROOT
BRANCH   6  12
ATOM     12  C   UNL     1       8.333  -3.154   0.452  0.00  0.00    +0.002 A 
ATOM     13  C   UNL     1       7.883  -2.635  -0.762  0.00  0.00    +0.011 A 
ATOM     14  C   UNL     1       8.437  -3.070  -1.945  0.00  0.00    +0.014 A 
ATOM     15  C   UNL     1       9.450  -4.032  -1.929  0.00  0.00    +0.037 A 
ATOM     16  C   UNL     1       9.900  -4.552  -0.712  0.00  0.00    +0.014 A 
ATOM     17  C   UNL     1       9.348  -4.112   0.469  0.00  0.00    +0.011 A 
BRANCH  15  18
ATOM     18  C   UNL     1      10.045  -4.500  -3.197  0.00  0.00    +0.247 C 
ATOM     19  O   UNL     1       9.454  -4.328  -4.246  0.00  0.00    -0.270 OA
ATOM     20  N   UNL     1      11.243  -5.117  -3.192  0.00  0.00    -0.296 N 
ATOM     21  C   UNL     1      12.019  -5.497  -4.387  0.00  0.00    +0.108 C 
ATOM     22  C   UNL     1      12.927  -6.660  -3.917  0.00  0.00    +0.021 C 
ATOM     23  C   UNL     1      13.288  -6.211  -2.476  0.00  0.00    +0.022 C 
ATOM     24  C   UNL     1      11.996  -5.518  -1.994  0.00  0.00    +0.060 C 
BRANCH  24  25
ATOM     25  C   UNL     1      12.345  -4.282  -1.162  0.00  0.00    -0.056 C 
BRANCH  25  26
ATOM     26  N   UNL     1      12.843  -4.703   0.154  0.00  0.00    +0.381 N 
ATOM     27  C   UNL     1      14.170  -5.356   0.014  0.00  0.00    -0.079 C 
ATOM     28  C   UNL     1      14.784  -5.219   1.430  0.00  0.00    -0.020 C 
ATOM     29  C   UNL     1      14.304  -3.820   1.881  0.00  0.00    -0.020 C 
ATOM     30  C   UNL     1      13.064  -3.523   1.017  0.00  0.00    -0.079 C 
ATOM     31  H   UNL     1      12.188  -5.335   0.589  0.00  0.00    -0.082 HD
ENDBRANCH  25  26
ENDBRANCH  24  25
ENDBRANCH  15  18
ENDBRANCH   6  12
BRANCH   1  32
ATOM     32  C   UNL     1       4.532  -0.098   1.547  0.00  0.00    +0.141 C 
BRANCH  32  36
ATOM     33  C   UNL     1       1.256   2.548   2.276  0.00  0.00    +0.003 A 
ATOM     34  C   UNL     1       2.539   3.051   2.163  0.00  0.00    +0.020 A 
ATOM     35  C   UNL     1       3.600   2.195   1.927  0.00  0.00    +0.047 A 
ATOM     36  C   UNL     1       3.377   0.835   1.804  0.00  0.00    +0.006 A 
ATOM     37  C   UNL     1       2.093   0.332   1.918  0.00  0.00    +0.047 A 
ATOM     38  C   UNL     1       1.033   1.190   2.154  0.00  0.00    +0.020 A 
ATOM     39 CL   UNL     1       1.812  -1.374   1.764  0.00  0.00    -0.083 Cl
ATOM     40 CL   UNL     1       5.210   2.827   1.784  0.00  0.00    -0.083 Cl
ENDBRANCH  32  36
ENDBRANCH   1  32
TORSDOF 6
