REMARK  Name = CHEMBL255955
REMARK  4 active torsions:
REMARK  status: ('A' for Active; 'I' for Inactive)
REMARK    1  A    between atoms: C_3  and  C_28
REMARK    2  A    between atoms: C_5  and  N_7
REMARK    3  A    between atoms: N_10  and  C_11
REMARK    4  A    between atoms: C_14  and  C_17
REMARK                            x       y       z     vdW  Elec       q    Type
REMARK                         _______ _______ _______ _____ _____    ______ ____
ROOT
ATOM      1  C   UNL     1      -1.027  -4.929   0.156  0.00  0.00    +0.035 A 
ATOM      2  C   UNL     1      -2.245  -4.259   0.164  0.00  0.00    +0.024 A 
ATOM      3  C   UNL     1      -3.425  -4.971   0.168  0.00  0.00    +0.010 A 
ATOM      4  C   UNL     1      -3.396  -6.366   0.163  0.00  0.00    -0.017 A 
ATOM      5  C   UNL     1      -2.172  -7.036   0.154  0.00  0.00    +0.010 A 
ATOM      6  C   UNL     1      -0.995  -6.319   0.145  0.00  0.00    +0.024 A 
ENDROOT
BRANCH   4   7
ATOM      7  C   UNL     1      -4.662  -7.134   0.168  0.00  0.00    -0.002 A 
ATOM      8  C   UNL     1      -5.672  -6.851   1.086  0.00  0.00    +0.029 A 
ATOM      9  C   UNL     1      -6.841  -7.592   1.057  0.00  0.00    +0.114 A 
ATOM     10  N   UNL     1      -7.025  -8.560   0.185  0.00  0.00    -0.236 NA
ATOM     11  C   UNL     1      -6.103  -8.880  -0.715  0.00  0.00    +0.158 A 
ATOM     12  C   UNL     1      -4.887  -8.171  -0.759  0.00  0.00    +0.067 A 
ATOM     13  C   UNL     1      -4.105  -8.753  -1.847  0.00  0.00    +0.148 A 
ATOM     14  N   UNL     1      -4.822  -9.708  -2.379  0.00  0.00    -0.157 NA
ATOM     15  N   UNL     1      -6.044  -9.819  -1.709  0.00  0.00    -0.258 N 
ATOM     16  H   UNL     1      -6.745 -10.455  -1.921  0.00  0.00    +0.191 HD
ATOM     17  N   UNL     1      -2.825  -8.360  -2.247  0.00  0.00    -0.341 N 
ATOM     18  H   UNL     1      -2.374  -7.636  -1.785  0.00  0.00    +0.144 HD
ATOM     19  H   UNL     1      -2.388  -8.812  -2.985  0.00  0.00    +0.144 HD
ENDBRANCH   4   7
BRANCH   1  23
ATOM     20  N   UNL     1       1.359  -2.275   0.710  0.00  0.00    -0.269 N 
ATOM     21  C   UNL     1       0.242  -3.024   0.799  0.00  0.00    +0.308 C 
ATOM     22  O   UNL     1      -0.699  -2.635   1.464  0.00  0.00    -0.252 OA
ATOM     23  N   UNL     1       0.168  -4.204   0.152  0.00  0.00    -0.269 N 
ATOM     24  H   UNL     1       2.080  -2.548   0.121  0.00  0.00    +0.156 HD
ATOM     25  H   UNL     1       0.944  -4.550  -0.316  0.00  0.00    +0.156 HD
BRANCH  20  30
ATOM     26  C   UNL     1       2.302   1.135   1.712  0.00  0.00    +0.002 A 
ATOM     27  C   UNL     1       1.717   1.211   2.963  0.00  0.00    +0.012 A 
ATOM     28  C   UNL     1       1.014   0.133   3.467  0.00  0.00    +0.057 A 
ATOM     29  C   UNL     1       0.893  -1.024   2.723  0.00  0.00    +0.035 A 
ATOM     30  C   UNL     1       1.479  -1.104   1.466  0.00  0.00    +0.035 A 
ATOM     31  C   UNL     1       2.185  -0.019   0.963  0.00  0.00    +0.023 A 
BRANCH  28  32
ATOM     32  C   UNL     1       0.379   0.220   4.831  0.00  0.00    +0.417 C 
ATOM     33  F   UNL     1       0.636   1.478   5.386  0.00  0.00    -0.166 F 
ATOM     34  F   UNL     1      -1.003   0.035   4.715  0.00  0.00    -0.166 F 
ATOM     35  F   UNL     1       0.914  -0.773   5.659  0.00  0.00    -0.166 F 
ENDBRANCH  28  32
ENDBRANCH  20  30
ENDBRANCH   1  23
TORSDOF 4
