REMARK  Name = CHEMBL1172346
REMARK  5 active torsions:
REMARK  status: ('A' for Active; 'I' for Inactive)
REMARK    1  A    between atoms: C_3  and  N_19
REMARK    2  A    between atoms: C_4  and  C_13
REMARK    3  A    between atoms: C_6  and  C_7
REMARK    4  A    between atoms: C_20  and  C_22
REMARK    5  A    between atoms: C_26  and  C_28
REMARK                            x       y       z     vdW  Elec       q    Type
REMARK                         _______ _______ _______ _____ _____    ______ ____
ROOT
ATOM      1  C   UNL     1      -0.020   1.405   0.031  0.00  0.00    +0.010 A 
ATOM      2  C   UNL     1       1.165   2.112   0.015  0.00  0.00    +0.024 A 
ATOM      3  C   UNL     1       2.379   1.438  -0.005  0.00  0.00    +0.041 A 
ATOM      4  C   UNL     1       2.402   0.036  -0.010  0.00  0.00    -0.000 A 
ATOM      5  C   UNL     1       1.205  -0.675   0.007  0.00  0.00    +0.018 A 
ATOM      6  C   UNL     1      -0.006   0.010   0.026  0.00  0.00    -0.017 A 
ENDROOT
BRANCH   6   7
ATOM      7  C   UNL     1      -1.284  -0.743   0.043  0.00  0.00    -0.015 A 
ATOM      8  C   UNL     1      -1.293  -2.141   0.045  0.00  0.00    +0.028 A 
ATOM      9  C   UNL     1      -2.504  -2.802   0.062  0.00  0.00    +0.111 A 
ATOM     10  N   UNL     1      -3.641  -2.133   0.075  0.00  0.00    -0.263 NA
ATOM     11  C   UNL     1      -3.676  -0.814   0.073  0.00  0.00    +0.111 A 
ATOM     12  C   UNL     1      -2.511  -0.074   0.063  0.00  0.00    +0.028 A 
ENDBRANCH   6   7
BRANCH   4  13
ATOM     13  C   UNL     1       3.691  -0.685  -0.032  0.00  0.00    -0.042 C 
ATOM     14  C   UNL     1       4.361  -0.717  -1.159  0.00  0.00    -0.023 C 
ATOM     15  C   UNL     1       5.677  -1.418  -1.329  0.00  0.00    +0.027 C 
ATOM     16  C   UNL     1       6.306  -1.698   0.037  0.00  0.00    +0.004 C 
ATOM     17  C   UNL     1       5.251  -2.363   0.930  0.00  0.00    +0.005 C 
ATOM     18  C   UNL     1       4.161  -1.332   1.238  0.00  0.00    +0.035 C 
ENDBRANCH   4  13
BRANCH   3  19
ATOM     19  N   UNL     1       3.574   2.156  -0.022  0.00  0.00    -0.278 N 
ATOM     20  C   UNL     1       3.648   3.326  -0.686  0.00  0.00    +0.284 C 
ATOM     21  O   UNL     1       2.653   3.797  -1.202  0.00  0.00    -0.267 OA
ATOM     22  H   UNL     1       4.352   1.813   0.445  0.00  0.00    +0.155 HD
BRANCH  20  23
ATOM     23  C   UNL     1       4.938   4.035  -0.788  0.00  0.00    +0.195 A 
ATOM     24  N   UNL     1       5.141   5.228  -1.428  0.00  0.00    -0.340 N 
ATOM     25  H   UNL     1       4.470   5.752  -1.891  0.00  0.00    +0.167 HD
ATOM     26  C   UNL     1       6.447   5.541  -1.297  0.00  0.00    +0.123 A 
ATOM     27  C   UNL     1       7.032   4.523  -0.569  0.00  0.00    +0.158 A 
ATOM     28  N   UNL     1       6.075   3.629  -0.276  0.00  0.00    -0.213 NA
BRANCH  27  29
ATOM     29  C   UNL     1       8.411   4.439  -0.192  0.00  0.00    +0.121 C 
ATOM     30  N   UNL     1       9.505   4.373   0.108  0.00  0.00    -0.189 NA
ENDBRANCH  27  29
ENDBRANCH  20  23
ENDBRANCH   3  19
TORSDOF 5
