REMARK  Name = CHEMBL1079545
REMARK  8 active torsions:
REMARK  status: ('A' for Active; 'I' for Inactive)
REMARK    1  A    between atoms: C_1  and  C_2
REMARK    2  A    between atoms: C_2  and  C_3
REMARK    3  A    between atoms: C_2  and  C_4
REMARK    4  A    between atoms: C_2  and  C_5
REMARK    5  A    between atoms: N_13  and  C_14
REMARK    6  A    between atoms: C_17  and  N_20
REMARK    7  A    between atoms: C_21  and  C_23
REMARK    8  A    between atoms: C_24  and  O_29
REMARK                            x       y       z     vdW  Elec       q    Type
REMARK                         _______ _______ _______ _____ _____    ______ ____
ROOT
ATOM      1  C   UNL     1       6.752   0.667  -3.233  0.00  0.00    +0.035 A 
ATOM      2  C   UNL     1       6.686   1.357  -2.030  0.00  0.00    +0.025 A 
ATOM      3  C   UNL     1       7.762   2.109  -1.605  0.00  0.00    +0.025 A 
ATOM      4  C   UNL     1       8.912   2.177  -2.382  0.00  0.00    +0.034 A 
ATOM      5  C   UNL     1       8.978   1.487  -3.585  0.00  0.00    +0.025 A 
ATOM      6  C   UNL     1       7.903   0.730  -4.007  0.00  0.00    +0.025 A 
ENDROOT
BRANCH   1  15
ATOM      7  C   UNL     1       0.349   1.276  -2.854  0.00  0.00    +0.144 A 
ATOM      8  C   UNL     1       1.691   1.198  -2.874  0.00  0.00    +0.092 A 
ATOM      9  C   UNL     1       2.053   0.067  -3.639  0.00  0.00    +0.169 A 
ATOM     10  N   UNL     1       0.952  -0.504  -4.057  0.00  0.00    -0.063 NA
ATOM     11  O   UNL     1      -0.141   0.248  -3.563  0.00  0.00    -0.357 OA
ATOM     12  N   UNL     1       3.353  -0.365  -3.903  0.00  0.00    -0.251 N 
ATOM     13  C   UNL     1       4.403   0.320  -3.409  0.00  0.00    +0.309 C 
ATOM     14  O   UNL     1       4.218   1.314  -2.734  0.00  0.00    -0.252 OA
ATOM     15  N   UNL     1       5.660  -0.097  -3.663  0.00  0.00    -0.269 N 
ATOM     16  H   UNL     1       3.501  -1.158  -4.441  0.00  0.00    +0.158 HD
ATOM     17  H   UNL     1       5.807  -0.926  -4.145  0.00  0.00    +0.156 HD
BRANCH   7  19
ATOM     18  C   UNL     1      -0.112   3.709  -2.718  0.00  0.00    +0.019 C 
ATOM     19  C   UNL     1      -0.464   2.333  -2.151  0.00  0.00    +0.023 C 
ATOM     20  C   UNL     1      -0.153   2.303  -0.653  0.00  0.00    +0.019 C 
ATOM     21  C   UNL     1      -1.954   2.058  -2.368  0.00  0.00    +0.019 C 
ENDBRANCH   7  19
ENDBRANCH   1  15
BRANCH   4  22
ATOM     22  N   UNL     1      10.004   2.941  -1.952  0.00  0.00    -0.280 N 
ATOM     23  C   UNL     1      10.294   3.020  -0.638  0.00  0.00    +0.270 C 
ATOM     24  O   UNL     1       9.561   2.499   0.180  0.00  0.00    -0.268 OA
ATOM     25  H   UNL     1      10.551   3.412  -2.599  0.00  0.00    +0.155 HD
BRANCH  23  26
ATOM     26  C   UNL     1      11.505   3.741  -0.192  0.00  0.00    +0.167 A 
ATOM     27  C   UNL     1      11.806   3.816   1.173  0.00  0.00    +0.147 A 
ATOM     28  C   UNL     1      12.951   4.500   1.574  0.00  0.00    +0.049 A 
ATOM     29  C   UNL     1      13.747   5.080   0.601  0.00  0.00    +0.023 A 
ATOM     30  C   UNL     1      13.386   4.964  -0.733  0.00  0.00    +0.112 A 
ATOM     31  N   UNL     1      12.303   4.309  -1.089  0.00  0.00    -0.247 NA
BRANCH  27  32
ATOM     32  O   UNL     1      10.995   3.233   2.091  0.00  0.00    -0.504 OA
ATOM     33  H   UNL     1      11.227   2.317   2.295  0.00  0.00    +0.292 HD
ENDBRANCH  27  32
ENDBRANCH  23  26
ENDBRANCH   4  22
TORSDOF 5
