REMARK  Name = CHEMBL401738
REMARK  3 active torsions:
REMARK  status: ('A' for Active; 'I' for Inactive)
REMARK    1  A    between atoms: C_1  and  C_2
REMARK    2  A    between atoms: C_4  and  C_8
REMARK    3  A    between atoms: C_9  and  C_21
REMARK                            x       y       z     vdW  Elec       q    Type
REMARK                         _______ _______ _______ _____ _____    ______ ____
ROOT
ATOM      1  C   UNL     1      -3.662   2.668  -3.142  0.00  0.00    +0.075 A 
ATOM      2  C   UNL     1      -3.796   3.093  -4.460  0.00  0.00    +0.006 A 
ATOM      3  C   UNL     1      -5.136   3.463  -4.940  0.00  0.00    +0.008 A 
ATOM      4  C   UNL     1      -5.325   3.896  -6.256  0.00  0.00    +0.030 A 
ATOM      5  C   UNL     1      -6.587   4.239  -6.688  0.00  0.00    +0.042 A 
ATOM      6  C   UNL     1      -7.671   4.155  -5.822  0.00  0.00    +0.022 A 
ATOM      7  C   UNL     1      -7.500   3.731  -4.523  0.00  0.00    +0.028 A 
ATOM      8  C   UNL     1      -6.233   3.380  -4.065  0.00  0.00    +0.050 A 
ATOM      9  N   UNL     1      -6.058   2.953  -2.764  0.00  0.00    -0.322 N 
ATOM     10  H   UNL     1      -6.828   2.902  -2.176  0.00  0.00    +0.169 HD
ATOM     11  C   UNL     1      -4.850   2.601  -2.292  0.00  0.00    +0.259 A 
ATOM     12  O   UNL     1      -4.743   2.225  -1.138  0.00  0.00    -0.267 OA
ATOM     13 CL   UNL     1      -6.826   4.777  -8.321  0.00  0.00    -0.084 Cl
ENDROOT
BRANCH   1  17
ATOM     14  C   UNL     1      -0.013   1.086   0.008  0.00  0.00    +0.065 C 
ATOM     15  C   UNL     1      -0.742   1.585  -1.213  0.00  0.00    +0.034 A 
ATOM     16  C   UNL     1      -2.066   1.832  -1.300  0.00  0.00    +0.052 A 
ATOM     17  C   UNL     1      -2.336   2.283  -2.609  0.00  0.00    +0.099 A 
ATOM     18  N   UNL     1      -1.198   2.300  -3.274  0.00  0.00    -0.173 NA
ATOM     19  H   UNL     1       0.757   1.788  -2.632  0.00  0.00    +0.189 HD
ATOM     20  N   UNL     1      -0.183   1.869  -2.410  0.00  0.00    -0.281 N 
ENDBRANCH   1  17
BRANCH   2  21
ATOM     21  C   UNL     1      -2.622   3.170  -5.355  0.00  0.00    -0.016 A 
ATOM     22  C   UNL     1      -2.189   4.407  -5.837  0.00  0.00    +0.008 A 
ATOM     23  C   UNL     1      -1.093   4.472  -6.672  0.00  0.00    +0.001 A 
ATOM     24  C   UNL     1      -0.423   3.316  -7.031  0.00  0.00    +0.000 A 
ATOM     25  C   UNL     1      -0.847   2.087  -6.556  0.00  0.00    +0.001 A 
ATOM     26  C   UNL     1      -1.938   2.008  -5.716  0.00  0.00    +0.008 A 
ENDBRANCH   2  21
TORSDOF 2
