REMARK  Name = CHEMBL481231
REMARK  11 active torsions:
REMARK  status: ('A' for Active; 'I' for Inactive)
REMARK    1  A    between atoms: C_1  and  N_2
REMARK    2  A    between atoms: N_5  and  C_8
REMARK    3  A    between atoms: C_8  and  C_9
REMARK    4  A    between atoms: C_9  and  C_10
REMARK    5  A    between atoms: C_10  and  O_11
REMARK    6  A    between atoms: O_11  and  C_12
REMARK    7  A    between atoms: C_17  and  O_18
REMARK    8  A    between atoms: O_18  and  C_19
REMARK    9  A    between atoms: C_20  and  N_27
REMARK   10  A    between atoms: C_21  and  C_24
REMARK   11  A    between atoms: N_27  and  C_28
REMARK                            x       y       z     vdW  Elec       q    Type
REMARK                         _______ _______ _______ _____ _____    ______ ____
ROOT
ATOM      1  C   UNL     1      -2.027  -9.775   5.254  0.00  0.00    +0.164 A 
ATOM      2  C   UNL     1      -1.591  -9.845   3.950  0.00  0.00    +0.077 A 
ATOM      3  C   UNL     1      -0.443 -10.587   3.638  0.00  0.00    +0.076 A 
ATOM      4  C   UNL     1       0.251 -11.254   4.676  0.00  0.00    +0.026 A 
ATOM      5  C   UNL     1      -0.213 -11.167   5.997  0.00  0.00    +0.061 A 
ATOM      6  C   UNL     1      -1.331 -10.434   6.277  0.00  0.00    +0.162 A 
ATOM      7  C   UNL     1       1.409 -12.002   4.358  0.00  0.00    +0.054 A 
ATOM      8  C   UNL     1       1.813 -12.043   3.015  0.00  0.00    +0.076 A 
ATOM      9  C   UNL     1       1.064 -11.350   2.050  0.00  0.00    +0.126 A 
ATOM     10  N   UNL     1      -0.003 -10.665   2.373  0.00  0.00    -0.254 NA
ENDROOT
BRANCH   8  11
ATOM     11  C   UNL     1       3.010 -12.803   2.621  0.00  0.00    +0.245 C 
ATOM     12  O   UNL     1       3.597 -13.481   3.443  0.00  0.00    -0.270 OA
ATOM     13  N   UNL     1       3.456 -12.748   1.351  0.00  0.00    -0.325 N 
ATOM     14  H   UNL     1       2.988 -12.207   0.695  0.00  0.00    +0.145 HD
ATOM     15  H   UNL     1       4.245 -13.249   1.091  0.00  0.00    +0.145 HD
ENDBRANCH   8  11
BRANCH   6  16
ATOM     16  O   UNL     1      -1.776 -10.348   7.559  0.00  0.00    -0.491 OA
ATOM     17  C   UNL     1      -1.023 -11.042   8.555  0.00  0.00    +0.277 C 
ENDBRANCH   6  16
BRANCH   7  18
ATOM     18  N   UNL     1       2.117 -12.668   5.336  0.00  0.00    -0.313 N 
ATOM     19  H   UNL     1       2.808 -12.205   5.835  0.00  0.00    +0.152 HD
BRANCH  18  20
ATOM     20  C   UNL     1       1.839 -14.011   5.607  0.00  0.00    +0.033 A 
ATOM     21  C   UNL     1       0.952 -14.715   4.803  0.00  0.00    +0.026 A 
ATOM     22  C   UNL     1       0.680 -16.042   5.072  0.00  0.00    +0.041 A 
ATOM     23  C   UNL     1       1.290 -16.671   6.144  0.00  0.00    +0.142 A 
ATOM     24  C   UNL     1       2.174 -15.972   6.949  0.00  0.00    +0.078 A 
ATOM     25  C   UNL     1       2.454 -14.645   6.679  0.00  0.00    +0.046 A 
ATOM     26 CL   UNL     1       2.937 -16.764   8.293  0.00  0.00    -0.081 Cl
ATOM     27  F   UNL     1       1.021 -17.969   6.406  0.00  0.00    -0.204 F 
ENDBRANCH  18  20
ENDBRANCH   7  18
BRANCH   1  28
ATOM     28  O   UNL     1      -3.139  -9.056   5.554  0.00  0.00    -0.488 OA
BRANCH  28  29
ATOM     29  C   UNL     1      -3.805  -8.407   4.468  0.00  0.00    +0.227 C 
BRANCH  29  30
ATOM     30  C   UNL     1      -5.026  -7.652   4.996  0.00  0.00    +0.022 C 
BRANCH  30  31
ATOM     31  C   UNL     1      -5.738  -6.957   3.834  0.00  0.00    -0.075 C 
BRANCH  31  36
ATOM     32  C   UNL     1      -9.619  -3.086   5.136  0.00  0.00    +0.104 C 
ATOM     33  N   UNL     1      -8.466  -3.857   4.653  0.00  0.00    -0.309 NA
ATOM     34  C   UNL     1      -8.893  -4.926   3.739  0.00  0.00    +0.065 C 
ATOM     35  C   UNL     1      -7.661  -5.666   3.213  0.00  0.00    -0.063 C 
ATOM     36  N   UNL     1      -6.911  -6.232   4.341  0.00  0.00    +0.381 N 
ATOM     37  C   UNL     1      -6.470  -5.150   5.231  0.00  0.00    -0.063 C 
ATOM     38  C   UNL     1      -7.692  -4.407   5.774  0.00  0.00    +0.065 C 
ATOM     39  H   UNL     1      -7.503  -6.869   4.853  0.00  0.00    -0.082 HD
ENDBRANCH  31  36
ENDBRANCH  30  31
ENDBRANCH  29  30
ENDBRANCH  28  29
ENDBRANCH   1  28
TORSDOF 9
