REMARK  Name = CHEMBL591292
REMARK  6 active torsions:
REMARK  status: ('A' for Active; 'I' for Inactive)
REMARK    1  A    between atoms: C_1  and  C_2
REMARK    2  A    between atoms: C_3  and  O_45
REMARK    3  A    between atoms: C_5  and  N_35
REMARK    4  A    between atoms: N_35  and  C_36
REMARK    5  A    between atoms: C_37  and  C_39
REMARK    6  A    between atoms: O_45  and  C_46
REMARK                            x       y       z     vdW  Elec       q    Type
REMARK                         _______ _______ _______ _____ _____    ______ ____
ROOT
ATOM      1  C   UNL     1       0.315   1.334  -0.400  0.00  0.00    +0.069 C 
ATOM      2  C   UNL     1       0.213  -0.192  -0.434  0.00  0.00    +0.174 C 
ATOM      3  C   UNL     1      -1.207  -0.556  -0.022  0.00  0.00    +0.191 C 
ATOM      4  C   UNL     1      -1.288  -2.061   0.255  0.00  0.00    +0.114 C 
ATOM      5  C   UNL     1      -0.303  -2.391   1.382  0.00  0.00    +0.080 C 
ATOM      6  C   UNL     1       1.106  -2.003   0.953  0.00  0.00    +0.224 C 
ATOM      7  O   UNL     1       1.182  -0.693   0.460  0.00  0.00    -0.328 OA
ATOM      8  N   UNL     1       1.642  -2.980   0.003  0.00  0.00    -0.311 N 
ATOM      9  C   UNL     1       2.253  -4.170   0.319  0.00  0.00    +0.052 A 
ATOM     10  C   UNL     1       2.521  -4.752   1.557  0.00  0.00    +0.026 A 
ATOM     11  C   UNL     1       3.161  -5.980   1.552  0.00  0.00    +0.002 A 
ATOM     12  C   UNL     1       3.526  -6.616   0.379  0.00  0.00    +0.001 A 
ATOM     13  C   UNL     1       3.270  -6.059  -0.864  0.00  0.00    +0.010 A 
ATOM     14  C   UNL     1       2.626  -4.822  -0.878  0.00  0.00    +0.008 A 
ATOM     15  C   UNL     1       2.206  -3.953  -1.978  0.00  0.00    +0.015 A 
ATOM     16  C   UNL     1       1.609  -2.834  -1.376  0.00  0.00    +0.077 A 
ATOM     17  C   UNL     1       1.101  -1.800  -2.170  0.00  0.00    +0.078 A 
ATOM     18  N   UNL     1       0.462  -0.609  -1.815  0.00  0.00    -0.307 N 
ATOM     19  C   UNL     1       0.131   0.091  -2.949  0.00  0.00    +0.053 A 
ATOM     20  C   UNL     1      -0.498   1.325  -3.105  0.00  0.00    +0.026 A 
ATOM     21  C   UNL     1      -0.695   1.774  -4.400  0.00  0.00    +0.002 A 
ATOM     22  C   UNL     1      -0.292   1.042  -5.503  0.00  0.00    +0.001 A 
ATOM     23  C   UNL     1       0.334  -0.186  -5.376  0.00  0.00    +0.010 A 
ATOM     24  C   UNL     1       0.542  -0.655  -4.078  0.00  0.00    +0.008 A 
ATOM     25  C   UNL     1       1.185  -1.880  -3.562  0.00  0.00    +0.022 A 
ATOM     26  C   UNL     1       1.782  -3.012  -4.165  0.00  0.00    +0.052 A 
ATOM     27  C   UNL     1       2.285  -4.032  -3.365  0.00  0.00    -0.008 A 
ATOM     28  C   UNL     1       2.845  -5.074  -4.302  0.00  0.00    +0.141 C 
ATOM     29  N   UNL     1       2.618  -4.566  -5.660  0.00  0.00    -0.307 N 
ATOM     30  C   UNL     1       2.005  -3.373  -5.573  0.00  0.00    +0.245 C 
ATOM     31  O   UNL     1       1.678  -2.690  -6.525  0.00  0.00    -0.270 OA
ATOM     32  H   UNL     1       2.870  -5.014  -6.482  0.00  0.00    +0.149 HD
ENDROOT
BRANCH   4  33
ATOM     33  N   UNL     1      -2.648  -2.417   0.665  0.00  0.00    -0.295 N 
ATOM     34  C   UNL     1      -3.235  -1.809   1.863  0.00  0.00    +0.132 C 
ATOM     35  C   UNL     1      -3.361  -3.303  -0.058  0.00  0.00    +0.247 C 
ATOM     36  O   UNL     1      -2.842  -3.880  -0.993  0.00  0.00    -0.270 OA
BRANCH  35  37
ATOM     37  C   UNL     1      -4.774  -3.572   0.285  0.00  0.00    +0.037 A 
ATOM     38  C   UNL     1      -5.562  -2.567   0.848  0.00  0.00    +0.013 A 
ATOM     39  C   UNL     1      -6.879  -2.824   1.166  0.00  0.00    +0.001 A 
ATOM     40  C   UNL     1      -7.420  -4.076   0.928  0.00  0.00    +0.000 A 
ATOM     41  C   UNL     1      -6.644  -5.077   0.371  0.00  0.00    +0.001 A 
ATOM     42  C   UNL     1      -5.326  -4.830   0.043  0.00  0.00    +0.013 A 
ENDBRANCH  35  37
ENDBRANCH   4  33
BRANCH   3  43
ATOM     43  O   UNL     1      -2.111  -0.215  -1.076  0.00  0.00    -0.373 OA
ATOM     44  C   UNL     1      -3.421   0.136  -0.627  0.00  0.00    +0.194 C 
ENDBRANCH   3  43
TORSDOF 3
