REMARK  Name = CHEMBL1172347
REMARK  5 active torsions:
REMARK  status: ('A' for Active; 'I' for Inactive)
REMARK    1  A    between atoms: C_3  and  C_8
REMARK    2  A    between atoms: C_11  and  N_20
REMARK    3  A    between atoms: C_12  and  C_14
REMARK    4  A    between atoms: C_21  and  C_23
REMARK    5  A    between atoms: C_27  and  C_29
REMARK                            x       y       z     vdW  Elec       q    Type
REMARK                         _______ _______ _______ _____ _____    ______ ____
ROOT
ATOM      1  C   UNL     1       3.675   2.049   0.002  0.00  0.00    -0.016 A 
ATOM      2  C   UNL     1       3.732   3.443   0.011  0.00  0.00    +0.010 A 
ATOM      3  C   UNL     1       4.950   4.089  -0.006  0.00  0.00    +0.024 A 
ATOM      4  C   UNL     1       6.129   3.356  -0.031  0.00  0.00    +0.041 A 
ATOM      5  C   UNL     1       6.082   1.954  -0.040  0.00  0.00    -0.000 A 
ATOM      6  C   UNL     1       4.850   1.304  -0.018  0.00  0.00    +0.018 A 
ENDROOT
BRANCH   1   9
ATOM      7  C   UNL     1      -0.027   1.408   0.056  0.00  0.00    +0.022 A 
ATOM      8  C   UNL     1       1.174   2.097   0.040  0.00  0.00    +0.011 A 
ATOM      9  C   UNL     1       2.361   1.361   0.020  0.00  0.00    +0.002 A 
ATOM     10  C   UNL     1       2.291  -0.031   0.017  0.00  0.00    +0.141 A 
ATOM     11  N   UNL     1       1.124  -0.644   0.032  0.00  0.00    -0.146 N 
ATOM     12  O   UNL     1       1.090  -2.060   0.028  0.00  0.00    -0.164 OA
ATOM     13  C   UNL     1      -0.013   0.026   0.051  0.00  0.00    +0.133 A 
ENDBRANCH   1   9
BRANCH   5  14
ATOM     14  C   UNL     1       7.333   1.171  -0.067  0.00  0.00    -0.042 C 
ATOM     15  C   UNL     1       7.999   1.109  -1.195  0.00  0.00    -0.023 C 
ATOM     16  C   UNL     1       9.278   0.344  -1.371  0.00  0.00    +0.027 C 
ATOM     17  C   UNL     1       9.894   0.028  -0.006  0.00  0.00    +0.004 C 
ATOM     18  C   UNL     1       8.809  -0.587   0.887  0.00  0.00    +0.005 C 
ATOM     19  C   UNL     1       7.772   0.496   1.200  0.00  0.00    +0.035 C 
ENDBRANCH   5  14
BRANCH   4  20
ATOM     20  N   UNL     1       7.359   4.013  -0.048  0.00  0.00    -0.278 N 
ATOM     21  C   UNL     1       7.491   5.180  -0.708  0.00  0.00    +0.284 C 
ATOM     22  O   UNL     1       6.519   5.702  -1.220  0.00  0.00    -0.267 OA
ATOM     23  H   UNL     1       8.120   3.630   0.416  0.00  0.00    +0.155 HD
BRANCH  21  24
ATOM     24  C   UNL     1       8.814   5.825  -0.811  0.00  0.00    +0.195 A 
ATOM     25  N   UNL     1       9.076   7.007  -1.447  0.00  0.00    -0.340 N 
ATOM     26  H   UNL     1       8.430   7.567  -1.906  0.00  0.00    +0.167 HD
ATOM     27  C   UNL     1      10.396   7.254  -1.318  0.00  0.00    +0.123 A 
ATOM     28  C   UNL     1      10.931   6.205  -0.595  0.00  0.00    +0.158 A 
ATOM     29  N   UNL     1       9.931   5.360  -0.302  0.00  0.00    -0.213 NA
BRANCH  28  30
ATOM     30  C   UNL     1      12.304   6.051  -0.222  0.00  0.00    +0.121 C 
ATOM     31  N   UNL     1      13.394   5.928   0.074  0.00  0.00    -0.189 NA
ENDBRANCH  28  30
ENDBRANCH  21  24
ENDBRANCH   4  20
TORSDOF 5
