REMARK  Name = CHEMBL254498
REMARK  7 active torsions:
REMARK  status: ('A' for Active; 'I' for Inactive)
REMARK    1  A    between atoms: C_1  and  N_2
REMARK    2  A    between atoms: N_10  and  C_11
REMARK    3  A    between atoms: N_10  and  C_12
REMARK    4  A    between atoms: C_15  and  N_24
REMARK    5  A    between atoms: C_16  and  N_18
REMARK    6  A    between atoms: C_25  and  C_27
REMARK    7  A    between atoms: C_30  and  C_32
REMARK                            x       y       z     vdW  Elec       q    Type
REMARK                         _______ _______ _______ _____ _____    ______ ____
ROOT
ATOM      1  C   UNL     1       3.583  -5.007   1.096  0.00  0.00    +0.039 A 
ATOM      2  C   UNL     1       3.995  -5.657  -0.059  0.00  0.00    +0.025 A 
ATOM      3  C   UNL     1       5.000  -6.605  -0.002  0.00  0.00    +0.027 A 
ATOM      4  C   UNL     1       5.599  -6.909   1.212  0.00  0.00    +0.055 A 
ATOM      5  C   UNL     1       5.187  -6.257   2.374  0.00  0.00    +0.053 A 
ATOM      6  C   UNL     1       4.183  -5.303   2.312  0.00  0.00    +0.048 A 
ENDROOT
BRANCH   1  16
ATOM      7  C   UNL     1      -1.016   0.758   0.483  0.00  0.00    +0.105 C 
ATOM      8  N   UNL     1      -0.604  -0.600   0.102  0.00  0.00    -0.302 NA
ATOM      9  C   UNL     1       0.488  -0.563  -0.879  0.00  0.00    +0.103 C 
ATOM     10  C   UNL     1       0.764  -1.983  -1.385  0.00  0.00    +0.124 C 
ATOM     11  N   UNL     1       1.001  -2.854  -0.224  0.00  0.00    -0.283 N 
ATOM     12  C   UNL     1       0.015  -2.842   0.868  0.00  0.00    +0.124 C 
ATOM     13  C   UNL     1      -0.232  -1.388   1.284  0.00  0.00    +0.103 C 
ATOM     14  C   UNL     1       2.092  -3.643  -0.162  0.00  0.00    +0.309 C 
ATOM     15  O   UNL     1       2.649  -3.991  -1.185  0.00  0.00    -0.252 OA
ATOM     16  N   UNL     1       2.564  -4.047   1.034  0.00  0.00    -0.258 N 
ATOM     17  C   UNL     1       2.013  -3.483   2.268  0.00  0.00    +0.140 C 
ENDBRANCH   1  16
BRANCH   5  18
ATOM     18  N   UNL     1       5.790  -6.561   3.599  0.00  0.00    -0.328 N 
ATOM     19  C   UNL     1       6.972  -5.818   4.058  0.00  0.00    +0.105 C 
ATOM     20  C   UNL     1       6.696  -5.271   5.462  0.00  0.00    +0.019 C 
ATOM     21  C   UNL     1       6.282  -6.422   6.381  0.00  0.00    +0.003 C 
ATOM     22  C   UNL     1       4.997  -7.063   5.852  0.00  0.00    +0.019 C 
ATOM     23  C   UNL     1       5.249  -7.626   4.455  0.00  0.00    +0.105 C 
ENDBRANCH   5  18
BRANCH   4  24
ATOM     24  N   UNL     1       6.617  -7.870   1.270  0.00  0.00    -0.277 N 
ATOM     25  C   UNL     1       6.681  -8.842   0.338  0.00  0.00    +0.284 C 
ATOM     26  O   UNL     1       5.902  -8.840  -0.597  0.00  0.00    -0.266 OA
ATOM     27  H   UNL     1       7.277  -7.836   1.981  0.00  0.00    +0.155 HD
BRANCH  25  28
ATOM     28  C   UNL     1       7.690  -9.904   0.451  0.00  0.00    +0.191 A 
ATOM     29  C   UNL     1       7.862 -10.938  -0.426  0.00  0.00    +0.056 A 
ATOM     30  C   UNL     1       8.925 -11.711   0.055  0.00  0.00    +0.061 A 
ATOM     31  C   UNL     1       9.361 -11.110   1.216  0.00  0.00    +0.205 A 
ATOM     32  O   UNL     1       8.605 -10.018   1.433  0.00  0.00    -0.440 OA
BRANCH  31  33
ATOM     33  C   UNL     1      10.436 -11.565   2.044  0.00  0.00    +0.138 C 
ATOM     34  N   UNL     1      11.289 -11.927   2.702  0.00  0.00    -0.188 NA
ENDBRANCH  31  33
ENDBRANCH  25  28
ENDBRANCH   4  24
TORSDOF 5
