REMARK  Name = CHEMBL249751
REMARK  4 active torsions:
REMARK  status: ('A' for Active; 'I' for Inactive)
REMARK    1  A    between atoms: C_9  and  N_11
REMARK    2  A    between atoms: N_11  and  C_12
REMARK    3  A    between atoms: C_16  and  C_25
REMARK    4  A    between atoms: C_21  and  C_22
REMARK                            x       y       z     vdW  Elec       q    Type
REMARK                         _______ _______ _______ _____ _____    ______ ____
ROOT
ATOM      1  C   UNL     1       0.030  -2.778  -0.115  0.00  0.00    +0.054 A 
ATOM      2  C   UNL     1      -0.035  -4.159   0.192  0.00  0.00    +0.022 A 
ATOM      3  C   UNL     1       1.107  -4.861   0.607  0.00  0.00    +0.012 A 
ATOM      4  C   UNL     1       1.021  -6.187   0.896  0.00  0.00    +0.009 A 
ATOM      5  C   UNL     1      -0.202  -6.865   0.785  0.00  0.00    -0.016 A 
ATOM      6  C   UNL     1      -1.343  -6.198   0.379  0.00  0.00    +0.037 A 
ATOM      7  C   UNL     1      -1.276  -4.830   0.076  0.00  0.00    +0.073 A 
ATOM      8  N   UNL     1      -2.371  -4.163  -0.319  0.00  0.00    -0.254 NA
ATOM      9  C   UNL     1      -2.339  -2.888  -0.609  0.00  0.00    +0.126 A 
ATOM     10  C   UNL     1      -1.154  -2.141  -0.516  0.00  0.00    +0.076 A 
ENDROOT
BRANCH   5  11
ATOM     11  C   UNL     1      -0.272  -8.312   1.106  0.00  0.00    -0.015 A 
ATOM     12  C   UNL     1      -1.475  -9.014   0.999  0.00  0.00    +0.028 A 
ATOM     13  C   UNL     1      -1.496 -10.359   1.307  0.00  0.00    +0.111 A 
ATOM     14  N   UNL     1      -0.400 -10.981   1.698  0.00  0.00    -0.263 NA
ATOM     15  C   UNL     1       0.756 -10.355   1.813  0.00  0.00    +0.111 A 
ATOM     16  C   UNL     1       0.866  -9.012   1.519  0.00  0.00    +0.028 A 
ENDBRANCH   5  11
BRANCH  10  17
ATOM     17  C   UNL     1      -1.152  -0.705  -0.842  0.00  0.00    +0.245 C 
ATOM     18  O   UNL     1      -0.105  -0.086  -0.855  0.00  0.00    -0.270 OA
ATOM     19  N   UNL     1      -2.310  -0.077  -1.127  0.00  0.00    -0.325 N 
ATOM     20  H   UNL     1      -3.145  -0.572  -1.118  0.00  0.00    +0.145 HD
ATOM     21  H   UNL     1      -2.309   0.869  -1.342  0.00  0.00    +0.145 HD
ENDBRANCH  10  17
BRANCH   1  22
ATOM     22  N   UNL     1       1.215  -2.082  -0.016  0.00  0.00    -0.313 N 
ATOM     23  H   UNL     1       1.409  -1.564   0.781  0.00  0.00    +0.152 HD
BRANCH  22  32
ATOM     24  C   UNL     1       2.829  -2.987  -3.196  0.00  0.00    +0.004 A 
ATOM     25  C   UNL     1       3.967  -2.213  -3.167  0.00  0.00    +0.028 A 
ATOM     26  C   UNL     1       4.213  -1.376  -2.081  0.00  0.00    +0.068 A 
ATOM     27  C   UNL     1       3.294  -1.325  -1.017  0.00  0.00    +0.041 A 
ATOM     28  C   UNL     1       3.805  -0.401  -0.075  0.00  0.00    +0.144 A 
ATOM     29  N   UNL     1       4.933   0.069  -0.523  0.00  0.00    -0.181 NA
ATOM     30  N   UNL     1       5.226  -0.507  -1.765  0.00  0.00    -0.277 N 
ATOM     31  H   UNL     1       6.010  -0.325  -2.307  0.00  0.00    +0.189 HD
ATOM     32  C   UNL     1       2.135  -2.121  -1.063  0.00  0.00    +0.042 A 
ATOM     33  C   UNL     1       1.916  -2.944  -2.152  0.00  0.00    +0.024 A 
ENDBRANCH  22  32
ENDBRANCH   1  22
TORSDOF 4
