REMARK  Name = CHEMBL521887
REMARK  7 active torsions:
REMARK  status: ('A' for Active; 'I' for Inactive)
REMARK    1  A    between atoms: C_1  and  C_2
REMARK    2  A    between atoms: C_5  and  N_18
REMARK    3  A    between atoms: C_7  and  C_8
REMARK    4  A    between atoms: C_19  and  C_21
REMARK    5  A    between atoms: C_24  and  C_27
REMARK    6  A    between atoms: C_27  and  N_28
REMARK    7  A    between atoms: N_31  and  C_34
REMARK                            x       y       z     vdW  Elec       q    Type
REMARK                         _______ _______ _______ _____ _____    ______ ____
ROOT
ATOM      1  N   UNL     1       0.059  -4.177  -0.032  0.00  0.00    -0.281 N 
ATOM      2  C   UNL     1      -0.039  -4.838  -1.202  0.00  0.00    +0.248 C 
ATOM      3  O   UNL     1      -0.053  -4.221  -2.250  0.00  0.00    -0.270 OA
ATOM      4  H   UNL     1       0.138  -4.671   0.799  0.00  0.00    +0.155 HD
ENDROOT
BRANCH   1   9
ATOM      5  C   UNL     1       0.002   1.502   0.056  0.00  0.00    +0.044 C 
ATOM      6  C   UNL     1       0.019  -0.004   0.030  0.00  0.00    -0.043 A 
ATOM      7  C   UNL     1      -0.571  -0.719   1.054  0.00  0.00    +0.006 A 
ATOM      8  C   UNL     1      -0.559  -2.100   1.034  0.00  0.00    +0.023 A 
ATOM      9  C   UNL     1       0.048  -2.779  -0.016  0.00  0.00    +0.034 A 
ATOM     10  C   UNL     1       0.643  -2.068  -1.048  0.00  0.00    +0.032 A 
ATOM     11  C   UNL     1       0.626  -0.676  -1.030  0.00  0.00    -0.013 A 
BRANCH  11  12
ATOM     12  C   UNL     1       1.255   0.090  -2.133  0.00  0.00    -0.017 A 
ATOM     13  C   UNL     1       0.539   1.124  -2.759  0.00  0.00    +0.009 A 
ATOM     14  C   UNL     1       1.091   1.842  -3.772  0.00  0.00    +0.009 A 
ATOM     15  C   UNL     1       2.395   1.551  -4.203  0.00  0.00    -0.015 A 
ATOM     16  C   UNL     1       3.012   2.265  -5.246  0.00  0.00    +0.028 A 
ATOM     17  C   UNL     1       4.280   1.927  -5.610  0.00  0.00    +0.111 A 
ATOM     18  N   UNL     1       4.944   0.948  -5.010  0.00  0.00    -0.263 NA
ATOM     19  C   UNL     1       4.432   0.240  -4.030  0.00  0.00    +0.119 A 
ATOM     20  C   UNL     1       3.129   0.509  -3.578  0.00  0.00    +0.001 A 
ATOM     21  C   UNL     1       2.543  -0.216  -2.531  0.00  0.00    +0.018 A 
ENDBRANCH  11  12
ENDBRANCH   1   9
BRANCH   2  22
ATOM     22  C   UNL     1      -0.131  -6.314  -1.212  0.00  0.00    +0.037 A 
ATOM     23  C   UNL     1      -0.121  -7.025  -0.011  0.00  0.00    +0.013 A 
ATOM     24  C   UNL     1      -0.206  -8.402  -0.027  0.00  0.00    +0.005 A 
ATOM     25  C   UNL     1      -0.301  -9.078  -1.231  0.00  0.00    -0.033 A 
ATOM     26  C   UNL     1      -0.311  -8.379  -2.425  0.00  0.00    +0.005 A 
ATOM     27  C   UNL     1      -0.233  -7.002  -2.423  0.00  0.00    +0.013 A 
BRANCH  25  28
ATOM     28  C   UNL     1      -0.394 -10.582  -1.241  0.00  0.00    +0.119 C 
BRANCH  28  29
ATOM     29  N   UNL     1      -1.805 -10.986  -1.183  0.00  0.00    -0.302 NA
ATOM     30  C   UNL     1      -2.407 -10.612   0.105  0.00  0.00    +0.066 C 
ATOM     31  C   UNL     1      -3.888 -10.996   0.102  0.00  0.00    -0.064 C 
ATOM     32  N   UNL     1      -4.019 -12.442  -0.118  0.00  0.00    +0.379 N 
ATOM     33  C   UNL     1      -3.436 -12.796  -1.419  0.00  0.00    -0.064 C 
ATOM     34  C   UNL     1      -1.950 -12.428  -1.429  0.00  0.00    +0.066 C 
ATOM     35  C   UNL     1      -5.441 -12.813  -0.103  0.00  0.00    -0.096 C 
ATOM     36  H   UNL     1      -3.535 -12.939   0.614  0.00  0.00    -0.082 HD
ENDBRANCH  28  29
ENDBRANCH  25  28
ENDBRANCH   2  22
TORSDOF 5
