REMARK  Name = CHEMBL429855
REMARK  6 active torsions:
REMARK  status: ('A' for Active; 'I' for Inactive)
REMARK    1  A    between atoms: C_1  and  C_2
REMARK    2  A    between atoms: C_7  and  C_10
REMARK    3  A    between atoms: C_13  and  N_24
REMARK    4  A    between atoms: C_14  and  C_16
REMARK    5  A    between atoms: C_25  and  C_27
REMARK    6  A    between atoms: C_29  and  C_32
REMARK                            x       y       z     vdW  Elec       q    Type
REMARK                         _______ _______ _______ _____ _____    ______ ____
ROOT
ATOM      1  C   UNL     1      -4.250  -2.519   2.239  0.00  0.00    -0.043 A 
ATOM      2  C   UNL     1      -3.867  -2.297   3.550  0.00  0.00    +0.006 A 
ATOM      3  C   UNL     1      -4.639  -2.772   4.593  0.00  0.00    +0.024 A 
ATOM      4  C   UNL     1      -5.805  -3.476   4.330  0.00  0.00    +0.041 A 
ATOM      5  C   UNL     1      -6.195  -3.703   3.003  0.00  0.00    -0.001 A 
ATOM      6  C   UNL     1      -5.409  -3.213   1.960  0.00  0.00    +0.014 A 
ENDROOT
BRANCH   1  13
ATOM      7  C   UNL     1      -0.033   1.562   0.053  0.00  0.00    +0.109 C 
ATOM      8  C   UNL     1      -0.007   0.055   0.035  0.00  0.00    +0.212 C 
ATOM      9  O   UNL     1       1.054  -0.533   0.019  0.00  0.00    -0.276 OA
ATOM     10  N   UNL     1      -1.162  -0.639   0.037  0.00  0.00    -0.302 N 
ATOM     11  C   UNL     1      -2.455   0.059   0.050  0.00  0.00    +0.108 C 
ATOM     12  C   UNL     1      -3.291  -0.473   1.218  0.00  0.00    +0.027 C 
ATOM     13  C   UNL     1      -3.400  -1.996   1.110  0.00  0.00    +0.022 C 
ATOM     14  C   UNL     1      -2.003  -2.616   1.194  0.00  0.00    +0.027 C 
ATOM     15  C   UNL     1      -1.153  -2.108   0.019  0.00  0.00    +0.108 C 
ENDBRANCH   1  13
BRANCH   5  16
ATOM     16  C   UNL     1      -7.434  -4.452   2.712  0.00  0.00    -0.039 C 
ATOM     17  C   UNL     1      -7.363  -5.731   2.897  0.00  0.00    -0.000 C 
ATOM     18  C   UNL     1      -8.450  -6.738   2.660  0.00  0.00    +0.193 C 
ATOM     19  S   UNL     1     -10.053  -5.882   2.590  0.00  0.00    -0.027 S 
ATOM     20  O   UNL     1     -10.982  -6.709   1.903  0.00  0.00    -0.174 OA
ATOM     21  O   UNL     1     -10.373  -5.406   3.890  0.00  0.00    -0.174 OA
ATOM     22  C   UNL     1      -9.642  -4.460   1.531  0.00  0.00    +0.171 C 
ATOM     23  C   UNL     1      -8.584  -3.622   2.252  0.00  0.00    +0.058 C 
ENDBRANCH   5  16
BRANCH   4  24
ATOM     24  N   UNL     1      -6.585  -3.958   5.383  0.00  0.00    -0.278 N 
ATOM     25  C   UNL     1      -5.997  -4.387   6.516  0.00  0.00    +0.286 C 
ATOM     26  O   UNL     1      -4.793  -4.280   6.655  0.00  0.00    -0.266 OA
ATOM     27  H   UNL     1      -7.551  -3.982   5.298  0.00  0.00    +0.155 HD
BRANCH  25  28
ATOM     28  C   UNL     1      -6.813  -4.988   7.590  0.00  0.00    +0.217 A 
ATOM     29  N   UNL     1      -6.338  -5.454   8.779  0.00  0.00    -0.211 NA
ATOM     30  C   UNL     1      -7.417  -5.927   9.483  0.00  0.00    +0.161 A 
ATOM     31  C   UNL     1      -8.525  -5.728   8.682  0.00  0.00    +0.152 A 
ATOM     32  N   UNL     1      -8.119  -5.157   7.555  0.00  0.00    -0.229 NA
BRANCH  30  33
ATOM     33  C   UNL     1      -7.397  -6.511  10.790  0.00  0.00    +0.121 C 
ATOM     34  N   UNL     1      -7.382  -6.975  11.827  0.00  0.00    -0.189 NA
ENDBRANCH  30  33
ENDBRANCH  25  28
ENDBRANCH   4  24
TORSDOF 5
