REMARK  Name = CHEMBL454105
REMARK  6 active torsions:
REMARK  status: ('A' for Active; 'I' for Inactive)
REMARK    1  A    between atoms: C_1  and  C_2
REMARK    2  A    between atoms: C_5  and  C_17
REMARK    3  A    between atoms: C_7  and  N_8
REMARK    4  A    between atoms: C_9  and  C_11
REMARK    5  A    between atoms: N_19  and  C_20
REMARK    6  A    between atoms: C_24  and  C_26
REMARK                            x       y       z     vdW  Elec       q    Type
REMARK                         _______ _______ _______ _____ _____    ______ ____
ROOT
ATOM      1  C   UNL     1      -0.073   1.395  -0.001  0.00  0.00    +0.045 C 
ATOM      2  C   UNL     1      -0.094  -0.110   0.075  0.00  0.00    -0.029 A 
ATOM      3  C   UNL     1      -0.166  -0.858  -1.086  0.00  0.00    +0.006 A 
ATOM      4  C   UNL     1      -0.185  -2.236  -1.024  0.00  0.00    +0.013 A 
ATOM      5  C   UNL     1      -0.132  -2.880   0.213  0.00  0.00    +0.039 A 
ATOM      6  C   UNL     1      -0.058  -2.127   1.384  0.00  0.00    +0.036 A 
ATOM      7  C   UNL     1      -0.034  -0.742   1.312  0.00  0.00    +0.037 A 
ENDROOT
BRANCH   7   8
ATOM      8  N   UNL     1       0.045   0.019   2.483  0.00  0.00    -0.281 N 
ATOM      9  C   UNL     1      -0.570  -0.405   3.604  0.00  0.00    +0.250 C 
ATOM     10  O   UNL     1      -1.122  -1.488   3.623  0.00  0.00    -0.270 OA
ATOM     11  H   UNL     1       0.543   0.851   2.488  0.00  0.00    +0.155 HD
BRANCH   9  12
ATOM     12  C   UNL     1      -0.574   0.447   4.812  0.00  0.00    +0.055 A 
ATOM     13  C   UNL     1      -1.205   0.015   5.986  0.00  0.00    +0.016 A 
ATOM     14  C   UNL     1      -1.180   0.850   7.089  0.00  0.00    +0.020 A 
ATOM     15  C   UNL     1      -0.538   2.073   6.998  0.00  0.00    +0.111 A 
ATOM     16  N   UNL     1       0.048   2.453   5.879  0.00  0.00    -0.263 NA
ATOM     17  C   UNL     1       0.056   1.692   4.804  0.00  0.00    +0.123 A 
ENDBRANCH   9  12
ENDBRANCH   7   8
BRANCH   5  18
ATOM     18  C   UNL     1      -0.153  -4.357   0.282  0.00  0.00    +0.248 C 
ATOM     19  O   UNL     1      -0.106  -4.916   1.360  0.00  0.00    -0.270 OA
ATOM     20  N   UNL     1      -0.224  -5.083  -0.851  0.00  0.00    -0.281 N 
ATOM     21  H   UNL     1      -0.176  -4.642  -1.714  0.00  0.00    +0.155 HD
BRANCH  20  22
ATOM     22  C   UNL     1      -0.367  -6.473  -0.783  0.00  0.00    +0.034 A 
ATOM     23  C   UNL     1       0.088  -7.271  -1.825  0.00  0.00    +0.023 A 
ATOM     24  C   UNL     1      -0.054  -8.643  -1.754  0.00  0.00    +0.002 A 
ATOM     25  C   UNL     1      -0.651  -9.222  -0.649  0.00  0.00    +0.012 A 
ATOM     26  C   UNL     1      -1.106  -8.430   0.389  0.00  0.00    +0.057 A 
ATOM     27  C   UNL     1      -0.960  -7.058   0.328  0.00  0.00    +0.035 A 
BRANCH  26  28
ATOM     28  C   UNL     1      -1.756  -9.065   1.591  0.00  0.00    +0.417 C 
ATOM     29  F   UNL     1      -1.784 -10.454   1.427  0.00  0.00    -0.166 F 
ATOM     30  F   UNL     1      -1.024  -8.746   2.740  0.00  0.00    -0.166 F 
ATOM     31  F   UNL     1      -3.063  -8.585   1.723  0.00  0.00    -0.166 F 
ENDBRANCH  26  28
ENDBRANCH  20  22
ENDBRANCH   5  18
TORSDOF 5
