REMARK  Name = CHEMBL245769
REMARK  9 active torsions:
REMARK  status: ('A' for Active; 'I' for Inactive)
REMARK    1  A    between atoms: C_1  and  O_2
REMARK    2  A    between atoms: O_2  and  C_3
REMARK    3  A    between atoms: C_3  and  C_4
REMARK    4  A    between atoms: N_6  and  C_7
REMARK    5  A    between atoms: C_19  and  C_20
REMARK    6  A    between atoms: C_22  and  C_25
REMARK    7  A    between atoms: C_26  and  C_27
REMARK    8  A    between atoms: C_27  and  O_28
REMARK    9  A    between atoms: O_28  and  C_29
REMARK                            x       y       z     vdW  Elec       q    Type
REMARK                         _______ _______ _______ _____ _____    ______ ____
ROOT
ATOM      1  C   UNL     1       1.065  -4.235   1.865  0.00  0.00    +0.038 A 
ATOM      2  C   UNL     1       0.437  -4.792   0.757  0.00  0.00    +0.023 A 
ATOM      3  C   UNL     1       0.296  -6.163   0.659  0.00  0.00    +0.002 A 
ATOM      4  C   UNL     1       0.777  -6.986   1.658  0.00  0.00    +0.010 A 
ATOM      5  C   UNL     1       1.410  -6.436   2.774  0.00  0.00    +0.008 A 
ATOM      6  C   UNL     1       1.555  -5.056   2.867  0.00  0.00    -0.013 A 
ATOM      7  C   UNL     1       2.274  -4.754   4.159  0.00  0.00    +0.077 C 
ATOM      8  C   UNL     1       2.542  -6.088   4.811  0.00  0.00    +0.010 A 
ATOM      9  C   UNL     1       2.009  -7.080   3.971  0.00  0.00    +0.097 A 
ATOM     10  N   UNL     1       2.234  -8.252   4.533  0.00  0.00    -0.173 NA
ATOM     11  N   UNL     1       2.897  -8.044   5.748  0.00  0.00    -0.276 N 
ATOM     12  H   UNL     1       3.184  -8.733   6.367  0.00  0.00    +0.189 HD
ATOM     13  C   UNL     1       3.091  -6.702   5.896  0.00  0.00    +0.070 A 
ENDROOT
BRANCH  13  14
ATOM     14  C   UNL     1       3.752  -6.033   7.039  0.00  0.00    +0.008 A 
ATOM     15  C   UNL     1       4.957  -6.509   7.538  0.00  0.00    +0.034 A 
ATOM     16  C   UNL     1       5.532  -5.859   8.596  0.00  0.00    +0.063 A 
ATOM     17  S   UNL     1       4.366  -4.546   8.912  0.00  0.00    -0.088 S 
ATOM     18  C   UNL     1       3.191  -4.928   7.624  0.00  0.00    +0.056 A 
BRANCH  16  19
ATOM     19  C   UNL     1       6.756  -6.158   9.276  0.00  0.00    -0.056 C 
ATOM     20  C   UNL     1       7.760  -6.403   9.834  0.00  0.00    -0.056 C 
BRANCH  20  21
ATOM     21  C   UNL     1       9.018  -6.710  10.533  0.00  0.00    +0.318 C 
BRANCH  21  22
ATOM     22  O   UNL     1       9.224  -5.761  11.581  0.00  0.00    -0.480 OA
BRANCH  22  23
ATOM     23  C   UNL     1      10.350  -5.903  12.330  0.00  0.00    +0.122 A 
ATOM     24  C   UNL     1      11.240  -6.931  12.057  0.00  0.00    +0.046 A 
ATOM     25  C   UNL     1      12.383  -7.074  12.820  0.00  0.00    +0.004 A 
ATOM     26  C   UNL     1      12.640  -6.193  13.854  0.00  0.00    +0.000 A 
ATOM     27  C   UNL     1      11.754  -5.167  14.128  0.00  0.00    +0.004 A 
ATOM     28  C   UNL     1      10.613  -5.017  13.364  0.00  0.00    +0.046 A 
ENDBRANCH  22  23
ENDBRANCH  21  22
ENDBRANCH  20  21
ENDBRANCH  16  19
ENDBRANCH  13  14
BRANCH   1  31
ATOM     29  C   UNL     1       1.217  -2.088   0.850  0.00  0.00    +0.243 C 
ATOM     30  O   UNL     1       1.203  -2.615  -0.242  0.00  0.00    -0.273 OA
ATOM     31  N   UNL     1       1.208  -2.846   1.964  0.00  0.00    -0.283 N 
ATOM     32  H   UNL     1       1.300  -2.429   2.835  0.00  0.00    +0.155 HD
BRANCH  29  33
ATOM     33  C   UNL     1       1.245  -0.586   0.961  0.00  0.00    +0.255 C 
BRANCH  33  35
ATOM     34  C   UNL     1       1.276   1.418  -0.354  0.00  0.00    +0.194 C 
ATOM     35  O   UNL     1       1.250  -0.011  -0.347  0.00  0.00    -0.374 OA
ENDBRANCH  33  35
ENDBRANCH  29  33
ENDBRANCH   1  31
TORSDOF 8
