REMARK  Name = CHEMBL514619
REMARK  7 active torsions:
REMARK  status: ('A' for Active; 'I' for Inactive)
REMARK    1  A    between atoms: C_1  and  C_2
REMARK    2  A    between atoms: C_4  and  C_8
REMARK    3  A    between atoms: N_10  and  C_11
REMARK    4  A    between atoms: C_15  and  C_17
REMARK    5  A    between atoms: C_17  and  C_19
REMARK    6  A    between atoms: C_17  and  N_20
REMARK    7  A    between atoms: N_20  and  C_21
REMARK                            x       y       z     vdW  Elec       q    Type
REMARK                         _______ _______ _______ _____ _____    ______ ____
ROOT
ATOM      1  C   UNL     1       0.143  -4.930  -3.557  0.00  0.00    +0.034 A 
ATOM      2  C   UNL     1       0.228  -4.236  -4.757  0.00  0.00    +0.023 A 
ATOM      3  C   UNL     1       0.321  -4.928  -5.948  0.00  0.00    +0.002 A 
ATOM      4  C   UNL     1       0.328  -6.311  -5.948  0.00  0.00    +0.005 A 
ATOM      5  C   UNL     1       0.243  -7.005  -4.755  0.00  0.00    -0.026 A 
ATOM      6  C   UNL     1       0.156  -6.319  -3.559  0.00  0.00    +0.028 A 
ENDROOT
BRANCH   1   9
ATOM      7  C   UNL     1       0.647  -4.717  -1.242  0.00  0.00    +0.250 C 
ATOM      8  O   UNL     1       1.196  -5.802  -1.274  0.00  0.00    -0.270 OA
ATOM      9  N   UNL     1       0.049  -4.232  -2.349  0.00  0.00    -0.281 N 
ATOM     10  H   UNL     1      -0.446  -3.399  -2.307  0.00  0.00    +0.155 HD
BRANCH   7  14
ATOM     11  C   UNL     1       1.863  -4.133   3.581  0.00  0.00    +0.045 C 
ATOM     12  C   UNL     1       1.214  -3.648   2.311  0.00  0.00    -0.032 A 
ATOM     13  C   UNL     1       1.253  -4.423   1.165  0.00  0.00    +0.019 A 
ATOM     14  C   UNL     1       0.635  -3.931   0.009  0.00  0.00    +0.055 A 
ATOM     15  C   UNL     1       0.009  -2.684   0.058  0.00  0.00    +0.123 A 
ATOM     16  N   UNL     1      -0.000  -1.983   1.173  0.00  0.00    -0.262 NA
ATOM     17  C   UNL     1       0.568  -2.425   2.279  0.00  0.00    +0.114 A 
ENDBRANCH   7  14
ENDBRANCH   1   9
BRANCH   5  18
ATOM     18  C   UNL     1       0.250  -8.512  -4.759  0.00  0.00    +0.098 C 
ATOM     19  C   UNL     1       1.688  -9.014  -4.905  0.00  0.00    +0.033 C 
BRANCH  18  20
ATOM     20  N   UNL     1      -0.554  -9.001  -5.882  0.00  0.00    -0.336 N 
ATOM     21  H   UNL     1      -0.684  -8.443  -6.665  0.00  0.00    +0.147 HD
BRANCH  20  22
ATOM     22  C   UNL     1      -1.134 -10.271  -5.824  0.00  0.00    +0.047 A 
ATOM     23  C   UNL     1      -1.896 -10.748  -6.888  0.00  0.00    +0.041 A 
ATOM     24  C   UNL     1      -2.450 -12.014  -6.785  0.00  0.00    +0.038 A 
ATOM     25  C   UNL     1      -2.231 -12.756  -5.637  0.00  0.00    +0.126 A 
ATOM     26  N   UNL     1      -1.504 -12.274  -4.648  0.00  0.00    -0.260 NA
ATOM     27  C   UNL     1      -0.955 -11.078  -4.708  0.00  0.00    +0.133 A 
ATOM     28 BR   UNL     1      -3.496 -12.719  -8.194  0.00  0.00    -0.049 Br
ENDBRANCH  20  22
ENDBRANCH  18  20
ENDBRANCH   5  18
TORSDOF 5
