REMARK  Name = CHEMBL480455
REMARK  10 active torsions:
REMARK  status: ('A' for Active; 'I' for Inactive)
REMARK    1  A    between atoms: C_1  and  O_2
REMARK    2  A    between atoms: O_2  and  C_3
REMARK    3  A    between atoms: C_8  and  O_9
REMARK    4  A    between atoms: O_9  and  C_10
REMARK    5  A    between atoms: C_10  and  C_11
REMARK    6  A    between atoms: C_11  and  N_12
REMARK    7  A    between atoms: C_15  and  O_18
REMARK    8  A    between atoms: C_21  and  C_32
REMARK    9  A    between atoms: C_22  and  N_23
REMARK   10  A    between atoms: N_23  and  C_24
REMARK                            x       y       z     vdW  Elec       q    Type
REMARK                         _______ _______ _______ _____ _____    ______ ____
ROOT
ATOM      1  C   UNL     1      -2.306  -2.576  -2.661  0.00  0.00    +0.162 A 
ATOM      2  C   UNL     1      -2.963  -1.554  -2.037  0.00  0.00    +0.061 A 
ATOM      3  C   UNL     1      -3.459  -1.734  -0.738  0.00  0.00    +0.026 A 
ATOM      4  C   UNL     1      -3.278  -2.973  -0.077  0.00  0.00    +0.076 A 
ATOM      5  C   UNL     1      -2.600  -4.008  -0.739  0.00  0.00    +0.077 A 
ATOM      6  C   UNL     1      -2.128  -3.808  -2.017  0.00  0.00    +0.164 A 
ATOM      7  N   UNL     1      -3.751  -3.152   1.165  0.00  0.00    -0.254 NA
ATOM      8  C   UNL     1      -4.388  -2.207   1.808  0.00  0.00    +0.126 A 
ATOM      9  C   UNL     1      -4.612  -0.947   1.230  0.00  0.00    +0.076 A 
ATOM     10  C   UNL     1      -4.143  -0.693  -0.068  0.00  0.00    +0.054 A 
ENDROOT
BRANCH   9  11
ATOM     11  C   UNL     1      -5.332   0.096   1.978  0.00  0.00    +0.245 C 
ATOM     12  O   UNL     1      -5.513   1.190   1.477  0.00  0.00    -0.270 OA
ATOM     13  N   UNL     1      -5.791  -0.160   3.220  0.00  0.00    -0.325 N 
ATOM     14  H   UNL     1      -5.647  -1.032   3.620  0.00  0.00    +0.145 HD
ATOM     15  H   UNL     1      -6.266   0.527   3.713  0.00  0.00    +0.145 HD
ENDBRANCH   9  11
BRANCH   1  17
ATOM     16  C   UNL     1      -2.040  -1.120  -4.522  0.00  0.00    +0.277 C 
ATOM     17  O   UNL     1      -1.826  -2.398  -3.921  0.00  0.00    -0.491 OA
ENDBRANCH   1  17
BRANCH  10  18
ATOM     18  N   UNL     1      -4.342   0.532  -0.670  0.00  0.00    -0.313 N 
ATOM     19  H   UNL     1      -3.649   1.209  -0.632  0.00  0.00    +0.152 HD
BRANCH  18  20
ATOM     20  C   UNL     1      -5.543   0.797  -1.335  0.00  0.00    +0.033 A 
ATOM     21  C   UNL     1      -6.592  -0.112  -1.266  0.00  0.00    +0.026 A 
ATOM     22  C   UNL     1      -7.777   0.151  -1.923  0.00  0.00    +0.041 A 
ATOM     23  C   UNL     1      -7.922   1.320  -2.651  0.00  0.00    +0.142 A 
ATOM     24  C   UNL     1      -6.878   2.228  -2.721  0.00  0.00    +0.078 A 
ATOM     25  C   UNL     1      -5.692   1.971  -2.060  0.00  0.00    +0.046 A 
ATOM     26 CL   UNL     1      -7.063   3.693  -3.635  0.00  0.00    -0.081 Cl
ATOM     27  F   UNL     1      -9.083   1.576  -3.293  0.00  0.00    -0.204 F 
ENDBRANCH  18  20
ENDBRANCH  10  18
BRANCH   6  28
ATOM     28  O   UNL     1      -1.478  -4.813  -2.658  0.00  0.00    -0.490 OA
BRANCH  28  29
ATOM     29  C   UNL     1      -1.328  -6.045  -1.949  0.00  0.00    +0.211 C 
BRANCH  29  30
ATOM     30  C   UNL     1      -0.576  -7.049  -2.825  0.00  0.00    -0.037 C 
BRANCH  30  31
ATOM     31  N   UNL     1       0.767  -6.533  -3.120  0.00  0.00    +0.382 N 
ATOM     32  C   UNL     1       1.417  -7.401  -4.109  0.00  0.00    -0.076 C 
ATOM     33  C   UNL     1       2.784  -6.822  -4.481  0.00  0.00    +0.013 C 
ATOM     34  C   UNL     1       3.655  -6.736  -3.224  0.00  0.00    +0.111 C 
ATOM     35  C   UNL     1       2.933  -5.889  -2.172  0.00  0.00    +0.013 C 
ATOM     36  C   UNL     1       1.560  -6.502  -1.885  0.00  0.00    -0.076 C 
ATOM     37  H   UNL     1       0.692  -5.598  -3.494  0.00  0.00    -0.082 HD
BRANCH  34  38
ATOM     38  O   UNL     1       4.906  -6.128  -3.550  0.00  0.00    -0.392 OA
ATOM     39  H   UNL     1       5.509  -6.041  -2.799  0.00  0.00    +0.210 HD
ENDBRANCH  34  38
ENDBRANCH  30  31
ENDBRANCH  29  30
ENDBRANCH  28  29
ENDBRANCH   6  28
TORSDOF 9
