REMARK  Name = CHEMBL245377
REMARK  9 active torsions:
REMARK  status: ('A' for Active; 'I' for Inactive)
REMARK    1  A    between atoms: C_1  and  N_2
REMARK    2  A    between atoms: N_5  and  C_8
REMARK    3  A    between atoms: C_8  and  C_9
REMARK    4  A    between atoms: N_11  and  C_12
REMARK    5  A    between atoms: C_24  and  C_25
REMARK    6  A    between atoms: C_27  and  C_30
REMARK    7  A    between atoms: C_31  and  C_32
REMARK    8  A    between atoms: C_32  and  O_33
REMARK    9  A    between atoms: O_33  and  C_34
REMARK                            x       y       z     vdW  Elec       q    Type
REMARK                         _______ _______ _______ _____ _____    ______ ____
ROOT
ATOM      1  C   UNL     1       0.568  -6.284   3.967  0.00  0.00    +0.038 A 
ATOM      2  C   UNL     1       0.977  -5.401   4.958  0.00  0.00    +0.023 A 
ATOM      3  C   UNL     1       1.544  -5.882   6.122  0.00  0.00    +0.002 A 
ATOM      4  C   UNL     1       1.708  -7.240   6.308  0.00  0.00    +0.010 A 
ATOM      5  C   UNL     1       1.300  -8.136   5.318  0.00  0.00    +0.008 A 
ATOM      6  C   UNL     1       0.725  -7.649   4.150  0.00  0.00    -0.013 A 
ATOM      7  C   UNL     1       0.380  -8.831   3.277  0.00  0.00    +0.077 C 
ATOM      8  C   UNL     1       0.802 -10.057   4.048  0.00  0.00    +0.010 A 
ATOM      9  C   UNL     1       1.358  -9.619   5.261  0.00  0.00    +0.097 A 
ATOM     10  N   UNL     1       1.736 -10.684   5.943  0.00  0.00    -0.173 NA
ATOM     11  N   UNL     1       1.449 -11.824   5.183  0.00  0.00    -0.276 N 
ATOM     12  H   UNL     1       1.623 -12.742   5.444  0.00  0.00    +0.189 HD
ATOM     13  C   UNL     1       0.860 -11.418   4.022  0.00  0.00    +0.070 A 
ENDROOT
BRANCH  13  14
ATOM     14  C   UNL     1       0.394 -12.293   2.923  0.00  0.00    +0.008 A 
ATOM     15  C   UNL     1      -0.357 -13.428   3.192  0.00  0.00    +0.034 A 
ATOM     16  C   UNL     1      -0.766 -14.209   2.146  0.00  0.00    +0.063 A 
ATOM     17  S   UNL     1      -0.088 -13.342   0.741  0.00  0.00    -0.088 S 
ATOM     18  C   UNL     1       0.691 -11.997   1.618  0.00  0.00    +0.056 A 
BRANCH  16  19
ATOM     19  C   UNL     1      -1.540 -15.414   2.171  0.00  0.00    -0.056 C 
ATOM     20  C   UNL     1      -2.175 -16.401   2.192  0.00  0.00    -0.056 C 
BRANCH  20  21
ATOM     21  C   UNL     1      -2.970 -17.639   2.218  0.00  0.00    +0.318 C 
BRANCH  21  22
ATOM     22  O   UNL     1      -3.158 -18.113   0.883  0.00  0.00    -0.480 OA
BRANCH  22  23
ATOM     23  C   UNL     1      -3.877 -19.256   0.729  0.00  0.00    +0.122 A 
ATOM     24  C   UNL     1      -4.396 -19.905   1.840  0.00  0.00    +0.046 A 
ATOM     25  C   UNL     1      -5.127 -21.066   1.681  0.00  0.00    +0.004 A 
ATOM     26  C   UNL     1      -5.341 -21.582   0.416  0.00  0.00    +0.000 A 
ATOM     27  C   UNL     1      -4.824 -20.938  -0.693  0.00  0.00    +0.004 A 
ATOM     28  C   UNL     1      -4.098 -19.773  -0.540  0.00  0.00    +0.046 A 
ENDBRANCH  22  23
ENDBRANCH  21  22
ENDBRANCH  20  21
ENDBRANCH  16  19
ENDBRANCH  13  14
BRANCH   1  31
ATOM     29  C   UNL     1       0.416  -4.629   2.264  0.00  0.00    +0.231 C 
ATOM     30  O   UNL     1       1.237  -3.961   2.857  0.00  0.00    -0.274 OA
ATOM     31  N   UNL     1      -0.007  -5.797   2.787  0.00  0.00    -0.284 N 
ATOM     32  H   UNL     1      -0.710  -6.300   2.347  0.00  0.00    +0.155 HD
BRANCH  29  33
ATOM     33  C   UNL     1      -0.130  -4.154   0.943  0.00  0.00    +0.180 C 
BRANCH  33  38
ATOM     34  C   UNL     1       2.471   0.242  -1.436  0.00  0.00    -0.096 C 
ATOM     35  N   UNL     1       1.871  -1.065  -1.137  0.00  0.00    +0.379 N 
ATOM     36  C   UNL     1       0.440  -0.893  -0.855  0.00  0.00    -0.064 C 
ATOM     37  C   UNL     1      -0.190  -2.256  -0.561  0.00  0.00    +0.066 C 
ATOM     38  N   UNL     1       0.485  -2.866   0.593  0.00  0.00    -0.298 NA
ATOM     39  C   UNL     1       1.923  -3.022   0.335  0.00  0.00    +0.066 C 
ATOM     40  C   UNL     1       2.535  -1.652   0.034  0.00  0.00    -0.064 C 
ATOM     41  H   UNL     1       1.986  -1.677  -1.930  0.00  0.00    -0.082 HD
ENDBRANCH  33  38
ENDBRANCH  29  33
ENDBRANCH   1  31
TORSDOF 8
