REMARK  Name = CHEMBL553523
REMARK  7 active torsions:
REMARK  status: ('A' for Active; 'I' for Inactive)
REMARK    1  A    between atoms: C_1  and  C_2
REMARK    2  A    between atoms: C_6  and  N_8
REMARK    3  A    between atoms: N_8  and  C_9
REMARK    4  A    between atoms: C_13  and  O_22
REMARK    5  A    between atoms: C_14  and  O_20
REMARK    6  A    between atoms: O_20  and  C_21
REMARK    7  A    between atoms: O_22  and  C_23
REMARK                            x       y       z     vdW  Elec       q    Type
REMARK                         _______ _______ _______ _____ _____    ______ ____
ROOT
ATOM      1  N   UNL     1       0.051  -2.797   2.391  0.00  0.00    -0.288 N 
ATOM      2  C   UNL     1      -1.231  -2.096   2.504  0.00  0.00    +0.137 C 
ATOM      3  C   UNL     1       0.079  -4.174   2.290  0.00  0.00    +0.136 A 
ATOM      4  C   UNL     1       0.047  -4.988   3.447  0.00  0.00    +0.044 A 
ATOM      5  C   UNL     1      -0.013  -4.442   4.736  0.00  0.00    +0.062 A 
ATOM      6  C   UNL     1      -0.041  -5.271   5.821  0.00  0.00    +0.162 A 
ATOM      7  C   UNL     1      -0.011  -6.663   5.660  0.00  0.00    +0.164 A 
ATOM      8  C   UNL     1       0.049  -7.225   4.404  0.00  0.00    +0.078 A 
ATOM      9  C   UNL     1       0.078  -6.394   3.277  0.00  0.00    +0.080 A 
ATOM     10  N   UNL     1       0.135  -6.891   2.031  0.00  0.00    -0.235 NA
ATOM     11  C   UNL     1       0.162  -6.087   0.995  0.00  0.00    +0.223 A 
ATOM     12  N   UNL     1       0.130  -4.769   1.106  0.00  0.00    -0.220 NA
ENDROOT
BRANCH   1  18
ATOM     13  C   UNL     1       2.369   1.537   2.337  0.00  0.00    +0.044 C 
ATOM     14  C   UNL     1       2.399   0.031   2.359  0.00  0.00    -0.049 A 
ATOM     15  C   UNL     1       3.611  -0.636   2.373  0.00  0.00    +0.003 A 
ATOM     16  C   UNL     1       3.643  -2.018   2.393  0.00  0.00    +0.002 A 
ATOM     17  C   UNL     1       2.464  -2.738   2.399  0.00  0.00    +0.023 A 
ATOM     18  C   UNL     1       1.246  -2.072   2.385  0.00  0.00    +0.035 A 
ATOM     19  C   UNL     1       1.217  -0.683   2.371  0.00  0.00    +0.026 A 
ENDBRANCH   1  18
BRANCH   7  20
ATOM     20  O   UNL     1      -0.040  -7.467   6.754  0.00  0.00    -0.491 OA
ATOM     21  C   UNL     1      -0.006  -8.877   6.525  0.00  0.00    +0.277 C 
ENDBRANCH   7  20
BRANCH   6  22
ATOM     22  O   UNL     1      -0.100  -4.740   7.071  0.00  0.00    -0.491 OA
ATOM     23  C   UNL     1      -0.128  -3.315   7.170  0.00  0.00    +0.277 C 
ENDBRANCH   6  22
TORSDOF 3
