REMARK  Name = CHEMBL251842
REMARK  7 active torsions:
REMARK  status: ('A' for Active; 'I' for Inactive)
REMARK    1  A    between atoms: C_1  and  C_2
REMARK    2  A    between atoms: N_5  and  C_8
REMARK    3  A    between atoms: C_10  and  N_24
REMARK    4  A    between atoms: C_13  and  N_14
REMARK    5  A    between atoms: C_15  and  C_17
REMARK    6  A    between atoms: C_20  and  C_22
REMARK    7  A    between atoms: N_27  and  C_30
REMARK                            x       y       z     vdW  Elec       q    Type
REMARK                         _______ _______ _______ _____ _____    ______ ____
ROOT
ATOM      1  C   UNL     1      -1.070  -3.495   1.988  0.00  0.00    +0.072 A 
ATOM      2  C   UNL     1      -0.915  -4.855   1.752  0.00  0.00    +0.051 A 
ATOM      3  C   UNL     1      -1.444  -5.752   2.677  0.00  0.00    +0.050 A 
ATOM      4  C   UNL     1      -2.103  -5.262   3.795  0.00  0.00    +0.136 A 
ATOM      5  N   UNL     1      -2.234  -3.964   3.990  0.00  0.00    -0.236 NA
ATOM      6  C   UNL     1      -1.741  -3.079   3.140  0.00  0.00    +0.147 A 
ENDROOT
BRANCH   3   7
ATOM      7  N   UNL     1      -1.312  -7.131   2.480  0.00  0.00    -0.332 N 
ATOM      8  C   UNL     1      -0.721  -7.666   1.244  0.00  0.00    +0.086 C 
ATOM      9  C   UNL     1       0.368  -8.675   1.624  0.00  0.00    -0.060 C 
ATOM     10  N   UNL     1      -0.201  -9.695   2.514  0.00  0.00    +0.380 N 
ATOM     11  C   UNL     1      -0.624  -9.077   3.777  0.00  0.00    -0.060 C 
ATOM     12  C   UNL     1      -1.756  -8.087   3.506  0.00  0.00    +0.086 C 
ATOM     13  C   UNL     1       0.813 -10.722   2.789  0.00  0.00    -0.096 C 
ATOM     14  H   UNL     1      -0.997 -10.124   2.067  0.00  0.00    -0.082 HD
ENDBRANCH   3   7
BRANCH   1  19
ATOM     15  C   UNL     1       0.023   1.526   0.035  0.00  0.00    +0.007 C 
ATOM     16  C   UNL     1       0.041  -0.004   0.025  0.00  0.00    -0.011 C 
ATOM     17  C   UNL     1      -1.395  -0.531   0.017  0.00  0.00    +0.022 C 
ATOM     18  C   UNL     1      -1.373  -2.062  -0.028  0.00  0.00    +0.105 C 
ATOM     19  N   UNL     1      -0.555  -2.556   1.088  0.00  0.00    -0.327 N 
ATOM     20  C   UNL     1       0.814  -2.044   1.242  0.00  0.00    +0.105 C 
ATOM     21  C   UNL     1       0.767  -0.513   1.272  0.00  0.00    +0.022 C 
ENDBRANCH   1  19
BRANCH   6  22
ATOM     22  N   UNL     1      -1.899  -1.714   3.393  0.00  0.00    -0.262 N 
ATOM     23  C   UNL     1      -2.546  -1.305   4.502  0.00  0.00    +0.285 C 
ATOM     24  O   UNL     1      -2.993  -2.125   5.283  0.00  0.00    -0.266 OA
ATOM     25  H   UNL     1      -1.543  -1.061   2.770  0.00  0.00    +0.157 HD
BRANCH  23  26
ATOM     26  C   UNL     1      -2.713   0.130   4.769  0.00  0.00    +0.191 A 
ATOM     27  C   UNL     1      -3.341   0.673   5.854  0.00  0.00    +0.056 A 
ATOM     28  C   UNL     1      -3.273   2.063   5.714  0.00  0.00    +0.061 A 
ATOM     29  C   UNL     1      -2.600   2.313   4.538  0.00  0.00    +0.205 A 
ATOM     30  O   UNL     1      -2.267   1.132   3.986  0.00  0.00    -0.440 OA
BRANCH  29  31
ATOM     31  C   UNL     1      -2.303   3.606   3.999  0.00  0.00    +0.138 C 
ATOM     32  N   UNL     1      -2.067   4.631   3.572  0.00  0.00    -0.188 NA
ENDBRANCH  29  31
ENDBRANCH  23  26
ENDBRANCH   6  22
TORSDOF 5
