REMARK  Name = CHEMBL258474
REMARK  7 active torsions:
REMARK  status: ('A' for Active; 'I' for Inactive)
REMARK    1  A    between atoms: C_1  and  C_2
REMARK    2  A    between atoms: C_7  and  C_8
REMARK    3  A    between atoms: C_10  and  N_24
REMARK    4  A    between atoms: C_13  and  N_14
REMARK    5  A    between atoms: C_15  and  C_17
REMARK    6  A    between atoms: C_20  and  C_22
REMARK    7  A    between atoms: N_27  and  C_30
REMARK                            x       y       z     vdW  Elec       q    Type
REMARK                         _______ _______ _______ _____ _____    ______ ____
ROOT
ATOM      1  C   UNL     1      -0.011  -0.085   2.467  0.00  0.00    +0.005 A 
ATOM      2  C   UNL     1       1.089  -0.232   3.307  0.00  0.00    +0.033 A 
ATOM      3  C   UNL     1       1.117   0.420   4.530  0.00  0.00    +0.030 A 
ATOM      4  C   UNL     1       0.048   1.221   4.917  0.00  0.00    +0.025 A 
ATOM      5  C   UNL     1      -1.045   1.371   4.088  0.00  0.00    +0.026 A 
ATOM      6  C   UNL     1      -1.081   0.727   2.859  0.00  0.00    +0.042 A 
ENDROOT
BRANCH   1  13
ATOM      7  C   UNL     1       0.004   1.461   0.021  0.00  0.00    +0.044 C 
ATOM      8  C   UNL     1      -0.040  -0.045  -0.026  0.00  0.00    -0.043 A 
ATOM      9  C   UNL     1      -0.067  -0.698  -1.242  0.00  0.00    +0.004 A 
ATOM     10  C   UNL     1      -0.107  -2.080  -1.287  0.00  0.00    +0.000 A 
ATOM     11  C   UNL     1      -0.120  -2.815  -0.115  0.00  0.00    +0.001 A 
ATOM     12  C   UNL     1      -0.093  -2.173   1.106  0.00  0.00    +0.009 A 
ATOM     13  C   UNL     1      -0.046  -0.780   1.157  0.00  0.00    -0.013 A 
ENDBRANCH   1  13
BRANCH   3  14
ATOM     14  N   UNL     1       2.222   0.273   5.375  0.00  0.00    -0.327 N 
ATOM     15  C   UNL     1       2.326   1.046   6.622  0.00  0.00    +0.120 C 
ATOM     16  C   UNL     1       2.624   0.077   7.772  0.00  0.00    +0.103 C 
ATOM     17  N   UNL     1       3.807  -0.726   7.437  0.00  0.00    -0.302 NA
ATOM     18  C   UNL     1       3.568  -1.560   6.252  0.00  0.00    +0.103 C 
ATOM     19  C   UNL     1       3.306  -0.663   5.043  0.00  0.00    +0.120 C 
ATOM     20  C   UNL     1       4.228  -1.546   8.582  0.00  0.00    +0.105 C 
ENDBRANCH   3  14
BRANCH   6  21
ATOM     21  N   UNL     1      -2.186   0.885   2.018  0.00  0.00    -0.278 N 
ATOM     22  C   UNL     1      -2.850   2.058   1.990  0.00  0.00    +0.284 C 
ATOM     23  O   UNL     1      -2.428   3.011   2.617  0.00  0.00    -0.266 OA
ATOM     24  H   UNL     1      -2.475   0.151   1.454  0.00  0.00    +0.155 HD
BRANCH  22  25
ATOM     25  C   UNL     1      -4.085   2.185   1.203  0.00  0.00    +0.191 A 
ATOM     26  C   UNL     1      -4.845   3.315   1.088  0.00  0.00    +0.056 A 
ATOM     27  C   UNL     1      -5.922   3.000   0.252  0.00  0.00    +0.061 A 
ATOM     28  C   UNL     1      -5.772   1.680  -0.112  0.00  0.00    +0.205 A 
ATOM     29  O   UNL     1      -4.653   1.209   0.469  0.00  0.00    -0.440 OA
BRANCH  28  30
ATOM     30  C   UNL     1      -6.651   0.939  -0.965  0.00  0.00    +0.138 C 
ATOM     31  N   UNL     1      -7.349   0.351  -1.641  0.00  0.00    -0.188 NA
ENDBRANCH  28  30
ENDBRANCH  22  25
ENDBRANCH   6  21
TORSDOF 5
