REMARK  Name = CHEMBL250156
REMARK  7 active torsions:
REMARK  status: ('A' for Active; 'I' for Inactive)
REMARK    1  A    between atoms: C_1  and  N_2
REMARK    2  A    between atoms: N_5  and  C_8
REMARK    3  A    between atoms: C_8  and  C_9
REMARK    4  A    between atoms: C_12  and  N_25
REMARK    5  A    between atoms: C_13  and  N_15
REMARK    6  A    between atoms: C_16  and  C_18
REMARK    7  A    between atoms: C_21  and  C_23
REMARK                            x       y       z     vdW  Elec       q    Type
REMARK                         _______ _______ _______ _____ _____    ______ ____
ROOT
ATOM      1  C   UNL     1      -0.112  -4.495   2.513  0.00  0.00    -0.032 A 
ATOM      2  C   UNL     1       1.243  -4.726   2.658  0.00  0.00    +0.007 A 
ATOM      3  C   UNL     1       1.750  -5.153   3.871  0.00  0.00    +0.025 A 
ATOM      4  C   UNL     1       0.897  -5.351   4.947  0.00  0.00    +0.051 A 
ATOM      5  C   UNL     1      -0.470  -5.118   4.801  0.00  0.00    +0.055 A 
ATOM      6  C   UNL     1      -0.969  -4.685   3.581  0.00  0.00    +0.030 A 
ENDROOT
BRANCH   4   7
ATOM      7  N   UNL     1       1.407  -5.784   6.176  0.00  0.00    -0.328 N 
ATOM      8  C   UNL     1       1.519  -7.217   6.478  0.00  0.00    +0.105 C 
ATOM      9  C   UNL     1       2.959  -7.522   6.902  0.00  0.00    +0.019 C 
ATOM     10  C   UNL     1       3.350  -6.604   8.062  0.00  0.00    +0.003 C 
ATOM     11  C   UNL     1       3.279  -5.144   7.606  0.00  0.00    +0.019 C 
ATOM     12  C   UNL     1       1.848  -4.813   7.188  0.00  0.00    +0.105 C 
ENDBRANCH   4   7
BRANCH   5  13
ATOM     13  N   UNL     1      -1.336  -5.316   5.883  0.00  0.00    -0.277 N 
ATOM     14  C   UNL     1      -2.406  -4.513   6.046  0.00  0.00    +0.284 C 
ATOM     15  O   UNL     1      -2.666  -3.668   5.209  0.00  0.00    -0.266 OA
ATOM     16  H   UNL     1      -1.167  -6.031   6.516  0.00  0.00    +0.155 HD
BRANCH  14  17
ATOM     17  C   UNL     1      -3.260  -4.657   7.234  0.00  0.00    +0.191 A 
ATOM     18  C   UNL     1      -4.371  -3.912   7.512  0.00  0.00    +0.056 A 
ATOM     19  C   UNL     1      -4.879  -4.375   8.731  0.00  0.00    +0.061 A 
ATOM     20  C   UNL     1      -4.049  -5.392   9.148  0.00  0.00    +0.205 A 
ATOM     21  O   UNL     1      -3.081  -5.549   8.226  0.00  0.00    -0.440 OA
BRANCH  20  22
ATOM     22  C   UNL     1      -4.193  -6.154  10.352  0.00  0.00    +0.138 C 
ATOM     23  N   UNL     1      -4.308  -6.758  11.307  0.00  0.00    -0.188 NA
ENDBRANCH  20  22
ENDBRANCH  14  17
ENDBRANCH   5  13
BRANCH   1  24
ATOM     24  C   UNL     1      -0.657  -4.029   1.187  0.00  0.00    +0.119 C 
BRANCH  24  29
ATOM     25  C   UNL     1      -0.032   1.438  -0.024  0.00  0.00    -0.096 C 
ATOM     26  N   UNL     1      -0.018  -0.030  -0.026  0.00  0.00    +0.379 N 
ATOM     27  C   UNL     1      -1.397  -0.534  -0.007  0.00  0.00    -0.064 C 
ATOM     28  C   UNL     1      -1.383  -2.064  -0.029  0.00  0.00    +0.066 C 
ATOM     29  N   UNL     1      -0.645  -2.561   1.142  0.00  0.00    -0.302 NA
ATOM     30  C   UNL     1       0.731  -2.045   1.149  0.00  0.00    +0.066 C 
ATOM     31  C   UNL     1       0.699  -0.515   1.161  0.00  0.00    -0.064 C 
ATOM     32  H   UNL     1       0.449  -0.360  -0.858  0.00  0.00    -0.082 HD
ENDBRANCH  24  29
ENDBRANCH   1  24
TORSDOF 6
