REMARK  Name = CHEMBL402908
REMARK  8 active torsions:
REMARK  status: ('A' for Active; 'I' for Inactive)
REMARK    1  A    between atoms: C_1  and  C_2
REMARK    2  A    between atoms: N_5  and  C_8
REMARK    3  A    between atoms: C_10  and  C_24
REMARK    4  A    between atoms: C_13  and  N_14
REMARK    5  A    between atoms: C_15  and  C_17
REMARK    6  A    between atoms: C_20  and  C_22
REMARK    7  A    between atoms: C_25  and  C_26
REMARK    8  A    between atoms: C_26  and  N_27
REMARK                            x       y       z     vdW  Elec       q    Type
REMARK                         _______ _______ _______ _____ _____    ______ ____
ROOT
ATOM      1  C   UNL     1      -1.095  -3.501   1.981  0.00  0.00    +0.052 A 
ATOM      2  C   UNL     1      -0.947  -4.855   1.735  0.00  0.00    +0.041 A 
ATOM      3  C   UNL     1      -1.458  -5.785   2.640  0.00  0.00    +0.027 A 
ATOM      4  C   UNL     1      -2.117  -5.348   3.791  0.00  0.00    +0.019 A 
ATOM      5  C   UNL     1      -2.263  -3.998   4.032  0.00  0.00    +0.026 A 
ATOM      6  C   UNL     1      -1.750  -3.070   3.136  0.00  0.00    +0.055 A 
ENDROOT
BRANCH   1  11
ATOM      7  C   UNL     1       0.010   1.513   0.015  0.00  0.00    +0.007 C 
ATOM      8  C   UNL     1       0.019  -0.017   0.005  0.00  0.00    -0.011 C 
ATOM      9  C   UNL     1      -1.422  -0.534   0.013  0.00  0.00    +0.022 C 
ATOM     10  C   UNL     1      -1.410  -2.066  -0.032  0.00  0.00    +0.105 C 
ATOM     11  N   UNL     1      -0.583  -2.565   1.075  0.00  0.00    -0.328 N 
ATOM     12  C   UNL     1       0.790  -2.062   1.214  0.00  0.00    +0.105 C 
ATOM     13  C   UNL     1       0.754  -0.531   1.245  0.00  0.00    +0.022 C 
ENDBRANCH   1  11
BRANCH   6  14
ATOM     14  N   UNL     1      -1.895  -1.702   3.388  0.00  0.00    -0.277 N 
ATOM     15  C   UNL     1      -2.053  -1.262   4.652  0.00  0.00    +0.284 C 
ATOM     16  O   UNL     1      -1.970  -2.042   5.582  0.00  0.00    -0.266 OA
ATOM     17  H   UNL     1      -1.881  -1.069   2.653  0.00  0.00    +0.155 HD
BRANCH  15  18
ATOM     18  C   UNL     1      -2.326   0.159   4.907  0.00  0.00    +0.191 A 
ATOM     19  C   UNL     1      -2.501   0.730   6.136  0.00  0.00    +0.056 A 
ATOM     20  C   UNL     1      -2.737   2.093   5.925  0.00  0.00    +0.061 A 
ATOM     21  C   UNL     1      -2.696   2.298   4.564  0.00  0.00    +0.205 A 
ATOM     22  O   UNL     1      -2.441   1.118   3.969  0.00  0.00    -0.440 OA
BRANCH  21  23
ATOM     23  C   UNL     1      -2.886   3.551   3.897  0.00  0.00    +0.138 C 
ATOM     24  N   UNL     1      -3.036   4.545   3.369  0.00  0.00    -0.188 NA
ENDBRANCH  21  23
ENDBRANCH  15  18
ENDBRANCH   6  14
BRANCH   3  25
ATOM     25  C   UNL     1      -1.308  -7.187   2.390  0.00  0.00    -0.065 C 
ATOM     26  C   UNL     1      -1.184  -8.337   2.184  0.00  0.00    -0.081 C 
BRANCH  26  27
ATOM     27  C   UNL     1      -1.030  -9.778   1.927  0.00  0.00    +0.174 C 
BRANCH  27  28
ATOM     28  N   UNL     1      -1.649 -10.540   3.019  0.00  0.00    -0.287 NA
ATOM     29  C   UNL     1      -0.922 -10.337   4.281  0.00  0.00    +0.113 C 
ATOM     30  C   UNL     1      -1.634 -11.099   5.402  0.00  0.00    +0.175 C 
ATOM     31  O   UNL     1      -1.727 -12.481   5.047  0.00  0.00    -0.377 OA
ATOM     32  C   UNL     1      -2.429 -12.715   3.824  0.00  0.00    +0.175 C 
ATOM     33  C   UNL     1      -1.726 -11.970   2.687  0.00  0.00    +0.113 C 
ENDBRANCH  27  28
ENDBRANCH  26  27
ENDBRANCH   3  25
TORSDOF 7
