REMARK  Name = CHEMBL1172529
REMARK  9 active torsions:
REMARK  status: ('A' for Active; 'I' for Inactive)
REMARK    1  A    between atoms: C_1  and  N_2
REMARK    2  A    between atoms: N_2  and  C_3
REMARK    3  A    between atoms: N_2  and  S_4
REMARK    4  A    between atoms: S_4  and  C_7
REMARK    5  A    between atoms: C_10  and  C_13
REMARK    6  A    between atoms: C_16  and  N_25
REMARK    7  A    between atoms: C_17  and  C_19
REMARK    8  A    between atoms: C_26  and  C_28
REMARK    9  A    between atoms: C_32  and  C_34
REMARK                            x       y       z     vdW  Elec       q    Type
REMARK                         _______ _______ _______ _____ _____    ______ ____
ROOT
ATOM      1  C   UNL     1      -2.992  -1.704  -5.731  0.00  0.00    -0.017 A 
ATOM      2  C   UNL     1      -3.788  -0.767  -6.391  0.00  0.00    +0.010 A 
ATOM      3  C   UNL     1      -4.158  -0.972  -7.704  0.00  0.00    +0.024 A 
ATOM      4  C   UNL     1      -3.741  -2.112  -8.377  0.00  0.00    +0.041 A 
ATOM      5  C   UNL     1      -2.941  -3.059  -7.722  0.00  0.00    -0.000 A 
ATOM      6  C   UNL     1      -2.564  -2.848  -6.398  0.00  0.00    +0.018 A 
ENDROOT
BRANCH   1  10
ATOM      7  C   UNL     1      -1.861  -1.056  -1.684  0.00  0.00    +0.105 A 
ATOM      8  C   UNL     1      -2.654  -0.128  -2.335  0.00  0.00    +0.029 A 
ATOM      9  C   UNL     1      -3.024  -0.333  -3.648  0.00  0.00    +0.010 A 
ATOM     10  C   UNL     1      -2.597  -1.478  -4.319  0.00  0.00    -0.018 A 
ATOM     11  C   UNL     1      -1.798  -2.409  -3.658  0.00  0.00    +0.010 A 
ATOM     12  C   UNL     1      -1.430  -2.191  -2.346  0.00  0.00    +0.029 A 
BRANCH   7  13
ATOM     13  S   UNL     1      -1.393  -0.787  -0.007  0.00  0.00    +0.060 S 
ATOM     14  O   UNL     1      -1.096  -2.064   0.542  0.00  0.00    -0.153 OA
ATOM     15  O   UNL     1      -2.373   0.075   0.556  0.00  0.00    -0.153 OA
BRANCH  13  17
ATOM     16  C   UNL     1       0.008   1.526  -0.027  0.00  0.00    +0.131 C 
ATOM     17  N   UNL     1       0.029   0.062  -0.025  0.00  0.00    -0.183 NA
ATOM     18  C   UNL     1       1.308  -0.652  -0.041  0.00  0.00    +0.131 C 
ENDBRANCH  13  17
ENDBRANCH   7  13
ENDBRANCH   1  10
BRANCH   5  19
ATOM     19  C   UNL     1      -2.495  -4.274  -8.434  0.00  0.00    -0.042 C 
ATOM     20  C   UNL     1      -3.374  -5.226  -8.639  0.00  0.00    -0.023 C 
ATOM     21  C   UNL     1      -3.060  -6.516  -9.339  0.00  0.00    +0.027 C 
ATOM     22  C   UNL     1      -1.755  -6.384 -10.128  0.00  0.00    +0.004 C 
ATOM     23  C   UNL     1      -0.685  -5.793  -9.201  0.00  0.00    +0.005 C 
ATOM     24  C   UNL     1      -1.066  -4.344  -8.886  0.00  0.00    +0.035 C 
ENDBRANCH   5  19
BRANCH   4  25
ATOM     25  N   UNL     1      -4.117  -2.316  -9.705  0.00  0.00    -0.278 N 
ATOM     26  C   UNL     1      -5.328  -1.906 -10.132  0.00  0.00    +0.284 C 
ATOM     27  O   UNL     1      -6.059  -1.287  -9.384  0.00  0.00    -0.267 OA
ATOM     28  H   UNL     1      -3.508  -2.752 -10.320  0.00  0.00    +0.155 HD
BRANCH  26  29
ATOM     29  C   UNL     1      -5.766  -2.210 -11.508  0.00  0.00    +0.195 A 
ATOM     30  N   UNL     1      -6.965  -1.846 -12.059  0.00  0.00    -0.340 N 
ATOM     31  H   UNL     1      -7.671  -1.348 -11.620  0.00  0.00    +0.167 HD
ATOM     32  C   UNL     1      -6.984  -2.308 -13.327  0.00  0.00    +0.123 A 
ATOM     33  C   UNL     1      -5.782  -2.956 -13.536  0.00  0.00    +0.158 A 
ATOM     34  N   UNL     1      -5.069  -2.868 -12.403  0.00  0.00    -0.213 NA
BRANCH  33  35
ATOM     35  C   UNL     1      -5.370  -3.601 -14.746  0.00  0.00    +0.121 C 
ATOM     36  N   UNL     1      -5.043  -4.112 -15.706  0.00  0.00    -0.189 NA
ENDBRANCH  33  35
ENDBRANCH  26  29
ENDBRANCH   4  25
TORSDOF 7
