REMARK  Name = CHEMBL237570
REMARK  9 active torsions:
REMARK  status: ('A' for Active; 'I' for Inactive)
REMARK    1  A    between atoms: C_1  and  C_2
REMARK    2  A    between atoms: C_4  and  S_32
REMARK    3  A    between atoms: C_7  and  C_8
REMARK    4  A    between atoms: C_10  and  C_26
REMARK    5  A    between atoms: C_11  and  C_14
REMARK    6  A    between atoms: N_12  and  C_13
REMARK    7  A    between atoms: C_19  and  O_24
REMARK    8  A    between atoms: O_24  and  C_25
REMARK    9  A    between atoms: S_32  and  C_34
REMARK                            x       y       z     vdW  Elec       q    Type
REMARK                         _______ _______ _______ _____ _____    ______ ____
ROOT
ATOM      1  C   UNL     1       0.171   0.152   2.407  0.00  0.00    +0.142 A 
ATOM      2  N   UNL     1       0.048   1.457   2.484  0.00  0.00    -0.227 NA
ATOM      3  C   UNL     1       0.175   1.846   3.763  0.00  0.00    +0.097 A 
ATOM      4  C   UNL     1       0.391   0.711   4.530  0.00  0.00    +0.077 A 
ATOM      5  N   UNL     1       0.379  -0.353   3.659  0.00  0.00    -0.326 N 
ATOM      6  C   UNL     1       0.560  -1.764   4.009  0.00  0.00    +0.151 C 
ENDROOT
BRANCH   4   7
ATOM      7  C   UNL     1       0.587   0.656   5.991  0.00  0.00    +0.001 A 
ATOM      8  C   UNL     1      -0.086  -0.320   6.750  0.00  0.00    +0.010 A 
ATOM      9  C   UNL     1       0.079  -0.391   8.094  0.00  0.00    +0.009 A 
ATOM     10  C   UNL     1       0.931   0.519   8.749  0.00  0.00    -0.014 A 
ATOM     11  C   UNL     1       1.116   0.463  10.139  0.00  0.00    +0.054 A 
ATOM     12  C   UNL     1       1.956   1.366  10.750  0.00  0.00    +0.121 A 
ATOM     13  C   UNL     1       2.627   2.338  10.001  0.00  0.00    +0.046 A 
ATOM     14  C   UNL     1       2.466   2.415   8.653  0.00  0.00    +0.012 A 
ATOM     15  C   UNL     1       1.615   1.507   7.996  0.00  0.00    -0.017 A 
ATOM     16  C   UNL     1       1.437   1.562   6.605  0.00  0.00    +0.018 A 
BRANCH  12  17
ATOM     17  O   UNL     1       2.136   1.312  12.096  0.00  0.00    -0.495 OA
ATOM     18  C   UNL     1       3.020   2.276  12.671  0.00  0.00    +0.277 C 
ENDBRANCH  12  17
ENDBRANCH   4   7
BRANCH   1  25
ATOM     19  C   UNL     1      -1.998   0.614   0.550  0.00  0.00    +0.044 C 
ATOM     20  C   UNL     1      -0.952  -0.431   0.261  0.00  0.00    -0.039 A 
ATOM     21  C   UNL     1      -1.018  -1.174  -0.899  0.00  0.00    +0.021 A 
ATOM     22  C   UNL     1      -0.058  -2.133  -1.166  0.00  0.00    +0.039 A 
ATOM     23  C   UNL     1       0.975  -2.354  -0.272  0.00  0.00    +0.018 A 
ATOM     24  C   UNL     1       1.053  -1.618   0.892  0.00  0.00    +0.013 A 
ATOM     25  C   UNL     1       0.090  -0.645   1.165  0.00  0.00    +0.020 A 
BRANCH  22  26
ATOM     26  S   UNL     1      -0.150  -3.079  -2.650  0.00  0.00    +0.051 S 
ATOM     27  O   UNL     1       0.555  -4.273  -2.341  0.00  0.00    -0.252 OA
ATOM     28  C   UNL     1       0.803  -2.107  -3.849  0.00  0.00    +0.127 C 
ENDBRANCH  22  26
ENDBRANCH   1  25
BRANCH   3  29
ATOM     29  C   UNL     1       0.099   3.237   4.264  0.00  0.00    +0.005 A 
ATOM     30  C   UNL     1      -0.459   3.521   5.516  0.00  0.00    +0.030 A 
ATOM     31  C   UNL     1      -0.510   4.830   5.944  0.00  0.00    +0.111 A 
ATOM     32  N   UNL     1      -0.041   5.808   5.191  0.00  0.00    -0.263 NA
ATOM     33  C   UNL     1       0.493   5.584   4.005  0.00  0.00    +0.111 A 
ATOM     34  C   UNL     1       0.589   4.303   3.502  0.00  0.00    +0.030 A 
ENDBRANCH   3  29
TORSDOF 5
