REMARK  Name = CHEMBL398237
REMARK  9 active torsions:
REMARK  status: ('A' for Active; 'I' for Inactive)
REMARK    1  A    between atoms: C_1  and  C_2
REMARK    2  A    between atoms: N_5  and  C_8
REMARK    3  A    between atoms: C_10  and  N_24
REMARK    4  A    between atoms: C_13  and  N_14
REMARK    5  A    between atoms: C_15  and  C_17
REMARK    6  A    between atoms: C_20  and  C_22
REMARK    7  A    between atoms: N_27  and  C_30
REMARK    8  A    between atoms: C_30  and  C_31
REMARK    9  A    between atoms: C_31  and  O_32
REMARK                            x       y       z     vdW  Elec       q    Type
REMARK                         _______ _______ _______ _____ _____    ______ ____
ROOT
ATOM      1  C   UNL     1      -1.159  -3.582   2.054  0.00  0.00    +0.053 A 
ATOM      2  C   UNL     1      -1.045  -4.952   1.870  0.00  0.00    +0.048 A 
ATOM      3  C   UNL     1      -1.559  -5.823   2.821  0.00  0.00    +0.031 A 
ATOM      4  C   UNL     1      -2.187  -5.323   3.955  0.00  0.00    +0.025 A 
ATOM      5  C   UNL     1      -2.301  -3.959   4.140  0.00  0.00    +0.027 A 
ATOM      6  C   UNL     1      -1.784  -3.084   3.197  0.00  0.00    +0.055 A 
ENDROOT
BRANCH   1  11
ATOM      7  C   UNL     1       0.027   1.308  -0.162  0.00  0.00    +0.007 C 
ATOM      8  C   UNL     1       0.000  -0.221  -0.100  0.00  0.00    -0.011 C 
ATOM      9  C   UNL     1      -1.451  -0.704  -0.046  0.00  0.00    +0.022 C 
ATOM     10  C   UNL     1      -1.474  -2.236  -0.019  0.00  0.00    +0.105 C 
ATOM     11  N   UNL     1      -0.641  -2.701   1.098  0.00  0.00    -0.328 N 
ATOM     12  C   UNL     1       0.745  -2.225   1.192  0.00  0.00    +0.105 C 
ATOM     13  C   UNL     1       0.744  -0.693   1.151  0.00  0.00    +0.022 C 
ENDBRANCH   1  11
BRANCH   3  14
ATOM     14  N   UNL     1      -1.446  -7.205   2.636  0.00  0.00    -0.333 N 
ATOM     15  C   UNL     1      -1.883  -8.146   3.679  0.00  0.00    +0.086 C 
ATOM     16  C   UNL     1      -2.800  -9.191   3.037  0.00  0.00    -0.060 C 
ATOM     17  N   UNL     1      -2.107  -9.820   1.905  0.00  0.00    +0.383 N 
ATOM     18  C   UNL     1      -1.851  -8.822   0.859  0.00  0.00    -0.060 C 
ATOM     19  C   UNL     1      -0.892  -7.758   1.391  0.00  0.00    +0.086 C 
ATOM     20  H   UNL     1      -1.230 -10.206   2.222  0.00  0.00    -0.082 HD
BRANCH  17  21
ATOM     21  C   UNL     1      -2.942 -10.897   1.359  0.00  0.00    -0.051 C 
BRANCH  21  22
ATOM     22  C   UNL     1      -2.171 -11.634   0.262  0.00  0.00    +0.137 C 
BRANCH  22  23
ATOM     23  O   UNL     1      -1.037 -12.289   0.834  0.00  0.00    -0.397 OA
ATOM     24  H   UNL     1      -0.501 -12.777   0.195  0.00  0.00    +0.209 HD
ENDBRANCH  22  23
ENDBRANCH  21  22
ENDBRANCH  17  21
ENDBRANCH   3  14
BRANCH   6  25
ATOM     25  N   UNL     1      -1.896  -1.699   3.389  0.00  0.00    -0.277 N 
ATOM     26  C   UNL     1      -2.892  -1.202   4.149  0.00  0.00    +0.284 C 
ATOM     27  O   UNL     1      -3.651  -1.957   4.726  0.00  0.00    -0.266 OA
ATOM     28  H   UNL     1      -1.256  -1.099   2.974  0.00  0.00    +0.155 HD
BRANCH  26  29
ATOM     29  C   UNL     1      -3.061   0.252   4.280  0.00  0.00    +0.191 A 
ATOM     30  C   UNL     1      -4.022   0.880   5.021  0.00  0.00    +0.056 A 
ATOM     31  C   UNL     1      -3.822   2.257   4.868  0.00  0.00    +0.061 A 
ATOM     32  C   UNL     1      -2.738   2.412   4.033  0.00  0.00    +0.205 A 
ATOM     33  O   UNL     1      -2.290   1.189   3.694  0.00  0.00    -0.440 OA
BRANCH  32  34
ATOM     34  C   UNL     1      -2.180   3.659   3.604  0.00  0.00    +0.138 C 
ATOM     35  N   UNL     1      -1.737   4.648   3.264  0.00  0.00    -0.188 NA
ENDBRANCH  32  34
ENDBRANCH  26  29
ENDBRANCH   6  25
TORSDOF 8
