REMARK  Name = CHEMBL249751
REMARK  4 active torsions:
REMARK  status: ('A' for Active; 'I' for Inactive)
REMARK    1  A    between atoms: C_9  and  N_11
REMARK    2  A    between atoms: N_11  and  C_12
REMARK    3  A    between atoms: C_16  and  C_25
REMARK    4  A    between atoms: C_21  and  C_22
REMARK                            x       y       z     vdW  Elec       q    Type
REMARK                         _______ _______ _______ _____ _____    ______ ____
ROOT
ATOM      1  C   UNL     1      -0.022  -2.776  -0.114  0.00  0.00    +0.054 A 
ATOM      2  C   UNL     1      -0.104  -4.156   0.193  0.00  0.00    +0.022 A 
ATOM      3  C   UNL     1       1.029  -4.872   0.609  0.00  0.00    +0.012 A 
ATOM      4  C   UNL     1       0.927  -6.197   0.899  0.00  0.00    +0.009 A 
ATOM      5  C   UNL     1      -0.303  -6.861   0.786  0.00  0.00    -0.016 A 
ATOM      6  C   UNL     1      -1.436  -6.179   0.378  0.00  0.00    +0.037 A 
ATOM      7  C   UNL     1      -1.352  -4.813   0.075  0.00  0.00    +0.073 A 
ATOM      8  N   UNL     1      -2.438  -4.133  -0.321  0.00  0.00    -0.254 NA
ATOM      9  C   UNL     1      -2.392  -2.858  -0.610  0.00  0.00    +0.126 A 
ATOM     10  C   UNL     1      -1.198  -2.125  -0.517  0.00  0.00    +0.076 A 
ENDROOT
BRANCH   5  11
ATOM     11  C   UNL     1      -0.390  -8.306   1.107  0.00  0.00    -0.015 A 
ATOM     12  C   UNL     1      -1.602  -8.994   0.998  0.00  0.00    +0.028 A 
ATOM     13  C   UNL     1      -1.639 -10.339   1.306  0.00  0.00    +0.111 A 
ATOM     14  N   UNL     1      -0.551 -10.973   1.699  0.00  0.00    -0.263 NA
ATOM     15  C   UNL     1       0.612 -10.362   1.815  0.00  0.00    +0.111 A 
ATOM     16  C   UNL     1       0.739  -9.019   1.521  0.00  0.00    +0.028 A 
ENDBRANCH   5  11
BRANCH  10  17
ATOM     17  C   UNL     1      -1.179  -0.690  -0.844  0.00  0.00    +0.245 C 
ATOM     18  O   UNL     1      -0.125  -0.083  -0.856  0.00  0.00    -0.270 OA
ATOM     19  N   UNL     1      -2.329  -0.048  -1.129  0.00  0.00    -0.325 N 
ATOM     20  H   UNL     1      -3.170  -0.532  -1.119  0.00  0.00    +0.145 HD
ATOM     21  H   UNL     1      -2.317   0.897  -1.344  0.00  0.00    +0.145 HD
ENDBRANCH  10  17
BRANCH   1  22
ATOM     22  N   UNL     1       1.171  -2.094  -0.014  0.00  0.00    -0.313 N 
ATOM     23  H   UNL     1       1.370  -1.579   0.783  0.00  0.00    +0.152 HD
BRANCH  22  32
ATOM     24  C   UNL     1       2.785  -3.023  -3.191  0.00  0.00    +0.004 A 
ATOM     25  C   UNL     1       3.928  -2.294  -3.217  0.00  0.00    +0.030 A 
ATOM     26  C   UNL     1       4.242  -1.424  -2.150  0.00  0.00    +0.094 A 
ATOM     27  C   UNL     1       3.304  -1.331  -1.021  0.00  0.00    +0.041 A 
ATOM     28  C   UNL     1       3.845  -0.425  -0.133  0.00  0.00    +0.115 A 
ATOM     29  N   UNL     1       5.005   0.010  -0.646  0.00  0.00    -0.284 N 
ATOM     30  N   UNL     1       5.242  -0.605  -1.880  0.00  0.00    -0.174 NA
ATOM     31  H   UNL     1       5.593   0.656  -0.223  0.00  0.00    +0.188 HD
ATOM     32  C   UNL     1       2.091  -2.145  -1.058  0.00  0.00    +0.042 A 
ATOM     33  C   UNL     1       1.877  -2.957  -2.136  0.00  0.00    +0.024 A 
ENDBRANCH  22  32
ENDBRANCH   1  22
TORSDOF 4
