REMARK  Name = CHEMBL255955
REMARK  5 active torsions:
REMARK  status: ('A' for Active; 'I' for Inactive)
REMARK    1  A    between atoms: C_3  and  C_28
REMARK    2  A    between atoms: C_5  and  N_7
REMARK    3  A    between atoms: N_10  and  C_11
REMARK    4  A    between atoms: C_14  and  C_17
REMARK    5  A    between atoms: C_23  and  N_27
REMARK                            x       y       z     vdW  Elec       q    Type
REMARK                         _______ _______ _______ _____ _____    ______ ____
ROOT
ATOM      1  C   UNL     1      -0.917  -5.115   0.035  0.00  0.00    +0.035 A 
ATOM      2  C   UNL     1      -2.119  -4.429  -0.091  0.00  0.00    +0.024 A 
ATOM      3  C   UNL     1      -3.312  -5.117  -0.073  0.00  0.00    +0.010 A 
ATOM      4  C   UNL     1      -3.313  -6.505   0.071  0.00  0.00    -0.017 A 
ATOM      5  C   UNL     1      -2.105  -7.192   0.197  0.00  0.00    +0.010 A 
ATOM      6  C   UNL     1      -0.914  -6.499   0.173  0.00  0.00    +0.024 A 
ENDROOT
BRANCH   4   7
ATOM      7  C   UNL     1      -4.594  -7.248   0.091  0.00  0.00    -0.002 A 
ATOM      8  C   UNL     1      -5.499  -7.146  -0.957  0.00  0.00    +0.029 A 
ATOM      9  C   UNL     1      -6.695  -7.849  -0.921  0.00  0.00    +0.114 A 
ATOM     10  N   UNL     1      -7.029  -8.629   0.077  0.00  0.00    -0.234 NA
ATOM     11  C   UNL     1      -6.224  -8.797   1.139  0.00  0.00    +0.184 A 
ATOM     12  C   UNL     1      -4.934  -8.091   1.178  0.00  0.00    +0.067 A 
ATOM     13  C   UNL     1      -4.321  -8.452   2.372  0.00  0.00    +0.121 A 
ATOM     14  N   UNL     1      -5.143  -9.302   3.010  0.00  0.00    -0.262 N 
ATOM     15  N   UNL     1      -6.304  -9.499   2.254  0.00  0.00    -0.152 NA
ATOM     16  H   UNL     1      -4.962  -9.712   3.870  0.00  0.00    +0.190 HD
BRANCH  13  17
ATOM     17  N   UNL     1      -3.086  -8.015   2.822  0.00  0.00    -0.343 N 
ATOM     18  H   UNL     1      -2.620  -7.308   2.349  0.00  0.00    +0.144 HD
ATOM     19  H   UNL     1      -2.687  -8.417   3.610  0.00  0.00    +0.144 HD
ENDBRANCH  13  17
ENDBRANCH   4   7
BRANCH   1  23
ATOM     20  N   UNL     1       1.497  -2.460   0.433  0.00  0.00    -0.269 N 
ATOM     21  C   UNL     1       0.360  -3.175   0.541  0.00  0.00    +0.308 C 
ATOM     22  O   UNL     1      -0.604  -2.703   1.112  0.00  0.00    -0.252 OA
ATOM     23  N   UNL     1       0.292  -4.415   0.016  0.00  0.00    -0.269 N 
ATOM     24  H   UNL     1       2.240  -2.805  -0.085  0.00  0.00    +0.156 HD
ATOM     25  H   UNL     1       1.081  -4.820  -0.374  0.00  0.00    +0.156 HD
BRANCH  20  30
ATOM     26  C   UNL     1       2.458   1.022   1.119  0.00  0.00    +0.002 A 
ATOM     27  C   UNL     1       1.819   1.237   2.327  0.00  0.00    +0.012 A 
ATOM     28  C   UNL     1       1.073   0.228   2.907  0.00  0.00    +0.057 A 
ATOM     29  C   UNL     1       0.964  -0.999   2.281  0.00  0.00    +0.035 A 
ATOM     30  C   UNL     1       1.605  -1.218   1.069  0.00  0.00    +0.035 A 
ATOM     31  C   UNL     1       2.353  -0.202   0.489  0.00  0.00    +0.023 A 
BRANCH  28  32
ATOM     32  C   UNL     1       0.379   0.466   4.223  0.00  0.00    +0.417 C 
ATOM     33  F   UNL     1       0.635   1.772   4.656  0.00  0.00    -0.166 F 
ATOM     34  F   UNL     1      -1.000   0.290   4.062  0.00  0.00    -0.166 F 
ATOM     35  F   UNL     1       0.857  -0.442   5.174  0.00  0.00    -0.166 F 
ENDBRANCH  28  32
ENDBRANCH  20  30
ENDBRANCH   1  23
TORSDOF 5
