REMARK  Name = CHEMBL522834
REMARK  8 active torsions:
REMARK  status: ('A' for Active; 'I' for Inactive)
REMARK    1  A    between atoms: C_1  and  O_2
REMARK    2  A    between atoms: O_2  and  N_3
REMARK    3  A    between atoms: C_4  and  C_6
REMARK    4  A    between atoms: N_8  and  C_32
REMARK    5  A    between atoms: N_17  and  C_18
REMARK    6  A    between atoms: C_21  and  C_24
REMARK    7  A    between atoms: C_24  and  C_25
REMARK    8  A    between atoms: C_25  and  N_26
REMARK                            x       y       z     vdW  Elec       q    Type
REMARK                         _______ _______ _______ _____ _____    ______ ____
ROOT
ATOM      1  C   UNL     1       1.351  -2.760  -2.417  0.00  0.00    +0.102 A 
ATOM      2  C   UNL     1       1.722  -4.041  -2.761  0.00  0.00    +0.110 A 
ATOM      3  N   UNL     1       2.252  -4.338  -3.961  0.00  0.00    -0.300 N 
ATOM      4  C   UNL     1       2.464  -3.390  -4.932  0.00  0.00    +0.154 A 
ATOM      5  C   UNL     1       2.124  -2.043  -4.696  0.00  0.00    +0.083 A 
ATOM      6  C   UNL     1       1.536  -1.677  -3.399  0.00  0.00    +0.205 A 
ATOM      7  O   UNL     1       1.220  -0.527  -3.146  0.00  0.00    -0.286 OA
ATOM      8  C   UNL     1       2.349  -1.100  -5.699  0.00  0.00    +0.129 A 
ATOM      9  N   UNL     1       2.876  -1.508  -6.840  0.00  0.00    -0.222 NA
ATOM     10  C   UNL     1       3.186  -2.785  -7.033  0.00  0.00    +0.221 A 
ATOM     11  N   UNL     1       2.990  -3.713  -6.108  0.00  0.00    -0.196 NA
ATOM     12  N   UNL     1       3.734  -3.160  -8.244  0.00  0.00    -0.284 N 
ATOM     13  H   UNL     1       3.893  -4.098  -8.435  0.00  0.00    +0.155 HD
ENDROOT
BRANCH   3  14
ATOM     14  C   UNL     1       2.602  -5.666  -4.231  0.00  0.00    +0.048 A 
ATOM     15  C   UNL     1       1.614  -6.629  -4.387  0.00  0.00    +0.026 A 
ATOM     16  C   UNL     1       1.964  -7.937  -4.654  0.00  0.00    +0.006 A 
ATOM     17  C   UNL     1       3.299  -8.294  -4.766  0.00  0.00    -0.044 A 
ATOM     18  C   UNL     1       4.285  -7.337  -4.610  0.00  0.00    -0.042 A 
ATOM     19  C   UNL     1       3.938  -6.024  -4.348  0.00  0.00    +0.030 A 
ATOM     20  C   UNL     1       5.647  -7.976  -4.778  0.00  0.00    +0.036 C 
ATOM     21  C   UNL     1       5.406  -9.491  -4.617  0.00  0.00    +0.009 C 
ATOM     22  C   UNL     1       3.932  -9.640  -5.048  0.00  0.00    +0.036 C 
ENDBRANCH   3  14
BRANCH  12  23
ATOM     23  C   UNL     1       4.060  -2.188  -9.195  0.00  0.00    +0.034 A 
ATOM     24  C   UNL     1       4.602  -0.975  -8.792  0.00  0.00    +0.023 A 
ATOM     25  C   UNL     1       4.923  -0.017  -9.733  0.00  0.00    +0.005 A 
ATOM     26  C   UNL     1       4.705  -0.265 -11.076  0.00  0.00    -0.049 A 
ATOM     27  C   UNL     1       4.166  -1.472 -11.481  0.00  0.00    +0.005 A 
ATOM     28  C   UNL     1       3.848  -2.437 -10.545  0.00  0.00    +0.023 A 
BRANCH  26  29
ATOM     29  C   UNL     1       5.055   0.783 -12.101  0.00  0.00    +0.016 C 
BRANCH  29  30
ATOM     30  C   UNL     1       6.501   0.584 -12.561  0.00  0.00    -0.074 C 
BRANCH  30  31
ATOM     31  N   UNL     1       6.842   1.606 -13.559  0.00  0.00    +0.383 N 
ATOM     32  C   UNL     1       6.022   1.408 -14.762  0.00  0.00    -0.050 C 
ATOM     33  C   UNL     1       6.379   2.474 -15.801  0.00  0.00    +0.141 C 
ATOM     34  O   UNL     1       7.776   2.393 -16.099  0.00  0.00    -0.383 OA
ATOM     35  C   UNL     1       8.617   2.555 -14.953  0.00  0.00    +0.141 C 
ATOM     36  C   UNL     1       8.264   1.490 -13.913  0.00  0.00    -0.050 C 
ATOM     37  H   UNL     1       6.664   2.522 -13.177  0.00  0.00    -0.082 HD
ENDBRANCH  30  31
ENDBRANCH  29  30
ENDBRANCH  26  29
ENDBRANCH  12  23
BRANCH   1  39
ATOM     38  N   UNL     1       0.320  -1.243  -0.804  0.00  0.00    -0.191 N 
ATOM     39  C   UNL     1       0.775  -2.478  -1.093  0.00  0.00    +0.272 C 
ATOM     40  O   UNL     1       0.709  -3.361  -0.258  0.00  0.00    -0.268 OA
ATOM     41  H   UNL     1       0.434  -0.522  -1.444  0.00  0.00    +0.183 HD
BRANCH  38  43
ATOM     42  C   UNL     1      -0.756   0.355   0.604  0.00  0.00    +0.226 C 
ATOM     43  O   UNL     1      -0.325  -0.997   0.432  0.00  0.00    -0.283 OA
ENDBRANCH  38  43
ENDBRANCH   1  39
TORSDOF 7
