REMARK  Name = CHEMBL456008
REMARK  6 active torsions:
REMARK  status: ('A' for Active; 'I' for Inactive)
REMARK    1  A    between atoms: C_1  and  C_2
REMARK    2  A    between atoms: C_4  and  C_8
REMARK    3  A    between atoms: N_10  and  C_11
REMARK    4  A    between atoms: C_15  and  C_17
REMARK    5  A    between atoms: C_17  and  C_19
REMARK    6  A    between atoms: C_17  and  N_20
REMARK                            x       y       z     vdW  Elec       q    Type
REMARK                         _______ _______ _______ _____ _____    ______ ____
ROOT
ATOM      1  C   UNL     1       0.140  -4.864  -3.660  0.00  0.00    +0.034 A 
ATOM      2  C   UNL     1       0.226  -4.146  -4.846  0.00  0.00    +0.023 A 
ATOM      3  C   UNL     1       0.318  -4.814  -6.051  0.00  0.00    +0.002 A 
ATOM      4  C   UNL     1       0.325  -6.197  -6.078  0.00  0.00    +0.005 A 
ATOM      5  C   UNL     1       0.240  -6.915  -4.899  0.00  0.00    -0.026 A 
ATOM      6  C   UNL     1       0.153  -6.253  -3.690  0.00  0.00    +0.028 A 
ENDROOT
BRANCH   1   9
ATOM      7  C   UNL     1       0.645  -4.698  -1.342  0.00  0.00    +0.248 C 
ATOM      8  O   UNL     1       1.193  -5.781  -1.395  0.00  0.00    -0.270 OA
ATOM      9  N   UNL     1       0.047  -4.191  -2.438  0.00  0.00    -0.281 N 
ATOM     10  H   UNL     1      -0.448  -3.358  -2.379  0.00  0.00    +0.155 HD
BRANCH   7  14
ATOM     11  C   UNL     1       1.872  -4.233   3.485  0.00  0.00    +0.065 C 
ATOM     12  C   UNL     1       1.214  -3.697   2.240  0.00  0.00    +0.039 A 
ATOM     13  C   UNL     1       1.248  -4.443   1.077  0.00  0.00    +0.036 A 
ATOM     14  C   UNL     1       0.634  -3.935  -0.072  0.00  0.00    +0.040 A 
ATOM     15  C   UNL     1       0.009  -2.686   0.011  0.00  0.00    +0.033 A 
ATOM     16  C   UNL     1       0.023  -2.009   1.214  0.00  0.00    +0.112 A 
ATOM     17  N   UNL     1       0.609  -2.527   2.276  0.00  0.00    -0.260 NA
ENDBRANCH   7  14
ENDBRANCH   1   9
BRANCH   5  18
ATOM     18  C   UNL     1       0.247  -8.421  -4.933  0.00  0.00    +0.099 C 
ATOM     19  C   UNL     1       1.685  -8.921  -5.090  0.00  0.00    +0.033 C 
BRANCH  18  20
ATOM     20  N   UNL     1      -0.558  -8.888  -6.065  0.00  0.00    -0.321 N 
ATOM     21  C   UNL     1      -1.135 -10.152  -6.033  0.00  0.00    +0.139 A 
ATOM     22  C   UNL     1      -0.954 -10.974  -4.923  0.00  0.00    +0.154 A 
ATOM     23  N   UNL     1      -1.504 -12.174  -4.896  0.00  0.00    -0.257 NA
ATOM     24  C   UNL     1      -2.226 -12.595  -5.920  0.00  0.00    +0.151 A 
ATOM     25  C   UNL     1      -2.408 -11.782  -7.024  0.00  0.00    +0.149 A 
ATOM     26  N   UNL     1      -1.864 -10.576  -7.057  0.00  0.00    -0.218 NA
ATOM     27 CL   UNL     1      -3.357 -12.342  -8.366  0.00  0.00    -0.060 Cl
ATOM     28  H   UNL     1      -0.688  -8.315  -6.837  0.00  0.00    +0.148 HD
ENDBRANCH  18  20
ENDBRANCH   5  18
TORSDOF 4
