REMARK  Name = CHEMBL265432
REMARK  6 active torsions:
REMARK  status: ('A' for Active; 'I' for Inactive)
REMARK    1  A    between atoms: C_1  and  N_2
REMARK    2  A    between atoms: N_5  and  C_8
REMARK    3  A    between atoms: C_11  and  N_20
REMARK    4  A    between atoms: C_12  and  C_14
REMARK    5  A    between atoms: C_21  and  C_23
REMARK    6  A    between atoms: C_26  and  C_28
REMARK                            x       y       z     vdW  Elec       q    Type
REMARK                         _______ _______ _______ _____ _____    ______ ____
ROOT
ATOM      1  C   UNL     1      -0.933  -3.742   1.517  0.00  0.00    +0.030 A 
ATOM      2  C   UNL     1      -2.220  -4.234   1.333  0.00  0.00    +0.025 A 
ATOM      3  C   UNL     1      -2.686  -5.274   2.112  0.00  0.00    +0.026 A 
ATOM      4  C   UNL     1      -1.871  -5.836   3.084  0.00  0.00    +0.041 A 
ATOM      5  C   UNL     1      -0.573  -5.345   3.275  0.00  0.00    +0.001 A 
ATOM      6  C   UNL     1      -0.107  -4.297   2.481  0.00  0.00    +0.033 A 
ENDROOT
BRANCH   1  11
ATOM      7  C   UNL     1      -0.065   1.395  -0.164  0.00  0.00    +0.105 C 
ATOM      8  N   UNL     1      -0.026  -0.073  -0.134  0.00  0.00    -0.302 NA
ATOM      9  C   UNL     1      -1.378  -0.638  -0.235  0.00  0.00    +0.103 C 
ATOM     10  C   UNL     1      -1.283  -2.160  -0.383  0.00  0.00    +0.120 C 
ATOM     11  N   UNL     1      -0.469  -2.687   0.723  0.00  0.00    -0.327 N 
ATOM     12  C   UNL     1       0.845  -2.076   0.973  0.00  0.00    +0.120 C 
ATOM     13  C   UNL     1       0.666  -0.557   1.068  0.00  0.00    +0.103 C 
ENDBRANCH   1  11
BRANCH   5  14
ATOM     14  C   UNL     1       0.301  -5.937   4.308  0.00  0.00    -0.042 C 
ATOM     15  C   UNL     1       0.057  -5.646   5.564  0.00  0.00    -0.023 C 
ATOM     16  C   UNL     1       0.866  -6.168   6.715  0.00  0.00    +0.027 C 
ATOM     17  C   UNL     1       1.697  -7.374   6.271  0.00  0.00    +0.004 C 
ATOM     18  C   UNL     1       2.441  -7.004   4.982  0.00  0.00    +0.005 C 
ATOM     19  C   UNL     1       1.411  -6.842   3.860  0.00  0.00    +0.035 C 
ENDBRANCH   5  14
BRANCH   4  20
ATOM     20  N   UNL     1      -2.344  -6.888   3.873  0.00  0.00    -0.278 N 
ATOM     21  C   UNL     1      -3.668  -7.031   4.083  0.00  0.00    +0.284 C 
ATOM     22  O   UNL     1      -4.455  -6.287   3.529  0.00  0.00    -0.266 OA
ATOM     23  H   UNL     1      -1.720  -7.516   4.269  0.00  0.00    +0.155 HD
BRANCH  21  24
ATOM     24  C   UNL     1      -4.160  -8.086   4.980  0.00  0.00    +0.191 A 
ATOM     25  C   UNL     1      -5.472  -8.338   5.271  0.00  0.00    +0.056 A 
ATOM     26  C   UNL     1      -5.494  -9.418   6.159  0.00  0.00    +0.061 A 
ATOM     27  C   UNL     1      -4.183  -9.784   6.375  0.00  0.00    +0.205 A 
ATOM     28  O   UNL     1      -3.395  -8.970   5.648  0.00  0.00    -0.440 OA
BRANCH  27  29
ATOM     29  C   UNL     1      -3.736 -10.849   7.220  0.00  0.00    +0.138 C 
ATOM     30  N   UNL     1      -3.382 -11.695   7.891  0.00  0.00    -0.188 NA
ENDBRANCH  27  29
ENDBRANCH  21  24
ENDBRANCH   4  20
TORSDOF 5
