REMARK  Name = CHEMBL250161
REMARK  5 active torsions:
REMARK  status: ('A' for Active; 'I' for Inactive)
REMARK    1  A    between atoms: C_4  and  N_7
REMARK    2  A    between atoms: N_7  and  C_8
REMARK    3  A    between atoms: C_12  and  C_21
REMARK    4  A    between atoms: C_17  and  C_18
REMARK    5  A    between atoms: C_24  and  C_27
REMARK                            x       y       z     vdW  Elec       q    Type
REMARK                         _______ _______ _______ _____ _____    ______ ____
ROOT
ATOM      1  C   UNL     1       3.674  -1.992  -0.214  0.00  0.00    +0.054 A 
ATOM      2  C   UNL     1       4.836  -2.740   0.094  0.00  0.00    +0.022 A 
ATOM      3  C   UNL     1       6.056  -2.102   0.363  0.00  0.00    +0.012 A 
ATOM      4  C   UNL     1       7.160  -2.840   0.656  0.00  0.00    +0.009 A 
ATOM      5  C   UNL     1       7.093  -4.241   0.693  0.00  0.00    -0.016 A 
ATOM      6  C   UNL     1       5.903  -4.897   0.431  0.00  0.00    +0.037 A 
ATOM      7  C   UNL     1       4.754  -4.153   0.127  0.00  0.00    +0.073 A 
ATOM      8  N   UNL     1       3.589  -4.768  -0.128  0.00  0.00    -0.254 NA
ATOM      9  C   UNL     1       2.501  -4.102  -0.414  0.00  0.00    +0.126 A 
ATOM     10  C   UNL     1       2.488  -2.699  -0.466  0.00  0.00    +0.076 A 
ENDROOT
BRANCH   5  11
ATOM     11  C   UNL     1       8.309  -5.026   1.015  0.00  0.00    -0.018 A 
ATOM     12  C   UNL     1       8.251  -6.420   1.048  0.00  0.00    +0.009 A 
ATOM     13  C   UNL     1       9.379  -7.149   1.347  0.00  0.00    +0.013 A 
ATOM     14  C   UNL     1      10.583  -6.494   1.618  0.00  0.00    +0.037 A 
ATOM     15  C   UNL     1      10.640  -5.099   1.584  0.00  0.00    +0.013 A 
ATOM     16  C   UNL     1       9.512  -4.371   1.280  0.00  0.00    +0.009 A 
BRANCH  14  17
ATOM     17  C   UNL     1      11.794  -7.276   1.939  0.00  0.00    +0.247 C 
ATOM     18  O   UNL     1      11.967  -8.366   1.429  0.00  0.00    -0.270 OA
ATOM     19  N   UNL     1      12.707  -6.781   2.798  0.00  0.00    -0.298 N 
ATOM     20  C   UNL     1      12.454  -5.527   3.520  0.00  0.00    +0.108 C 
ATOM     21  C   UNL     1      12.641  -5.775   5.020  0.00  0.00    +0.019 C 
ATOM     22  C   UNL     1      14.028  -6.372   5.266  0.00  0.00    +0.003 C 
ATOM     23  C   UNL     1      14.146  -7.712   4.536  0.00  0.00    +0.019 C 
ATOM     24  C   UNL     1      13.973  -7.489   3.035  0.00  0.00    +0.108 C 
ENDBRANCH  14  17
ENDBRANCH   5  11
BRANCH  10  25
ATOM     25  C   UNL     1       1.246  -1.977  -0.785  0.00  0.00    +0.245 C 
ATOM     26  O   UNL     1       1.264  -0.770  -0.931  0.00  0.00    -0.270 OA
ATOM     27  N   UNL     1       0.088  -2.654  -0.915  0.00  0.00    -0.325 N 
ATOM     28  H   UNL     1       0.073  -3.617  -0.799  0.00  0.00    +0.145 HD
ATOM     29  H   UNL     1      -0.731  -2.179  -1.126  0.00  0.00    +0.145 HD
ENDBRANCH  10  25
BRANCH   1  30
ATOM     30  N   UNL     1       3.705  -0.615  -0.258  0.00  0.00    -0.313 N 
ATOM     31  H   UNL     1       3.517  -0.100   0.542  0.00  0.00    +0.152 HD
BRANCH  30  35
ATOM     32  C   UNL     1       4.607   1.334  -3.826  0.00  0.00    +0.000 A 
ATOM     33  C   UNL     1       4.427   2.066  -2.666  0.00  0.00    +0.002 A 
ATOM     34  C   UNL     1       4.128   1.423  -1.481  0.00  0.00    +0.023 A 
ATOM     35  C   UNL     1       4.007   0.039  -1.455  0.00  0.00    +0.031 A 
ATOM     36  C   UNL     1       4.188  -0.693  -2.622  0.00  0.00    +0.023 A 
ATOM     37  C   UNL     1       4.488  -0.044  -3.803  0.00  0.00    +0.002 A 
ENDBRANCH  30  35
ENDBRANCH   1  30
TORSDOF 5
