REMARK  9 active torsions:
REMARK  status: ('A' for Active; 'I' for Inactive)
REMARK    1  A    between atoms: C3_1  and  C2_5 
REMARK    2  A    between atoms: N2_2  and  C13_21 
REMARK    3  A    between atoms: O2_6  and  C9_30 
REMARK    4  A    between atoms: O2_6  and  C10_32 
REMARK    5  A    between atoms: N6_10  and  C17_13 
REMARK    6  A    between atoms: C16_19  and  C15_20 
REMARK    7  A    between atoms: C4_23  and  C5_24 
REMARK    8  A    between atoms: C5_24  and  O1_27 
REMARK    9  A    between atoms: C10_32  and  C11_33 
ROOT
HETATM    1  N2  G93 A   1      22.356 -18.599   9.703  1.00 16.75    -0.327 N 
HETATM    2  N3  G93 A   1      22.853 -16.829   8.364  1.00 16.31    -0.336 N 
ATOM      3  H3  G93 A   1      23.025 -15.869   8.066  1.00  0.00     0.168 HD
HETATM    4  C2  G93 A   1      23.230 -18.192   6.272  1.00 16.87     0.116 A 
HETATM    5  N1  G93 A   1      23.212 -19.460   5.809  1.00 16.86    -0.354 N 
ATOM      6  H1  G93 A   1      23.427 -19.627   4.826  1.00  0.00     0.166 HD
HETATM    7  C1  G93 A   1      22.919 -17.947   7.613  1.00 16.60     0.100 A 
HETATM    8  C15 G93 A   1      22.509 -17.261   9.599  1.00 17.11     0.141 A 
HETATM    9  C12 G93 A   1      22.615 -19.029   8.449  1.00 16.28     0.101 A 
HETATM   10  C9  G93 A   1      22.609 -20.337   7.946  1.00 17.12     0.113 A 
HETATM   11  C8  G93 A   1      22.922 -20.507   6.593  1.00 16.86     0.128 A 
ENDROOT
BRANCH   8  12
HETATM   12  C16 G93 A   1      22.356 -16.272  10.726  1.00 16.83     0.146 A 
HETATM   13  C17 G93 A   1      22.313 -14.895  10.538  1.00 16.54     0.154 A 
HETATM   14  N5  G93 A   1      22.187 -14.209  11.686  1.00 17.17    -0.224 N 
HETATM   15  O3  G93 A   1      22.190 -15.283  12.642  1.00 17.58    -0.155 OA
ATOM     16  H5  G93 A   1      22.110 -13.203  11.838  1.00  0.00     0.198 HD
HETATM   17  N4  G93 A   1      22.311 -16.593  12.041  1.00 16.46    -0.234 N 
ATOM     18  H4  G93 A   1      22.351 -17.510  12.487  1.00  0.00     0.197 HD
BRANCH  13  19
HETATM   19  N6  G93 A   1      22.362 -14.292   9.314  1.00 16.38    -0.382 N 
ATOM     20  H62 G93 A   1      22.330 -13.282   9.176  1.00  0.00     0.157 HD
ATOM     21  H61 G93 A   1      22.458 -14.813   8.442  1.00  0.00     0.157 HD
ENDBRANCH  13  19
ENDBRANCH   8  12
BRANCH   1  22
HETATM   22  C13 G93 A   1      21.973 -19.395  10.885  1.00 16.91     0.126 C 
HETATM   23  C14 G93 A   1      23.160 -19.998  11.598  1.00 16.28     0.027 C 
ENDBRANCH   1  22
BRANCH  10  24
HETATM   24  O2  G93 A   1      22.308 -21.434   8.724  1.00 17.63    -0.347 OA
BRANCH  24  25
HETATM   25  C10 G93 A   1      22.036 -22.721   8.149  1.00 19.48     0.182 C 
BRANCH  25  26
HETATM   26  C11 G93 A   1      21.489 -23.699   9.184  1.00 19.91     0.027 C 
HETATM   27  C18 G93 A   1      20.195 -23.178   9.795  1.00 19.93     0.120 C 
HETATM   28  N7  G93 A   1      19.747 -24.015  10.902  1.00 20.84    -0.421 N 
HETATM   29  C19 G93 A   1      20.667 -24.607  11.858  1.00 21.13     0.113 C 
ATOM     30  H7  G93 A   1      18.748 -24.192  11.009  1.00  0.00     0.153 HD
HETATM   31  C20 G93 A   1      22.000 -25.013  11.232  1.00 21.25     0.020 C 
HETATM   32  C21 G93 A   1      22.507 -23.927  10.293  1.00 20.69     0.010 C 
ENDBRANCH  25  26
ENDBRANCH  24  25
ENDBRANCH  10  24
BRANCH   4  33
HETATM   33  C3  G93 A   1      23.495 -17.251   5.431  1.00 17.30    -0.043 C 
HETATM   34  C4  G93 A   1      23.758 -16.535   4.508  1.00 18.50    -0.062 C 
BRANCH  34  35
HETATM   35  C5  G93 A   1      23.836 -15.626   3.343  1.00 18.95     0.114 C 
HETATM   36  C7  G93 A   1      23.025 -14.366   3.627  1.00 19.12     0.060 C 
HETATM   37  C6  G93 A   1      25.295 -15.276   3.082  1.00 18.78     0.060 C 
BRANCH  35  38
HETATM   38  O1  G93 A   1      23.324 -16.280   2.178  1.00 19.41    -0.378 OA
ATOM     39  H1  G93 A   1      23.374 -15.696   1.430  1.00  0.00     0.211 HD
ENDBRANCH  35  38
ENDBRANCH  34  35
ENDBRANCH   4  33
TORSDOF 9
