REMARK  Name = CHEMBL321315
REMARK  1 active torsions:
REMARK  status: ('A' for Active; 'I' for Inactive)
REMARK    1  A    between atoms: C_1  and  N_2
REMARK                            x       y       z     vdW  Elec       q    Type
REMARK                         _______ _______ _______ _____ _____    ______ ____
ROOT
ATOM      1  C   UNL     1      -0.018   1.461   0.010  0.00  0.00    -0.096 C 
ATOM      2  N   UNL     1       0.002  -0.004   0.002  0.00  0.00    +0.379 N 
ATOM      3  C   UNL     1      -1.372  -0.510  -0.059  0.00  0.00    -0.077 C 
ATOM      4  C   UNL     1      -2.095  -0.368   1.292  0.00  0.00    +0.003 C 
ATOM      5  C   UNL     1      -3.574  -0.144   1.053  0.00  0.00    +0.120 C 
ATOM      6  N   UNL     1      -4.394  -0.099   2.254  0.00  0.00    -0.346 N 
ATOM      7  C   UNL     1      -4.160  -0.617   3.489  0.00  0.00    +0.095 A 
ATOM      8  C   UNL     1      -5.216  -0.415   4.309  0.00  0.00    +0.013 A 
ATOM      9  C   UNL     1      -6.193   0.399   3.525  0.00  0.00    +0.008 A 
ATOM     10  C   UNL     1      -5.634   0.537   2.250  0.00  0.00    +0.050 A 
ATOM     11  C   UNL     1      -6.343   1.214   1.267  0.00  0.00    +0.026 A 
ATOM     12  C   UNL     1      -7.569   1.769   1.555  0.00  0.00    +0.002 A 
ATOM     13  C   UNL     1      -8.107   1.665   2.834  0.00  0.00    +0.001 A 
ATOM     14  C   UNL     1      -7.415   0.992   3.818  0.00  0.00    +0.010 A 
ATOM     15  C   UNL     1      -5.546  -0.813   5.687  0.00  0.00    +0.059 C 
ATOM     16  C   UNL     1      -4.855  -0.959   6.884  0.00  0.00    +0.059 C 
ATOM     17  C   UNL     1      -3.477  -0.693   7.341  0.00  0.00    +0.013 A 
ATOM     18  C   UNL     1      -2.313  -0.527   6.664  0.00  0.00    +0.095 A 
ATOM     19  N   UNL     1      -1.282  -0.354   7.533  0.00  0.00    -0.344 N 
ATOM     20  C   UNL     1      -1.744  -0.403   8.836  0.00  0.00    +0.050 A 
ATOM     21  C   UNL     1      -3.140  -0.563   8.785  0.00  0.00    +0.008 A 
ATOM     22  C   UNL     1      -3.877  -0.526   9.961  0.00  0.00    +0.010 A 
ATOM     23  C   UNL     1      -3.249  -0.469  11.184  0.00  0.00    +0.001 A 
ATOM     24  C   UNL     1      -1.862  -0.393  11.237  0.00  0.00    +0.002 A 
ATOM     25  C   UNL     1      -1.121  -0.350  10.077  0.00  0.00    +0.026 A 
ATOM     26  C   UNL     1       0.128  -0.136   7.212  0.00  0.00    +0.150 C 
ATOM     27  C   UNL     1       0.611  -1.072   6.114  0.00  0.00    +0.181 C 
ATOM     28  O   UNL     1       2.040  -1.027   6.032  0.00  0.00    -0.376 OA
ATOM     29  C   UNL     1       2.573  -1.303   4.734  0.00  0.00    +0.188 C 
ATOM     30  C   UNL     1       2.592  -0.029   3.877  0.00  0.00    +0.187 C 
ATOM     31  O   UNL     1       2.703  -0.393   2.503  0.00  0.00    -0.379 OA
ATOM     32  C   UNL     1       1.881   0.338   1.589  0.00  0.00    +0.141 C 
ATOM     33  C   UNL     1       0.701  -0.545   1.170  0.00  0.00    -0.051 C 
ATOM     34  C   UNL     1      -5.838  -1.579   7.825  0.00  0.00    +0.252 C 
ATOM     35  O   UNL     1      -5.598  -2.067   8.910  0.00  0.00    -0.270 OA
ATOM     36  N   UNL     1      -7.055  -1.551   7.282  0.00  0.00    -0.248 N 
ATOM     37  C   UNL     1      -6.962  -1.157   6.013  0.00  0.00    +0.252 C 
ATOM     38  O   UNL     1      -7.901  -1.116   5.241  0.00  0.00    -0.270 OA
ATOM     39  H   UNL     1      -7.878  -1.786   7.740  0.00  0.00    +0.158 HD
ATOM     40  H   UNL     1       0.487  -0.310  -0.841  0.00  0.00    -0.082 HD
ENDROOT
TORSDOF 0
