REMARK  Name = CHEMBL366668
REMARK  9 active torsions:
REMARK  status: ('A' for Active; 'I' for Inactive)
REMARK    1  A    between atoms: C_1  and  N_2
REMARK    2  A    between atoms: N_2  and  C_3
REMARK    3  A    between atoms: N_2  and  C_4
REMARK    4  A    between atoms: C_4  and  C_5
REMARK    5  A    between atoms: C_5  and  C_6
REMARK    6  A    between atoms: C_6  and  N_7
REMARK    7  A    between atoms: C_14  and  C_16
REMARK    8  A    between atoms: C_17  and  C_23
REMARK    9  A    between atoms: N_25  and  C_32
REMARK                            x       y       z     vdW  Elec       q    Type
REMARK                         _______ _______ _______ _____ _____    ______ ____
ROOT
ATOM      1  C   UNL     1      -2.678  -7.394   1.174  0.00  0.00    +0.077 C 
ATOM      2  C   UNL     1      -2.538  -7.483   2.554  0.00  0.00    +0.060 C 
ATOM      3  C   UNL     1      -2.549  -8.930   2.874  0.00  0.00    +0.252 C 
ATOM      4  O   UNL     1      -2.450  -9.412   3.984  0.00  0.00    -0.270 OA
ATOM      5  N   UNL     1      -2.688  -9.619   1.729  0.00  0.00    -0.248 N 
ATOM      6  C   UNL     1      -2.777  -8.782   0.682  0.00  0.00    +0.253 C 
ATOM      7  O   UNL     1      -2.913  -9.113  -0.480  0.00  0.00    -0.270 OA
ATOM      8  H   UNL     1      -2.724 -10.586   1.667  0.00  0.00    +0.158 HD
ENDROOT
BRANCH   1  16
ATOM      9  N   UNL     1      -2.515  -4.051  -0.293  0.00  0.00    -0.263 N 
ATOM     10  C   UNL     1      -3.083  -4.691  -1.366  0.00  0.00    +0.070 A 
ATOM     11  C   UNL     1      -3.490  -4.270  -2.630  0.00  0.00    +0.028 A 
ATOM     12  C   UNL     1      -4.040  -5.177  -3.508  0.00  0.00    +0.002 A 
ATOM     13  C   UNL     1      -4.193  -6.509  -3.144  0.00  0.00    +0.001 A 
ATOM     14  C   UNL     1      -3.801  -6.942  -1.910  0.00  0.00    +0.012 A 
ATOM     15  C   UNL     1      -3.240  -6.041  -1.004  0.00  0.00    +0.028 A 
ATOM     16  C   UNL     1      -2.724  -6.163   0.366  0.00  0.00    +0.106 A 
ATOM     17  N   UNL     1      -2.306  -4.972   0.738  0.00  0.00    -0.170 NA
BRANCH   9  18
ATOM     18  C   UNL     1      -2.176  -2.627  -0.239  0.00  0.00    +0.142 C 
BRANCH  18  19
ATOM     19  C   UNL     1      -0.747  -2.424  -0.747  0.00  0.00    +0.005 C 
BRANCH  19  20
ATOM     20  C   UNL     1      -0.392  -0.937  -0.690  0.00  0.00    -0.078 C 
BRANCH  20  22
ATOM     21  C   UNL     1       1.279   0.696  -1.237  0.00  0.00    -0.097 C 
ATOM     22  N   UNL     1       0.980  -0.741  -1.178  0.00  0.00    +0.376 N 
ATOM     23  C   UNL     1       1.923  -1.401  -0.265  0.00  0.00    -0.097 C 
ATOM     24  H   UNL     1       1.069  -1.141  -2.100  0.00  0.00    -0.083 HD
ENDBRANCH  20  22
ENDBRANCH  19  20
ENDBRANCH  18  19
ENDBRANCH   9  18
ENDBRANCH   1  16
BRANCH   2  25
ATOM     25  C   UNL     1      -2.406  -6.369   3.503  0.00  0.00    +0.013 A 
ATOM     26  C   UNL     1      -3.402  -5.536   3.930  0.00  0.00    +0.101 A 
ATOM     27  N   UNL     1      -2.895  -4.629   4.807  0.00  0.00    -0.315 N 
ATOM     28  C   UNL     1      -1.541  -4.839   4.986  0.00  0.00    +0.054 A 
ATOM     29  C   UNL     1      -1.175  -5.935   4.187  0.00  0.00    +0.008 A 
ATOM     30  C   UNL     1       0.145  -6.378   4.174  0.00  0.00    +0.010 A 
ATOM     31  C   UNL     1       1.088  -5.738   4.950  0.00  0.00    +0.001 A 
ATOM     32  C   UNL     1       0.727  -4.658   5.741  0.00  0.00    +0.002 A 
ATOM     33  C   UNL     1      -0.575  -4.204   5.758  0.00  0.00    +0.027 A 
BRANCH  27  34
ATOM     34  C   UNL     1      -3.639  -3.625   5.438  0.00  0.00    +0.047 A 
ATOM     35  C   UNL     1      -3.549  -3.453   6.814  0.00  0.00    +0.026 A 
ATOM     36  C   UNL     1      -4.284  -2.462   7.433  0.00  0.00    +0.002 A 
ATOM     37  C   UNL     1      -5.110  -1.641   6.686  0.00  0.00    +0.000 A 
ATOM     38  C   UNL     1      -5.202  -1.810   5.317  0.00  0.00    +0.002 A 
ATOM     39  C   UNL     1      -4.465  -2.796   4.690  0.00  0.00    +0.026 A 
ENDBRANCH  27  34
ENDBRANCH   2  25
TORSDOF 7
