REMARK  Name = CHEMBL374581
REMARK  0 active torsions:
REMARK  status: ('A' for Active; 'I' for Inactive)
REMARK                            x       y       z     vdW  Elec       q    Type
REMARK                         _______ _______ _______ _____ _____    ______ ____
ROOT
ATOM      1  C   UNL     1      -0.017   1.379   0.010  0.00  0.00    +0.000 A 
ATOM      2  C   UNL     1       1.168   2.094   0.002  0.00  0.00    +0.001 A 
ATOM      3  C   UNL     1       2.377   1.429  -0.023  0.00  0.00    +0.009 A 
ATOM      4  C   UNL     1       2.400   0.039  -0.048  0.00  0.00    -0.014 A 
ATOM      5  C   UNL     1       1.206  -0.679  -0.017  0.00  0.00    -0.039 A 
ATOM      6  C   UNL     1       0.002  -0.004   0.002  0.00  0.00    +0.004 A 
ATOM      7  C   UNL     1       1.234  -2.184   0.023  0.00  0.00    +0.040 C 
ATOM      8  C   UNL     1       2.384  -2.721  -0.823  0.00  0.00    +0.042 C 
ATOM      9  C   UNL     1       3.679  -2.048  -0.450  0.00  0.00    -0.015 A 
ATOM     10  C   UNL     1       3.684  -0.703  -0.086  0.00  0.00    -0.007 A 
ATOM     11  C   UNL     1       4.875  -0.069   0.242  0.00  0.00    -0.010 A 
ATOM     12  C   UNL     1       6.077  -0.771   0.221  0.00  0.00    +0.052 A 
ATOM     13  C   UNL     1       6.075  -2.133  -0.138  0.00  0.00    +0.020 A 
ATOM     14  C   UNL     1       4.867  -2.768  -0.474  0.00  0.00    +0.052 A 
ATOM     15  N   UNL     1       5.136  -4.095  -0.784  0.00  0.00    -0.354 N 
ATOM     16  H   UNL     1       4.472  -4.751  -1.047  0.00  0.00    +0.166 HD
ATOM     17  C   UNL     1       6.479  -4.342  -0.666  0.00  0.00    +0.048 A 
ATOM     18  C   UNL     1       7.119  -3.146  -0.264  0.00  0.00    +0.008 A 
ATOM     19  C   UNL     1       8.499  -3.091  -0.062  0.00  0.00    +0.010 A 
ATOM     20  C   UNL     1       9.209  -4.261  -0.275  0.00  0.00    +0.001 A 
ATOM     21  C   UNL     1       8.584  -5.431  -0.669  0.00  0.00    +0.002 A 
ATOM     22  C   UNL     1       7.216  -5.506  -0.873  0.00  0.00    +0.026 A 
ATOM     23  C   UNL     1       7.159   0.148   0.613  0.00  0.00    +0.245 C 
ATOM     24  O   UNL     1       8.334  -0.155   0.692  0.00  0.00    -0.270 OA
ATOM     25  N   UNL     1       6.663   1.371   0.871  0.00  0.00    -0.307 N 
ATOM     26  C   UNL     1       5.211   1.341   0.663  0.00  0.00    +0.141 C 
ATOM     27  H   UNL     1       7.179   2.144   1.147  0.00  0.00    +0.149 HD
ENDROOT
TORSDOF 0
