REMARK  Name = CHEMBL148745
REMARK  14 active torsions:
REMARK  status: ('A' for Active; 'I' for Inactive)
REMARK    1  A    between atoms: C_1  and  C_2
REMARK    2  A    between atoms: C_2  and  C_3
REMARK    3  A    between atoms: C_2  and  O_12
REMARK    4  A    between atoms: C_3  and  C_4
REMARK    5  A    between atoms: C_4  and  C_5
REMARK    6  A    between atoms: C_8  and  O_11
REMARK    7  A    between atoms: O_12  and  C_13
REMARK    8  A    between atoms: C_13  and  C_15
REMARK    9  A    between atoms: C_17  and  O_34
REMARK   10  A    between atoms: C_18  and  C_22
REMARK   11  A    between atoms: C_19  and  O_21
REMARK   12  A    between atoms: C_22  and  C_24
REMARK   13  A    between atoms: C_25  and  C_31
REMARK   14  A    between atoms: C_29  and  O_30
REMARK                            x       y       z     vdW  Elec       q    Type
REMARK                         _______ _______ _______ _____ _____    ______ ____
ROOT
ATOM      1  C   UNL     1       0.523  -1.301   3.496  0.00  0.00    +0.066 A 
ATOM      2  C   UNL     1       1.900  -1.519   3.452  0.00  0.00    +0.061 A 
ATOM      3  C   UNL     1       2.568  -1.968   4.578  0.00  0.00    +0.132 A 
ATOM      4  C   UNL     1       1.858  -2.204   5.765  0.00  0.00    +0.105 A 
ATOM      5  C   UNL     1       0.472  -1.983   5.804  0.00  0.00    +0.132 A 
ATOM      6  C   UNL     1      -0.186  -1.529   4.675  0.00  0.00    +0.061 A 
ENDROOT
BRANCH   1   7
ATOM      7  C   UNL     1      -0.187  -0.822   2.289  0.00  0.00    +0.340 C 
ATOM      8  O   UNL     1      -1.385  -0.627   2.327  0.00  0.00    -0.245 OA
BRANCH   7   9
ATOM      9  O   UNL     1       0.496  -0.601   1.149  0.00  0.00    -0.458 OA
BRANCH   9  11
ATOM     10  C   UNL     1      -0.286   1.391   0.026  0.00  0.00    +0.052 C 
ATOM     11  C   UNL     1      -0.253  -0.139   0.024  0.00  0.00    +0.174 C 
BRANCH  11  12
ATOM     12  C   UNL     1       0.406  -0.632  -1.266  0.00  0.00    +0.049 C 
BRANCH  12  13
ATOM     13  C   UNL     1       0.328  -2.159  -1.327  0.00  0.00    +0.039 C 
BRANCH  13  14
ATOM     14  C   UNL     1       0.978  -2.645  -2.596  0.00  0.00    -0.047 A 
ATOM     15  C   UNL     1       0.225  -2.785  -3.747  0.00  0.00    +0.007 A 
ATOM     16  C   UNL     1       0.818  -3.231  -4.912  0.00  0.00    +0.045 A 
ATOM     17  C   UNL     1       2.171  -3.538  -4.927  0.00  0.00    +0.117 A 
ATOM     18  C   UNL     1       2.925  -3.395  -3.771  0.00  0.00    +0.045 A 
ATOM     19  C   UNL     1       2.328  -2.944  -2.610  0.00  0.00    +0.007 A 
BRANCH  17  20
ATOM     20  O   UNL     1       2.757  -3.977  -6.072  0.00  0.00    -0.507 OA
ATOM     21  H   UNL     1       3.113  -3.270  -6.628  0.00  0.00    +0.292 HD
ENDBRANCH  17  20
ENDBRANCH  13  14
ENDBRANCH  12  13
ENDBRANCH  11  12
ENDBRANCH   9  11
ENDBRANCH   7   9
ENDBRANCH   1   7
BRANCH   5  22
ATOM     22  O   UNL     1      -0.219  -2.210   6.949  0.00  0.00    -0.506 OA
ATOM     23  H   UNL     1      -0.348  -1.421   7.494  0.00  0.00    +0.292 HD
ENDBRANCH   5  22
BRANCH   4  24
ATOM     24  C   UNL     1       2.564  -2.682   6.966  0.00  0.00    +0.204 C 
ATOM     25  O   UNL     1       3.744  -2.971   6.903  0.00  0.00    -0.286 OA
BRANCH  24  26
ATOM     26  C   UNL     1       1.841  -2.811   8.246  0.00  0.00    +0.078 A 
ATOM     27  C   UNL     1       1.286  -4.051   8.627  0.00  0.00    +0.077 A 
ATOM     28  C   UNL     1       0.607  -4.158   9.836  0.00  0.00    +0.016 A 
ATOM     29  C   UNL     1       0.476  -3.054  10.660  0.00  0.00    +0.004 A 
ATOM     30  C   UNL     1       1.016  -1.837  10.293  0.00  0.00    +0.046 A 
ATOM     31  C   UNL     1       1.704  -1.707   9.092  0.00  0.00    +0.128 A 
BRANCH  27  32
ATOM     32  C   UNL     1       1.426  -5.228   7.747  0.00  0.00    +0.387 C 
ATOM     33  O   UNL     1       1.030  -6.323   8.122  0.00  0.00    -0.241 OA
ATOM     34  O   UNL     1       1.938  -5.109   6.643  0.00  0.00    -0.241 OA
ENDBRANCH  27  32
BRANCH  31  35
ATOM     35  O   UNL     1       2.236  -0.510   8.740  0.00  0.00    -0.506 OA
ATOM     36  H   UNL     1       1.613   0.084   8.300  0.00  0.00    +0.292 HD
ENDBRANCH  31  35
ENDBRANCH  24  26
ENDBRANCH   4  24
BRANCH   3  37
ATOM     37  O   UNL     1       3.907  -2.180   4.534  0.00  0.00    -0.506 OA
ATOM     38  H   UNL     1       4.436  -1.405   4.771  0.00  0.00    +0.292 HD
ENDBRANCH   3  37
TORSDOF 13
