REMARK  Name = CHEMBL48988
REMARK  11 active torsions:
REMARK  status: ('A' for Active; 'I' for Inactive)
REMARK    1  A    between atoms: C_3  and  C_34
REMARK    2  A    between atoms: C_4  and  C_8
REMARK    3  A    between atoms: C_5  and  O_7
REMARK    4  A    between atoms: C_8  and  C_10
REMARK    5  A    between atoms: C_11  and  O_33
REMARK    6  A    between atoms: C_13  and  C_17
REMARK    7  A    between atoms: C_17  and  O_19
REMARK    8  A    between atoms: O_19  and  C_20
REMARK    9  A    between atoms: C_24  and  O_25
REMARK   10  A    between atoms: O_25  and  C_26
REMARK   11  A    between atoms: C_29  and  O_32
REMARK                            x       y       z     vdW  Elec       q    Type
REMARK                         _______ _______ _______ _____ _____    ______ ____
ROOT
ATOM      1  C   UNL     1       2.078  -2.267  -1.758  0.00  0.00    +0.110 A 
ATOM      2  C   UNL     1       3.429  -2.616  -1.913  0.00  0.00    +0.132 A 
ATOM      3  C   UNL     1       3.818  -3.938  -1.793  0.00  0.00    +0.061 A 
ATOM      4  C   UNL     1       2.870  -4.924  -1.518  0.00  0.00    +0.066 A 
ATOM      5  C   UNL     1       1.527  -4.583  -1.364  0.00  0.00    +0.066 A 
ATOM      6  C   UNL     1       1.129  -3.262  -1.476  0.00  0.00    +0.194 A 
ATOM      7  O   UNL     1      -0.177  -2.929  -1.320  0.00  0.00    -0.287 OA
ENDROOT
BRANCH   1   8
ATOM      8  C   UNL     1       1.659  -0.861  -1.886  0.00  0.00    +0.205 C 
ATOM      9  O   UNL     1       2.494   0.014  -2.017  0.00  0.00    -0.286 OA
BRANCH   8  13
ATOM     10  C   UNL     1      -2.480   0.144  -1.795  0.00  0.00    +0.004 A 
ATOM     11  C   UNL     1      -1.884  -0.188  -3.000  0.00  0.00    +0.016 A 
ATOM     12  C   UNL     1      -0.533  -0.518  -3.044  0.00  0.00    +0.077 A 
ATOM     13  C   UNL     1       0.225  -0.512  -1.855  0.00  0.00    +0.078 A 
ATOM     14  C   UNL     1      -0.392  -0.175  -0.647  0.00  0.00    +0.128 A 
ATOM     15  C   UNL     1      -1.744   0.151  -0.627  0.00  0.00    +0.046 A 
BRANCH  12  16
ATOM     16  C   UNL     1       0.103  -0.872  -4.329  0.00  0.00    +0.387 C 
ATOM     17  O   UNL     1      -0.573  -0.946  -5.345  0.00  0.00    -0.241 OA
ATOM     18  O   UNL     1       1.305  -1.091  -4.376  0.00  0.00    -0.241 OA
ENDBRANCH  12  16
BRANCH  14  19
ATOM     19  O   UNL     1       0.325  -0.167   0.504  0.00  0.00    -0.506 OA
ATOM     20  H   UNL     1       0.673   0.703   0.745  0.00  0.00    +0.292 HD
ENDBRANCH  14  19
ENDBRANCH   8  13
ENDBRANCH   1   8
BRANCH   4  21
ATOM     21  C   UNL     1       3.292  -6.337  -1.391  0.00  0.00    +0.340 C 
ATOM     22  O   UNL     1       4.461  -6.637  -1.525  0.00  0.00    -0.245 OA
BRANCH  21  23
ATOM     23  O   UNL     1       2.378  -7.291  -1.126  0.00  0.00    -0.454 OA
BRANCH  23  24
ATOM     24  C   UNL     1       2.855  -8.633  -1.016  0.00  0.00    +0.217 C 
ATOM     25  C   UNL     1       2.753  -9.344  -2.381  0.00  0.00    +0.048 C 
ATOM     26  C   UNL     1       2.346 -10.795  -2.025  0.00  0.00    +0.007 C 
ATOM     27  C   UNL     1       1.363 -10.595  -0.846  0.00  0.00    +0.048 C 
ATOM     28  C   UNL     1       1.971  -9.429  -0.039  0.00  0.00    +0.214 C 
BRANCH  28  29
ATOM     29  O   UNL     1       0.932  -8.592   0.472  0.00  0.00    -0.485 OA
BRANCH  29  30
ATOM     30  C   UNL     1       0.373  -8.956   1.658  0.00  0.00    +0.121 A 
ATOM     31  C   UNL     1       0.739 -10.152   2.258  0.00  0.00    +0.049 A 
ATOM     32  C   UNL     1       0.172 -10.522   3.462  0.00  0.00    +0.049 A 
ATOM     33  C   UNL     1      -0.762  -9.697   4.071  0.00  0.00    +0.117 A 
ATOM     34  C   UNL     1      -1.127  -8.501   3.471  0.00  0.00    +0.049 A 
ATOM     35  C   UNL     1      -0.557  -8.129   2.269  0.00  0.00    +0.049 A 
BRANCH  33  36
ATOM     36  O   UNL     1      -1.321 -10.061   5.256  0.00  0.00    -0.507 OA
ATOM     37  H   UNL     1      -0.834  -9.752   6.032  0.00  0.00    +0.292 HD
ENDBRANCH  33  36
ENDBRANCH  29  30
ENDBRANCH  28  29
ENDBRANCH  23  24
ENDBRANCH  21  23
ENDBRANCH   4  21
BRANCH   2  38
ATOM     38  O   UNL     1       4.351  -1.658  -2.181  0.00  0.00    -0.506 OA
ATOM     39  H   UNL     1       4.748  -1.262  -1.393  0.00  0.00    +0.292 HD
ENDBRANCH   2  38
TORSDOF 11
