REMARK  Name = CHEMBL432168
REMARK  12 active torsions:
REMARK  status: ('A' for Active; 'I' for Inactive)
REMARK    1  A    between atoms: C_3  and  C_40
REMARK    2  A    between atoms: C_4  and  C_8
REMARK    3  A    between atoms: C_5  and  O_7
REMARK    4  A    between atoms: C_8  and  C_10
REMARK    5  A    between atoms: C_11  and  O_39
REMARK    6  A    between atoms: C_13  and  C_17
REMARK    7  A    between atoms: C_17  and  O_19
REMARK    8  A    between atoms: O_19  and  C_20
REMARK    9  A    between atoms: C_23  and  N_38
REMARK   10  A    between atoms: C_26  and  N_28
REMARK   11  A    between atoms: C_29  and  C_31
REMARK   12  A    between atoms: C_34  and  O_37
REMARK                            x       y       z     vdW  Elec       q    Type
REMARK                         _______ _______ _______ _____ _____    ______ ____
ROOT
ATOM      1  C   UNL     1       3.512  -6.393   0.802  0.00  0.00    +0.340 C 
ATOM      2  O   UNL     1       4.540  -7.035   0.886  0.00  0.00    -0.245 OA
ENDROOT
BRANCH   1   6
ATOM      3  C   UNL     1       3.670  -2.144   0.500  0.00  0.00    +0.110 A 
ATOM      4  C   UNL     1       4.856  -2.888   0.597  0.00  0.00    +0.132 A 
ATOM      5  C   UNL     1       4.801  -4.266   0.695  0.00  0.00    +0.061 A 
ATOM      6  C   UNL     1       3.567  -4.918   0.698  0.00  0.00    +0.066 A 
ATOM      7  C   UNL     1       2.385  -4.184   0.602  0.00  0.00    +0.066 A 
ATOM      8  C   UNL     1       2.432  -2.804   0.510  0.00  0.00    +0.194 A 
ATOM      9  O   UNL     1       1.281  -2.090   0.423  0.00  0.00    -0.287 OA
BRANCH   3  10
ATOM     10  C   UNL     1       3.724  -0.675   0.396  0.00  0.00    +0.205 C 
ATOM     11  O   UNL     1       4.791  -0.098   0.491  0.00  0.00    -0.286 OA
BRANCH  10  15
ATOM     12  C   UNL     1       0.147   1.548  -0.239  0.00  0.00    +0.004 A 
ATOM     13  C   UNL     1       0.825   1.021  -1.325  0.00  0.00    +0.016 A 
ATOM     14  C   UNL     1       1.994   0.293  -1.132  0.00  0.00    +0.077 A 
ATOM     15  C   UNL     1       2.485   0.095   0.175  0.00  0.00    +0.078 A 
ATOM     16  C   UNL     1       1.788   0.634   1.261  0.00  0.00    +0.128 A 
ATOM     17  C   UNL     1       0.622   1.359   1.044  0.00  0.00    +0.046 A 
BRANCH  14  18
ATOM     18  C   UNL     1       2.717  -0.270  -2.289  0.00  0.00    +0.387 C 
ATOM     19  O   UNL     1       2.238  -0.184  -3.411  0.00  0.00    -0.241 OA
ATOM     20  O   UNL     1       3.796  -0.823  -2.127  0.00  0.00    -0.241 OA
ENDBRANCH  14  18
BRANCH  16  21
ATOM     21  O   UNL     1       2.249   0.451   2.523  0.00  0.00    -0.506 OA
ATOM     22  H   UNL     1       2.795   1.178   2.852  0.00  0.00    +0.292 HD
ENDBRANCH  16  21
ENDBRANCH  10  15
ENDBRANCH   3  10
BRANCH   4  23
ATOM     23  O   UNL     1       6.056  -2.255   0.594  0.00  0.00    -0.506 OA
ATOM     24  H   UNL     1       6.373  -2.007   1.473  0.00  0.00    +0.292 HD
ENDBRANCH   4  23
ENDBRANCH   1   6
BRANCH   1  25
ATOM     25  O   UNL     1       2.323  -7.025   0.805  0.00  0.00    -0.456 OA
BRANCH  25  26
ATOM     26  C   UNL     1       2.345  -8.450   0.909  0.00  0.00    +0.195 C 
ATOM     27  C   UNL     1       2.352  -9.082  -0.498  0.00  0.00    +0.030 C 
ATOM     28  C   UNL     1       1.466 -10.344  -0.352  0.00  0.00    -0.070 C 
ATOM     29  C   UNL     1       0.343  -9.864   0.601  0.00  0.00    +0.010 C 
ATOM     30  C   UNL     1       1.068  -8.947   1.609  0.00  0.00    +0.112 C 
BRANCH  30  31
ATOM     31  N   UNL     1       1.417  -9.702   2.814  0.00  0.00    -0.305 N 
ATOM     32  C   UNL     1       0.535  -9.799   3.829  0.00  0.00    +0.244 C 
ATOM     33  O   UNL     1      -0.551  -9.260   3.743  0.00  0.00    -0.270 OA
ATOM     34  H   UNL     1       2.284 -10.133   2.882  0.00  0.00    +0.149 HD
BRANCH  32  35
ATOM     35  C   UNL     1       0.888 -10.560   5.043  0.00  0.00    +0.037 A 
ATOM     36  C   UNL     1       2.138 -11.176   5.146  0.00  0.00    +0.016 A 
ATOM     37  C   UNL     1       2.463 -11.885   6.281  0.00  0.00    +0.046 A 
ATOM     38  C   UNL     1       1.550 -11.988   7.323  0.00  0.00    +0.117 A 
ATOM     39  C   UNL     1       0.306 -11.377   7.225  0.00  0.00    +0.046 A 
ATOM     40  C   UNL     1      -0.025 -10.662   6.096  0.00  0.00    +0.016 A 
BRANCH  38  41
ATOM     41  O   UNL     1       1.874 -12.688   8.440  0.00  0.00    -0.507 OA
ATOM     42  H   UNL     1       2.300 -12.158   9.127  0.00  0.00    +0.292 HD
ENDBRANCH  38  41
ENDBRANCH  32  35
ENDBRANCH  30  31
BRANCH  28  43
ATOM     43  N   UNL     1       0.913 -10.745  -1.653  0.00  0.00    +0.380 N 
ATOM     44  H   UNL     1       1.668 -10.973  -2.283  0.00  0.00    -0.090 HD
ATOM     45  H   UNL     1       0.321 -11.553  -1.532  0.00  0.00    -0.090 HD
ATOM     46  H   UNL     1       0.372  -9.986  -2.038  0.00  0.00    -0.090 HD
ENDBRANCH  28  43
ENDBRANCH  25  26
ENDBRANCH   1  25
TORSDOF 12
