REMARK  Name = CHEMBL434415
REMARK  6 active torsions:
REMARK  status: ('A' for Active; 'I' for Inactive)
REMARK    1  A    between atoms: C_1  and  C_2
REMARK    2  A    between atoms: C_3  and  O_43
REMARK    3  A    between atoms: C_5  and  N_35
REMARK    4  A    between atoms: N_35  and  C_36
REMARK    5  A    between atoms: N_35  and  C_37
REMARK    6  A    between atoms: O_43  and  C_44
REMARK                            x       y       z     vdW  Elec       q    Type
REMARK                         _______ _______ _______ _____ _____    ______ ____
ROOT
ATOM      1  C   UNL     1       1.989   0.271  -2.371  0.00  0.00    +0.069 C 
ATOM      2  C   UNL     1       1.355  -0.898  -1.615  0.00  0.00    +0.174 C 
ATOM      3  C   UNL     1      -0.018  -0.435  -1.145  0.00  0.00    +0.191 C 
ATOM      4  C   UNL     1      -0.576  -1.441  -0.132  0.00  0.00    +0.111 C 
ATOM      5  C   UNL     1       0.398  -1.515   1.050  0.00  0.00    +0.079 C 
ATOM      6  C   UNL     1       1.765  -1.965   0.552  0.00  0.00    +0.224 C 
ATOM      7  O   UNL     1       2.215  -1.216  -0.544  0.00  0.00    -0.328 OA
ATOM      8  N   UNL     1       1.763  -3.401   0.271  0.00  0.00    -0.311 N 
ATOM      9  C   UNL     1       1.962  -4.409   1.181  0.00  0.00    +0.052 A 
ATOM     10  C   UNL     1       2.212  -4.360   2.552  0.00  0.00    +0.026 A 
ATOM     11  C   UNL     1       2.373  -5.569   3.208  0.00  0.00    +0.002 A 
ATOM     12  C   UNL     1       2.290  -6.783   2.548  0.00  0.00    +0.001 A 
ATOM     13  C   UNL     1       2.042  -6.860   1.188  0.00  0.00    +0.010 A 
ATOM     14  C   UNL     1       1.879  -5.651   0.509  0.00  0.00    +0.008 A 
ATOM     15  C   UNL     1       1.616  -5.350  -0.895  0.00  0.00    +0.022 A 
ATOM     16  C   UNL     1       1.559  -3.958  -0.989  0.00  0.00    +0.077 A 
ATOM     17  C   UNL     1       1.327  -3.346  -2.226  0.00  0.00    +0.077 A 
ATOM     18  N   UNL     1       1.217  -2.001  -2.567  0.00  0.00    -0.307 N 
ATOM     19  C   UNL     1       0.980  -1.885  -3.917  0.00  0.00    +0.053 A 
ATOM     20  C   UNL     1       0.818  -0.753  -4.715  0.00  0.00    +0.026 A 
ATOM     21  C   UNL     1       0.590  -0.960  -6.064  0.00  0.00    +0.002 A 
ATOM     22  C   UNL     1       0.521  -2.228  -6.614  0.00  0.00    +0.001 A 
ATOM     23  C   UNL     1       0.679  -3.368  -5.843  0.00  0.00    +0.010 A 
ATOM     24  C   UNL     1       0.910  -3.178  -4.481  0.00  0.00    +0.008 A 
ATOM     25  C   UNL     1       1.148  -4.133  -3.375  0.00  0.00    +0.015 A 
ATOM     26  C   UNL     1       1.196  -5.519  -3.278  0.00  0.00    -0.008 A 
ATOM     27  C   UNL     1       1.426  -6.139  -2.054  0.00  0.00    +0.052 A 
ATOM     28  C   UNL     1       1.418  -7.595  -2.262  0.00  0.00    +0.245 C 
ATOM     29  O   UNL     1       1.589  -8.422  -1.387  0.00  0.00    -0.270 OA
ATOM     30  N   UNL     1       1.195  -7.883  -3.555  0.00  0.00    -0.307 N 
ATOM     31  C   UNL     1       1.040  -6.625  -4.294  0.00  0.00    +0.141 C 
ATOM     32  H   UNL     1       1.145  -8.773  -3.937  0.00  0.00    +0.149 HD
ENDROOT
BRANCH   4  33
ATOM     33  N   UNL     1      -0.696  -2.760  -0.758  0.00  0.00    -0.327 N 
ATOM     34  C   UNL     1      -0.101  -3.933  -0.114  0.00  0.00    +0.129 C 
BRANCH  33  35
ATOM     35  C   UNL     1      -1.378  -2.898  -1.969  0.00  0.00    +0.030 A 
ATOM     36  C   UNL     1      -2.467  -2.084  -2.251  0.00  0.00    +0.023 A 
ATOM     37  C   UNL     1      -3.139  -2.223  -3.450  0.00  0.00    +0.002 A 
ATOM     38  C   UNL     1      -2.728  -3.171  -4.369  0.00  0.00    +0.000 A 
ATOM     39  C   UNL     1      -1.644  -3.984  -4.091  0.00  0.00    +0.002 A 
ATOM     40  C   UNL     1      -0.965  -3.846  -2.896  0.00  0.00    +0.023 A 
ENDBRANCH  33  35
ENDBRANCH   4  33
BRANCH   3  41
ATOM     41  O   UNL     1      -0.901  -0.348  -2.265  0.00  0.00    -0.373 OA
ATOM     42  C   UNL     1      -1.790   0.770  -2.219  0.00  0.00    +0.194 C 
ENDBRANCH   3  41
TORSDOF 3
