REMARK  Name = CHEMBL148745
REMARK  13 active torsions:
REMARK  status: ('A' for Active; 'I' for Inactive)
REMARK    1  A    between atoms: C_1  and  C_2
REMARK    2  A    between atoms: C_2  and  C_3
REMARK    3  A    between atoms: C_2  and  O_12
REMARK    4  A    between atoms: C_3  and  C_4
REMARK    5  A    between atoms: C_4  and  C_5
REMARK    6  A    between atoms: C_8  and  O_11
REMARK    7  A    between atoms: O_12  and  C_13
REMARK    8  A    between atoms: C_13  and  C_15
REMARK    9  A    between atoms: C_17  and  O_34
REMARK   10  A    between atoms: C_18  and  C_22
REMARK   11  A    between atoms: C_22  and  C_24
REMARK   12  A    between atoms: C_25  and  C_31
REMARK   13  A    between atoms: C_29  and  O_30
REMARK                            x       y       z     vdW  Elec       q    Type
REMARK                         _______ _______ _______ _____ _____    ______ ____
ROOT
ATOM      1  C   UNL     1       2.741  -1.114  -2.272  0.00  0.00    +0.066 A 
ATOM      2  C   UNL     1       4.115  -1.331  -2.166  0.00  0.00    +0.061 A 
ATOM      3  C   UNL     1       4.832  -1.783  -3.260  0.00  0.00    +0.132 A 
ATOM      4  C   UNL     1       4.176  -2.022  -4.477  0.00  0.00    +0.110 A 
ATOM      5  C   UNL     1       2.794  -1.802  -4.579  0.00  0.00    +0.194 A 
ATOM      6  C   UNL     1       2.083  -1.355  -3.478  0.00  0.00    +0.066 A 
ATOM      7  O   UNL     1       2.154  -2.031  -5.753  0.00  0.00    -0.287 OA
ENDROOT
BRANCH   1   8
ATOM      8  C   UNL     1       1.978  -0.632  -1.099  0.00  0.00    +0.340 C 
ATOM      9  O   UNL     1       2.550  -0.421  -0.048  0.00  0.00    -0.245 OA
BRANCH   8  10
ATOM     10  O   UNL     1       0.651  -0.426  -1.197  0.00  0.00    -0.458 OA
BRANCH  10  12
ATOM     11  C   UNL     1      -0.021   1.569  -0.012  0.00  0.00    +0.052 C 
ATOM     12  C   UNL     1      -0.022   0.040  -0.026  0.00  0.00    +0.174 C 
BRANCH  12  13
ATOM     13  C   UNL     1      -1.464  -0.470  -0.030  0.00  0.00    +0.049 C 
BRANCH  13  14
ATOM     14  C   UNL     1      -1.467  -1.996   0.082  0.00  0.00    +0.039 C 
BRANCH  14  15
ATOM     15  C   UNL     1      -2.888  -2.498   0.079  0.00  0.00    -0.047 A 
ATOM     16  C   UNL     1      -3.575  -2.634   1.271  0.00  0.00    +0.007 A 
ATOM     17  C   UNL     1      -4.877  -3.095   1.270  0.00  0.00    +0.045 A 
ATOM     18  C   UNL     1      -5.496  -3.419   0.072  0.00  0.00    +0.117 A 
ATOM     19  C   UNL     1      -4.805  -3.280  -1.123  0.00  0.00    +0.045 A 
ATOM     20  C   UNL     1      -3.505  -2.815  -1.118  0.00  0.00    +0.007 A 
BRANCH  18  21
ATOM     21  O   UNL     1      -6.777  -3.872   0.068  0.00  0.00    -0.507 OA
ATOM     22  H   UNL     1      -7.442  -3.174  -0.006  0.00  0.00    +0.292 HD
ENDBRANCH  18  21
ENDBRANCH  14  15
ENDBRANCH  13  14
ENDBRANCH  12  13
ENDBRANCH  10  12
ENDBRANCH   8  10
ENDBRANCH   1   8
BRANCH   4  23
ATOM     23  C   UNL     1       4.935  -2.502  -5.645  0.00  0.00    +0.205 C 
ATOM     24  O   UNL     1       6.147  -2.595  -5.586  0.00  0.00    -0.286 OA
BRANCH  23  25
ATOM     25  C   UNL     1       4.226  -2.870  -6.886  0.00  0.00    +0.078 A 
ATOM     26  C   UNL     1       4.085  -1.931  -7.929  0.00  0.00    +0.077 A 
ATOM     27  C   UNL     1       3.414  -2.291  -9.093  0.00  0.00    +0.016 A 
ATOM     28  C   UNL     1       2.889  -3.566  -9.227  0.00  0.00    +0.004 A 
ATOM     29  C   UNL     1       3.024  -4.489  -8.210  0.00  0.00    +0.046 A 
ATOM     30  C   UNL     1       3.695  -4.154  -7.040  0.00  0.00    +0.128 A 
BRANCH  26  31
ATOM     31  C   UNL     1       4.644  -0.572  -7.785  0.00  0.00    +0.387 C 
ATOM     32  O   UNL     1       4.438   0.269  -8.648  0.00  0.00    -0.241 OA
ATOM     33  O   UNL     1       5.314  -0.287  -6.802  0.00  0.00    -0.241 OA
ENDBRANCH  26  31
BRANCH  30  34
ATOM     34  O   UNL     1       3.829  -5.068  -6.047  0.00  0.00    -0.506 OA
ATOM     35  H   UNL     1       3.146  -5.010  -5.364  0.00  0.00    +0.292 HD
ENDBRANCH  30  34
ENDBRANCH  23  25
ENDBRANCH   4  23
BRANCH   3  36
ATOM     36  O   UNL     1       6.169  -1.993  -3.157  0.00  0.00    -0.506 OA
ATOM     37  H   UNL     1       6.405  -2.889  -2.881  0.00  0.00    +0.292 HD
ENDBRANCH   3  36
TORSDOF 12
