REMARK  Name = CHEMBL26817
REMARK  3 active torsions:
REMARK  status: ('A' for Active; 'I' for Inactive)
REMARK    1  A    between atoms: N_22  and  C_24
REMARK    2  A    between atoms: C_24  and  C_25
REMARK    3  A    between atoms: C_25  and  O_26
REMARK                            x       y       z     vdW  Elec       q    Type
REMARK                         _______ _______ _______ _____ _____    ______ ____
ROOT
ATOM      1  C   UNL     1      -0.165   1.362  -1.421  0.00  0.00    +0.001 A 
ATOM      2  C   UNL     1       0.981   2.129  -1.312  0.00  0.00    +0.002 A 
ATOM      3  C   UNL     1       2.220   1.570  -1.049  0.00  0.00    +0.026 A 
ATOM      4  C   UNL     1       2.272   0.185  -0.895  0.00  0.00    +0.051 A 
ATOM      5  C   UNL     1       1.100  -0.596  -1.005  0.00  0.00    +0.008 A 
ATOM      6  C   UNL     1      -0.140  -0.015  -1.271  0.00  0.00    +0.010 A 
ATOM      7  C   UNL     1       1.502  -1.987  -0.791  0.00  0.00    +0.015 A 
ATOM      8  C   UNL     1       0.821  -3.200  -0.770  0.00  0.00    -0.008 A 
ATOM      9  C   UNL     1       1.499  -4.390  -0.531  0.00  0.00    +0.052 A 
ATOM     10  C   UNL     1       2.896  -4.366  -0.306  0.00  0.00    +0.022 A 
ATOM     11  C   UNL     1       3.897  -5.392  -0.030  0.00  0.00    +0.008 A 
ATOM     12  C   UNL     1       3.798  -6.779   0.101  0.00  0.00    +0.010 A 
ATOM     13  C   UNL     1       4.970  -7.465   0.370  0.00  0.00    +0.001 A 
ATOM     14  C   UNL     1       6.184  -6.813   0.504  0.00  0.00    +0.002 A 
ATOM     15  C   UNL     1       6.302  -5.439   0.378  0.00  0.00    +0.026 A 
ATOM     16  C   UNL     1       5.136  -4.725   0.104  0.00  0.00    +0.051 A 
ATOM     17  N   UNL     1       4.933  -3.380  -0.082  0.00  0.00    -0.324 N 
ATOM     18  C   UNL     1       3.582  -3.150  -0.328  0.00  0.00    +0.076 A 
ATOM     19  C   UNL     1       2.888  -1.958  -0.570  0.00  0.00    +0.076 A 
ATOM     20  N   UNL     1       3.336  -0.647  -0.637  0.00  0.00    -0.325 N 
ATOM     21  C   UNL     1       4.729  -0.235  -0.469  0.00  0.00    +0.211 C 
ATOM     22  N   UNL     1       5.667  -1.232  -0.917  0.00  0.00    -0.265 NA
ATOM     23  C   UNL     1       5.958  -2.338  -0.041  0.00  0.00    +0.211 C 
ATOM     24  C   UNL     1       0.528  -5.494  -0.568  0.00  0.00    +0.245 C 
ATOM     25  O   UNL     1       0.802  -6.667  -0.398  0.00  0.00    -0.270 OA
ATOM     26  N   UNL     1      -0.707  -5.024  -0.816  0.00  0.00    -0.307 N 
ATOM     27  C   UNL     1      -0.630  -3.566  -0.964  0.00  0.00    +0.141 C 
ATOM     28  H   UNL     1      -1.513  -5.559  -0.887  0.00  0.00    +0.149 HD
ENDROOT
BRANCH  22  29
ATOM     29  C   UNL     1       6.904  -0.608  -1.406  0.00  0.00    +0.115 C 
BRANCH  29  30
ATOM     30  C   UNL     1       7.685  -1.617  -2.250  0.00  0.00    +0.171 C 
BRANCH  30  31
ATOM     31  O   UNL     1       6.916  -1.972  -3.401  0.00  0.00    -0.394 OA
ATOM     32  H   UNL     1       7.351  -2.610  -3.983  0.00  0.00    +0.209 HD
ENDBRANCH  30  31
ENDBRANCH  29  30
ENDBRANCH  22  29
TORSDOF 3
