REMARK  Name = CHEMBL91126
REMARK  11 active torsions:
REMARK  status: ('A' for Active; 'I' for Inactive)
REMARK    1  A    between atoms: C_3  and  O_39
REMARK    2  A    between atoms: C_6  and  C_7
REMARK    3  A    between atoms: N_9  and  C_10
REMARK    4  A    between atoms: C_14  and  O_15
REMARK    5  A    between atoms: O_15  and  C_16
REMARK    6  A    between atoms: C_16  and  C_18
REMARK    7  A    between atoms: C_20  and  O_38
REMARK    8  A    between atoms: C_21  and  C_25
REMARK    9  A    between atoms: C_22  and  O_24
REMARK   10  A    between atoms: C_25  and  C_27
REMARK   11  A    between atoms: C_28  and  O_37
REMARK                            x       y       z     vdW  Elec       q    Type
REMARK                         _______ _______ _______ _____ _____    ______ ____
ROOT
ATOM      1  C   UNL     1       0.576  -5.497  -2.620  0.00  0.00    +0.066 A 
ATOM      2  C   UNL     1       1.595  -4.846  -1.925  0.00  0.00    +0.061 A 
ATOM      3  C   UNL     1       2.913  -5.003  -2.317  0.00  0.00    +0.132 A 
ATOM      4  C   UNL     1       3.223  -5.818  -3.416  0.00  0.00    +0.105 A 
ATOM      5  C   UNL     1       2.195  -6.471  -4.112  0.00  0.00    +0.132 A 
ATOM      6  C   UNL     1       0.880  -6.313  -3.710  0.00  0.00    +0.061 A 
ENDROOT
BRANCH   1   7
ATOM      7  C   UNL     1      -0.832  -5.327  -2.197  0.00  0.00    +0.340 C 
ATOM      8  O   UNL     1      -1.720  -5.896  -2.799  0.00  0.00    -0.245 OA
BRANCH   7   9
ATOM      9  O   UNL     1      -1.128  -4.539  -1.145  0.00  0.00    -0.455 OA
BRANCH   9  14
ATOM     10  C   UNL     1      -2.783  -3.039  -0.163  0.00  0.00    +0.129 C 
ATOM     11  C   UNL     1      -3.288  -3.342   1.264  0.00  0.00    +0.107 C 
ATOM     12  N   UNL     1      -3.830  -4.723   1.184  0.00  0.00    -0.311 NA
ATOM     13  C   UNL     1      -2.870  -5.442   0.307  0.00  0.00    +0.127 C 
ATOM     14  C   UNL     1      -2.508  -4.420  -0.792  0.00  0.00    +0.212 C 
ATOM     15  H   UNL     1      -3.873  -5.148   2.098  0.00  0.00    +0.122 HD
BRANCH  10  18
ATOM     16  C   UNL     1      -1.611  -0.904  -0.085  0.00  0.00    +0.244 C 
ATOM     17  O   UNL     1      -2.691  -0.344  -0.108  0.00  0.00    -0.270 OA
ATOM     18  N   UNL     1      -1.550  -2.250  -0.109  0.00  0.00    -0.304 N 
ATOM     19  H   UNL     1      -0.689  -2.696  -0.091  0.00  0.00    +0.149 HD
BRANCH  16  25
ATOM     20  C   UNL     1      -0.431   1.287  -0.006  0.00  0.00    +0.016 A 
ATOM     21  C   UNL     1       0.730   2.025   0.044  0.00  0.00    +0.046 A 
ATOM     22  C   UNL     1       1.963   1.384   0.071  0.00  0.00    +0.117 A 
ATOM     23  C   UNL     1       2.029  -0.005   0.047  0.00  0.00    +0.046 A 
ATOM     24  C   UNL     1       0.872  -0.750  -0.004  0.00  0.00    +0.016 A 
ATOM     25  C   UNL     1      -0.369  -0.109  -0.031  0.00  0.00    +0.037 A 
BRANCH  22  26
ATOM     26  O   UNL     1       3.105   2.115   0.121  0.00  0.00    -0.507 OA
ATOM     27  H   UNL     1       3.409   2.310   1.018  0.00  0.00    +0.292 HD
ENDBRANCH  22  26
ENDBRANCH  16  25
ENDBRANCH  10  18
ENDBRANCH   9  14
ENDBRANCH   7   9
ENDBRANCH   1   7
BRANCH   5  28
ATOM     28  O   UNL     1       2.490  -7.260  -5.176  0.00  0.00    -0.506 OA
ATOM     29  H   UNL     1       2.575  -8.198  -4.958  0.00  0.00    +0.292 HD
ENDBRANCH   5  28
BRANCH   4  30
ATOM     30  C   UNL     1       4.625  -5.987  -3.838  0.00  0.00    +0.204 C 
ATOM     31  O   UNL     1       5.504  -5.341  -3.300  0.00  0.00    -0.286 OA
BRANCH  30  32
ATOM     32  C   UNL     1       4.962  -6.939  -4.913  0.00  0.00    +0.067 A 
ATOM     33  C   UNL     1       5.161  -8.291  -4.612  0.00  0.00    +0.128 A 
ATOM     34  C   UNL     1       5.478  -9.177  -5.630  0.00  0.00    +0.046 A 
ATOM     35  C   UNL     1       5.597  -8.720  -6.925  0.00  0.00    +0.007 A 
ATOM     36  C   UNL     1       5.402  -7.376  -7.232  0.00  0.00    -0.043 A 
ATOM     37  C   UNL     1       5.077  -6.487  -6.238  0.00  0.00    -0.030 A 
ATOM     38  C   UNL     1       4.830  -5.025  -6.503  0.00  0.00    +0.036 C 
ATOM     39  C   UNL     1       5.401  -4.621  -7.860  0.00  0.00    +0.005 C 
ATOM     40  C   UNL     1       4.884  -5.607  -8.915  0.00  0.00    +0.005 C 
ATOM     41  C   UNL     1       5.560  -6.959  -8.671  0.00  0.00    +0.035 C 
BRANCH  33  42
ATOM     42  O   UNL     1       5.045  -8.731  -3.334  0.00  0.00    -0.506 OA
ATOM     43  H   UNL     1       4.138  -8.943  -3.071  0.00  0.00    +0.292 HD
ENDBRANCH  33  42
ENDBRANCH  30  32
ENDBRANCH   4  30
BRANCH   3  44
ATOM     44  O   UNL     1       3.903  -4.369  -1.641  0.00  0.00    -0.506 OA
ATOM     45  H   UNL     1       4.268  -4.881  -0.906  0.00  0.00    +0.292 HD
ENDBRANCH   3  44
TORSDOF 11
