REMARK  Name = CHEMBL59687
REMARK  11 active torsions:
REMARK  status: ('A' for Active; 'I' for Inactive)
REMARK    1  A    between atoms: C_3  and  C_40
REMARK    2  A    between atoms: C_4  and  C_8
REMARK    3  A    between atoms: C_5  and  O_7
REMARK    4  A    between atoms: C_8  and  C_10
REMARK    5  A    between atoms: C_11  and  O_39
REMARK    6  A    between atoms: C_13  and  C_17
REMARK    7  A    between atoms: C_15  and  O_16
REMARK    8  A    between atoms: N_19  and  C_20
REMARK    9  A    between atoms: C_27  and  N_29
REMARK   10  A    between atoms: C_30  and  C_32
REMARK   11  A    between atoms: C_35  and  O_38
REMARK                            x       y       z     vdW  Elec       q    Type
REMARK                         _______ _______ _______ _____ _____    ______ ____
ROOT
ATOM      1  C   UNL     1       3.568  -6.429   0.787  0.00  0.00    +0.245 C 
ATOM      2  O   UNL     1       2.505  -7.017   0.756  0.00  0.00    -0.270 OA
ATOM      3  N   UNL     1       4.718  -7.123   0.901  0.00  0.00    -0.307 N 
ATOM      4  H   UNL     1       5.567  -6.654   0.926  0.00  0.00    +0.149 HD
ENDROOT
BRANCH   3   5
ATOM      5  C   UNL     1       4.686  -8.585   0.986  0.00  0.00    +0.092 C 
ATOM      6  C   UNL     1       4.438  -9.004   2.457  0.00  0.00    +0.022 C 
ATOM      7  C   UNL     1       4.017 -10.449   2.487  0.00  0.00    -0.017 C 
ATOM      8  C   UNL     1       5.194 -11.427   2.655  0.00  0.00    -0.082 C 
ATOM      9  N   UNL     1       6.373 -11.081   1.833  0.00  0.00    +0.380 N 
ATOM     10  C   UNL     1       5.999 -10.658   0.506  0.00  0.00    -0.058 C 
ATOM     11  C   UNL     1       5.950  -9.121   0.498  0.00  0.00    +0.076 C 
ATOM     12  H   UNL     1       6.880 -10.334   2.285  0.00  0.00    -0.086 HD
ATOM     13  H   UNL     1       6.973 -11.889   1.764  0.00  0.00    -0.086 HD
BRANCH  11  14
ATOM     14  N   UNL     1       6.162  -8.651  -0.874  0.00  0.00    -0.309 N 
ATOM     15  C   UNL     1       7.412  -8.563  -1.371  0.00  0.00    +0.244 C 
ATOM     16  O   UNL     1       8.364  -8.873  -0.681  0.00  0.00    -0.270 OA
ATOM     17  H   UNL     1       5.403  -8.404  -1.425  0.00  0.00    +0.149 HD
BRANCH  15  18
ATOM     18  C   UNL     1       7.625  -8.090  -2.752  0.00  0.00    +0.037 A 
ATOM     19  C   UNL     1       6.533  -7.728  -3.545  0.00  0.00    +0.016 A 
ATOM     20  C   UNL     1       6.736  -7.287  -4.834  0.00  0.00    +0.046 A 
ATOM     21  C   UNL     1       8.025  -7.202  -5.346  0.00  0.00    +0.117 A 
ATOM     22  C   UNL     1       9.114  -7.561  -4.561  0.00  0.00    +0.046 A 
ATOM     23  C   UNL     1       8.920  -7.998  -3.269  0.00  0.00    +0.016 A 
BRANCH  21  24
ATOM     24  O   UNL     1       8.222  -6.767  -6.617  0.00  0.00    -0.507 OA
ATOM     25  H   UNL     1       8.340  -5.811  -6.691  0.00  0.00    +0.292 HD
ENDBRANCH  21  24
ENDBRANCH  15  18
ENDBRANCH  11  14
ENDBRANCH   3   5
BRANCH   1  29
ATOM     26  C   UNL     1       3.661  -2.174   0.539  0.00  0.00    +0.105 A 
ATOM     27  C   UNL     1       2.434  -2.854   0.503  0.00  0.00    +0.132 A 
ATOM     28  C   UNL     1       2.409  -4.236   0.584  0.00  0.00    +0.059 A 
ATOM     29  C   UNL     1       3.600  -4.952   0.701  0.00  0.00    +0.044 A 
ATOM     30  C   UNL     1       4.822  -4.280   0.738  0.00  0.00    +0.059 A 
ATOM     31  C   UNL     1       4.857  -2.899   0.651  0.00  0.00    +0.132 A 
BRANCH  26  32
ATOM     32  C   UNL     1       3.693  -0.703   0.454  0.00  0.00    +0.204 C 
ATOM     33  O   UNL     1       4.746  -0.110   0.586  0.00  0.00    -0.286 OA
BRANCH  32  37
ATOM     34  C   UNL     1       0.096   1.467  -0.251  0.00  0.00    +0.004 A 
ATOM     35  C   UNL     1       0.815   0.970  -1.325  0.00  0.00    +0.016 A 
ATOM     36  C   UNL     1       1.991   0.259  -1.109  0.00  0.00    +0.077 A 
ATOM     37  C   UNL     1       2.447   0.049   0.209  0.00  0.00    +0.078 A 
ATOM     38  C   UNL     1       1.709   0.558   1.282  0.00  0.00    +0.128 A 
ATOM     39  C   UNL     1       0.536   1.265   1.041  0.00  0.00    +0.046 A 
BRANCH  36  40
ATOM     40  C   UNL     1       2.758  -0.272  -2.253  0.00  0.00    +0.387 C 
ATOM     41  O   UNL     1       2.311  -0.176  -3.387  0.00  0.00    -0.241 OA
ATOM     42  O   UNL     1       3.841  -0.809  -2.067  0.00  0.00    -0.241 OA
ENDBRANCH  36  40
BRANCH  38  43
ATOM     43  O   UNL     1       2.136   0.363   2.554  0.00  0.00    -0.506 OA
ATOM     44  H   UNL     1       2.659   1.095   2.910  0.00  0.00    +0.292 HD
ENDBRANCH  38  43
ENDBRANCH  32  37
ENDBRANCH  26  32
BRANCH  31  45
ATOM     45  O   UNL     1       6.046  -2.246   0.682  0.00  0.00    -0.506 OA
ATOM     46  H   UNL     1       6.340  -2.005   1.571  0.00  0.00    +0.292 HD
ENDBRANCH  31  45
BRANCH  27  47
ATOM     47  O   UNL     1       1.275  -2.159   0.390  0.00  0.00    -0.506 OA
ATOM     48  H   UNL     1       0.952  -2.079  -0.518  0.00  0.00    +0.292 HD
ENDBRANCH  27  47
ENDBRANCH   1  29
TORSDOF 11
