REMARK  Name = CHEMBL105477
REMARK  2 active torsions:
REMARK  status: ('A' for Active; 'I' for Inactive)
REMARK    1  A    between atoms: C_1  and  N_2
REMARK    2  A    between atoms: N_27  and  C_33
REMARK                            x       y       z     vdW  Elec       q    Type
REMARK                         _______ _______ _______ _____ _____    ______ ____
ROOT
ATOM      1  C   UNL     1      -0.018   1.464   0.010  0.00  0.00    -0.096 C 
ATOM      2  N   UNL     1       0.002  -0.004   0.002  0.00  0.00    +0.380 N 
ATOM      3  C   UNL     1      -1.366  -0.541  -0.022  0.00  0.00    -0.057 C 
ATOM      4  C   UNL     1      -2.231   0.222  -1.008  0.00  0.00    +0.103 C 
ATOM      5  N   UNL     1      -3.446  -0.490  -1.403  0.00  0.00    -0.348 N 
ATOM      6  C   UNL     1      -3.727  -1.818  -1.338  0.00  0.00    +0.095 A 
ATOM      7  C   UNL     1      -4.956  -2.071  -1.841  0.00  0.00    +0.013 A 
ATOM      8  C   UNL     1      -5.535  -0.744  -2.193  0.00  0.00    +0.008 A 
ATOM      9  C   UNL     1      -4.531   0.192  -1.938  0.00  0.00    +0.050 A 
ATOM     10  C   UNL     1      -4.729   1.535  -2.248  0.00  0.00    +0.026 A 
ATOM     11  C   UNL     1      -5.955   1.914  -2.755  0.00  0.00    +0.002 A 
ATOM     12  C   UNL     1      -6.976   0.998  -2.943  0.00  0.00    +0.001 A 
ATOM     13  C   UNL     1      -6.787  -0.338  -2.652  0.00  0.00    +0.010 A 
ATOM     14  C   UNL     1      -5.712  -3.316  -2.081  0.00  0.00    +0.059 C 
ATOM     15  C   UNL     1      -5.764  -4.572  -1.507  0.00  0.00    +0.059 C 
ATOM     16  C   UNL     1      -5.122  -5.271  -0.375  0.00  0.00    +0.013 A 
ATOM     17  C   UNL     1      -3.956  -5.051   0.282  0.00  0.00    +0.095 A 
ATOM     18  N   UNL     1      -3.748  -6.017   1.221  0.00  0.00    -0.345 N 
ATOM     19  C   UNL     1      -4.811  -6.903   1.216  0.00  0.00    +0.050 A 
ATOM     20  C   UNL     1      -5.744  -6.459   0.264  0.00  0.00    +0.008 A 
ATOM     21  C   UNL     1      -6.968  -7.098   0.122  0.00  0.00    +0.010 A 
ATOM     22  C   UNL     1      -7.194  -8.248   0.853  0.00  0.00    +0.001 A 
ATOM     23  C   UNL     1      -6.247  -8.733   1.734  0.00  0.00    +0.002 A 
ATOM     24  C   UNL     1      -5.049  -8.075   1.938  0.00  0.00    +0.026 A 
ATOM     25  C   UNL     1      -2.637  -6.179   2.132  0.00  0.00    +0.137 C 
ATOM     26  C   UNL     1      -1.424  -5.309   1.783  0.00  0.00    +0.105 C 
ATOM     27  N   UNL     1      -0.283  -5.759   2.623  0.00  0.00    -0.301 NA
ATOM     28  C   UNL     1       0.609  -4.609   2.880  0.00  0.00    +0.112 C 
ATOM     29  C   UNL     1       0.842  -3.820   1.595  0.00  0.00    +0.175 C 
ATOM     30  O   UNL     1       1.567  -2.621   1.906  0.00  0.00    -0.380 OA
ATOM     31  C   UNL     1       1.588  -1.671   0.840  0.00  0.00    +0.141 C 
ATOM     32  C   UNL     1       0.718  -0.465   1.203  0.00  0.00    -0.051 C 
ATOM     33  C   UNL     1       0.488  -6.759   1.833  0.00  0.00    +0.105 C 
ATOM     34  C   UNL     1      -6.707  -5.357  -2.372  0.00  0.00    +0.252 C 
ATOM     35  O   UNL     1      -6.916  -6.551  -2.311  0.00  0.00    -0.270 OA
ATOM     36  N   UNL     1      -7.272  -4.550  -3.268  0.00  0.00    -0.248 N 
ATOM     37  C   UNL     1      -6.696  -3.352  -3.213  0.00  0.00    +0.252 C 
ATOM     38  O   UNL     1      -6.918  -2.456  -4.005  0.00  0.00    -0.270 OA
ATOM     39  H   UNL     1      -7.993  -4.796  -3.868  0.00  0.00    +0.158 HD
ATOM     40  H   UNL     1       0.495  -0.323  -0.820  0.00  0.00    -0.082 HD
ENDROOT
TORSDOF 0
