REMARK  Name = CHEMBL13259
REMARK  21 active torsions:
REMARK  status: ('A' for Active; 'I' for Inactive)
REMARK    1  A    between atoms: C_1  and  C_2
REMARK    2  A    between atoms: C_2  and  C_3
REMARK    3  A    between atoms: C_3  and  C_4
REMARK    4  A    between atoms: C_4  and  C_5
REMARK    5  A    between atoms: C_5  and  C_6
REMARK    6  A    between atoms: C_6  and  C_7
REMARK    7  A    between atoms: C_7  and  C_8
REMARK    8  A    between atoms: C_8  and  C_9
REMARK    9  A    between atoms: C_9  and  C_10
REMARK   10  A    between atoms: C_10  and  C_11
REMARK   11  A    between atoms: C_11  and  C_12
REMARK   12  A    between atoms: C_12  and  C_13
REMARK   13  A    between atoms: C_13  and  C_14
REMARK   14  A    between atoms: C_14  and  O_16
REMARK   15  A    between atoms: O_16  and  C_17
REMARK   16  A    between atoms: C_17  and  C_18
REMARK   17  A    between atoms: C_18  and  C_20
REMARK   18  A    between atoms: C_18  and  O_22
REMARK   19  A    between atoms: C_20  and  O_21
REMARK   20  A    between atoms: O_22  and  C_23
REMARK   21  A    between atoms: C_23  and  C_25
REMARK                            x       y       z     vdW  Elec       q    Type
REMARK                         _______ _______ _______ _____ _____    ______ ____
ROOT
ATOM      1  C   UNL     1      -8.507 -10.831   0.025  0.00  0.00    +0.120 C 
ENDROOT
BRANCH   1   2
ATOM      2  C   UNL     1      -8.486 -12.338   0.017  0.00  0.00    +0.307 C 
ATOM      3  O   UNL     1      -7.432 -12.927   0.004  0.00  0.00    -0.251 OA
BRANCH   2   4
ATOM      4  O   UNL     1      -9.639 -13.024   0.024  0.00  0.00    -0.461 OA
BRANCH   4   5
ATOM      5  C   UNL     1      -9.545 -14.450   0.016  0.00  0.00    +0.279 C 
BRANCH   5   6
ATOM      6  C   UNL     1     -10.951 -15.054   0.026  0.00  0.00    +0.239 C 
BRANCH   6   7
ATOM      7  O   UNL     1     -11.601 -14.726   1.255  0.00  0.00    -0.456 OA
BRANCH   7   8
ATOM      8  C   UNL     1     -12.505 -15.603   1.719  0.00  0.00    +0.304 C 
ATOM      9  O   UNL     1     -12.736 -16.616   1.103  0.00  0.00    -0.251 OA
ATOM     10  C   UNL     1     -13.232 -15.324   3.010  0.00  0.00    +0.136 C 
ENDBRANCH   7   8
ENDBRANCH   6   7
BRANCH   6  11
ATOM     11  C   UNL     1     -11.757 -14.489  -1.145  0.00  0.00    +0.203 C 
BRANCH  11  12
ATOM     12  O   UNL     1     -11.750 -13.062  -1.083  0.00  0.00    -0.391 OA
ATOM     13  H   UNL     1     -12.243 -12.634  -1.797  0.00  0.00    +0.210 HD
ENDBRANCH  11  12
ENDBRANCH   6  11
ENDBRANCH   5   6
ENDBRANCH   4   5
ENDBRANCH   2   4
ENDBRANCH   1   2
BRANCH   1  14
ATOM     14  C   UNL     1      -7.071 -10.301   0.014  0.00  0.00    +0.011 C 
BRANCH  14  15
ATOM     15  C   UNL     1      -7.092  -8.771   0.023  0.00  0.00    +0.001 C 
BRANCH  15  16
ATOM     16  C   UNL     1      -5.657  -8.242   0.012  0.00  0.00    +0.000 C 
BRANCH  16  17
ATOM     17  C   UNL     1      -5.677  -6.712   0.020  0.00  0.00    +0.000 C 
BRANCH  17  18
ATOM     18  C   UNL     1      -4.242  -6.182   0.009  0.00  0.00    +0.000 C 
BRANCH  18  19
ATOM     19  C   UNL     1      -4.263  -4.652   0.018  0.00  0.00    -0.000 C 
BRANCH  19  20
ATOM     20  C   UNL     1      -2.827  -4.123   0.007  0.00  0.00    -0.000 C 
BRANCH  20  21
ATOM     21  C   UNL     1      -2.848  -2.593   0.015  0.00  0.00    -0.000 C 
BRANCH  21  22
ATOM     22  C   UNL     1      -1.413  -2.063   0.004  0.00  0.00    -0.000 C 
BRANCH  22  23
ATOM     23  C   UNL     1      -1.433  -0.534   0.013  0.00  0.00    -0.000 C 
BRANCH  23  25
ATOM     24  C   UNL     1      -0.019   1.526   0.010  0.00  0.00    +0.004 C 
ATOM     25  C   UNL     1       0.002  -0.004   0.002  0.00  0.00    -0.003 C 
ENDBRANCH  23  25
ENDBRANCH  22  23
ENDBRANCH  21  22
ENDBRANCH  20  21
ENDBRANCH  19  20
ENDBRANCH  18  19
ENDBRANCH  17  18
ENDBRANCH  16  17
ENDBRANCH  15  16
ENDBRANCH  14  15
ENDBRANCH   1  14
TORSDOF 19
