REMARK  Name = CHEMBL113185
REMARK  11 active torsions:
REMARK  status: ('A' for Active; 'I' for Inactive)
REMARK    1  A    between atoms: C_1  and  O_2
REMARK    2  A    between atoms: O_2  and  C_3
REMARK    3  A    between atoms: C_5  and  N_13
REMARK    4  A    between atoms: C_7  and  O_11
REMARK    5  A    between atoms: C_8  and  O_9
REMARK    6  A    between atoms: O_9  and  C_10
REMARK    7  A    between atoms: O_11  and  C_12
REMARK    8  A    between atoms: C_18  and  C_20
REMARK    9  A    between atoms: N_26  and  C_27
REMARK   10  A    between atoms: C_27  and  C_28
REMARK   11  A    between atoms: C_28  and  N_29
REMARK                            x       y       z     vdW  Elec       q    Type
REMARK                         _______ _______ _______ _____ _____    ______ ____
ROOT
ATOM      1  N   UNL     1      -4.786   0.201   0.039  0.00  0.00    -0.283 N 
ATOM      2  C   UNL     1      -6.010  -0.440  -0.057  0.00  0.00    +0.220 A 
ATOM      3  N   UNL     1      -6.048  -1.765  -0.052  0.00  0.00    -0.223 NA
ATOM      4  C   UNL     1      -7.197  -2.415  -0.141  0.00  0.00    +0.116 A 
ATOM      5  C   UNL     1      -8.375  -1.696  -0.242  0.00  0.00    +0.048 A 
ATOM      6  C   UNL     1      -8.305  -0.300  -0.245  0.00  0.00    +0.077 A 
ATOM      7  N   UNL     1      -7.113   0.287  -0.146  0.00  0.00    -0.214 NA
ATOM      8  H   UNL     1      -4.750   1.167   0.121  0.00  0.00    +0.155 HD
ENDROOT
BRANCH   6   9
ATOM      9  C   UNL     1      -9.538   0.515  -0.351  0.00  0.00    +0.019 A 
ATOM     10  C   UNL     1      -9.460   1.909  -0.465  0.00  0.00    +0.015 A 
ATOM     11  C   UNL     1     -10.635   2.627  -0.561  0.00  0.00    +0.044 A 
ATOM     12  C   UNL     1     -11.851   1.946  -0.542  0.00  0.00    +0.119 A 
ATOM     13  N   UNL     1     -11.889   0.626  -0.433  0.00  0.00    -0.240 NA
ATOM     14  C   UNL     1     -10.790  -0.094  -0.345  0.00  0.00    +0.123 A 
ATOM     15  N   UNL     1     -13.036   2.660  -0.638  0.00  0.00    -0.331 N 
ATOM     16  H   UNL     1     -13.886   2.193  -0.625  0.00  0.00    +0.147 HD
BRANCH  15  17
ATOM     17  C   UNL     1     -13.005   4.120  -0.759  0.00  0.00    +0.083 C 
BRANCH  17  18
ATOM     18  C   UNL     1     -14.435   4.656  -0.848  0.00  0.00    -0.068 C 
BRANCH  18  19
ATOM     19  N   UNL     1     -14.403   6.119  -0.969  0.00  0.00    +0.379 N 
ATOM     20  H   UNL     1     -15.347   6.473  -1.027  0.00  0.00    -0.090 HD
ATOM     21  H   UNL     1     -13.946   6.514  -0.160  0.00  0.00    -0.090 HD
ATOM     22  H   UNL     1     -13.895   6.377  -1.802  0.00  0.00    -0.090 HD
ENDBRANCH  18  19
ENDBRANCH  17  18
ENDBRANCH  15  17
ENDBRANCH   6   9
BRANCH   1  25
ATOM     23  C   UNL     1      -2.352  -2.441  -0.768  0.00  0.00    +0.167 A 
ATOM     24  C   UNL     1      -3.525  -1.702  -0.746  0.00  0.00    +0.073 A 
ATOM     25  C   UNL     1      -3.602  -0.545   0.017  0.00  0.00    +0.041 A 
ATOM     26  C   UNL     1      -2.505  -0.127   0.758  0.00  0.00    +0.073 A 
ATOM     27  C   UNL     1      -1.332  -0.865   0.737  0.00  0.00    +0.167 A 
ATOM     28  C   UNL     1      -1.255  -2.026  -0.022  0.00  0.00    +0.204 A 
BRANCH  23  30
ATOM     29  C   UNL     1      -3.441  -3.941  -2.259  0.00  0.00    +0.277 C 
ATOM     30  O   UNL     1      -2.276  -3.574  -1.516  0.00  0.00    -0.491 OA
ENDBRANCH  23  30
BRANCH  28  31
ATOM     31  O   UNL     1      -0.105  -2.755  -0.040  0.00  0.00    -0.488 OA
ATOM     32  C   UNL     1       0.860  -2.420  -1.039  0.00  0.00    +0.277 C 
ENDBRANCH  28  31
BRANCH  27  33
ATOM     33  O   UNL     1      -0.257  -0.455   1.462  0.00  0.00    -0.491 OA
ATOM     34  C   UNL     1      -0.408   0.745   2.224  0.00  0.00    +0.277 C 
ENDBRANCH  27  33
ENDBRANCH   1  25
TORSDOF 8
