REMARK  Name = CHEMBL367162
REMARK  12 active torsions:
REMARK  status: ('A' for Active; 'I' for Inactive)
REMARK    1  A    between atoms: C_8  and  N_34
REMARK    2  A    between atoms: C_10  and  O_11
REMARK    3  A    between atoms: O_11  and  C_12
REMARK    4  A    between atoms: C_12  and  C_14
REMARK    5  A    between atoms: C_16  and  O_33
REMARK    6  A    between atoms: C_17  and  C_21
REMARK    7  A    between atoms: C_18  and  O_20
REMARK    8  A    between atoms: C_21  and  C_23
REMARK    9  A    between atoms: C_24  and  C_30
REMARK   10  A    between atoms: C_28  and  O_29
REMARK   11  A    between atoms: C_35  and  C_37
REMARK   12  A    between atoms: C_40  and  O_43
REMARK                            x       y       z     vdW  Elec       q    Type
REMARK                         _______ _______ _______ _____ _____    ______ ____
ROOT
ATOM      1  C   UNL     1       5.138  -0.025   1.580  0.00  0.00    +0.340 C 
ATOM      2  O   UNL     1       5.567   0.794   0.793  0.00  0.00    -0.245 OA
ENDROOT
BRANCH   1   3
ATOM      3  C   UNL     1       5.740  -0.143   2.927  0.00  0.00    +0.066 A 
ATOM      4  C   UNL     1       5.249  -1.088   3.828  0.00  0.00    +0.061 A 
ATOM      5  C   UNL     1       5.809  -1.202   5.088  0.00  0.00    +0.132 A 
ATOM      6  C   UNL     1       6.871  -0.364   5.460  0.00  0.00    +0.105 A 
ATOM      7  C   UNL     1       7.362   0.585   4.550  0.00  0.00    +0.132 A 
ATOM      8  C   UNL     1       6.800   0.688   3.290  0.00  0.00    +0.061 A 
BRANCH   7   9
ATOM      9  O   UNL     1       8.390   1.397   4.904  0.00  0.00    -0.506 OA
ATOM     10  H   UNL     1       9.258   1.076   4.627  0.00  0.00    +0.292 HD
ENDBRANCH   7   9
BRANCH   6  11
ATOM     11  C   UNL     1       7.470  -0.481   6.801  0.00  0.00    +0.204 C 
ATOM     12  O   UNL     1       6.979  -1.231   7.623  0.00  0.00    -0.286 OA
BRANCH  11  13
ATOM     13  C   UNL     1       8.665   0.312   7.147  0.00  0.00    +0.078 A 
ATOM     14  C   UNL     1       8.530   1.551   7.807  0.00  0.00    +0.077 A 
ATOM     15  C   UNL     1       9.665   2.288   8.128  0.00  0.00    +0.016 A 
ATOM     16  C   UNL     1      10.922   1.807   7.801  0.00  0.00    +0.004 A 
ATOM     17  C   UNL     1      11.062   0.595   7.154  0.00  0.00    +0.046 A 
ATOM     18  C   UNL     1       9.942  -0.162   6.829  0.00  0.00    +0.128 A 
BRANCH  14  19
ATOM     19  C   UNL     1       7.190   2.064   8.156  0.00  0.00    +0.387 C 
ATOM     20  O   UNL     1       7.079   3.090   8.812  0.00  0.00    -0.241 OA
ATOM     21  O   UNL     1       6.190   1.462   7.788  0.00  0.00    -0.241 OA
ENDBRANCH  14  19
BRANCH  18  22
ATOM     22  O   UNL     1      10.086  -1.354   6.199  0.00  0.00    -0.506 OA
ATOM     23  H   UNL     1      10.162  -1.284   5.237  0.00  0.00    +0.292 HD
ENDBRANCH  18  22
ENDBRANCH  11  13
ENDBRANCH   6  11
BRANCH   5  24
ATOM     24  O   UNL     1       5.330  -2.121   5.964  0.00  0.00    -0.506 OA
ATOM     25  H   UNL     1       5.767  -2.982   5.909  0.00  0.00    +0.292 HD
ENDBRANCH   5  24
ENDBRANCH   1   3
BRANCH   1  26
ATOM     26  O   UNL     1       4.114  -0.826   1.227  0.00  0.00    -0.451 OA
BRANCH  26  35
ATOM     27  C   UNL     1       0.067   1.759  -0.056  0.00  0.00    +0.000 A 
ATOM     28  C   UNL     1       1.274   2.431  -0.013  0.00  0.00    +0.000 A 
ATOM     29  C   UNL     1       2.458   1.721  -0.019  0.00  0.00    +0.007 A 
ATOM     30  C   UNL     1       2.442   0.337  -0.070  0.00  0.00    -0.002 A 
ATOM     31  C   UNL     1       1.235  -0.335  -0.113  0.00  0.00    -0.039 A 
ATOM     32  C   UNL     1       0.048   0.379  -0.106  0.00  0.00    +0.004 A 
ATOM     33  C   UNL     1       1.482  -1.827  -0.164  0.00  0.00    +0.061 C 
ATOM     34  C   UNL     1       2.958  -1.978  -0.587  0.00  0.00    +0.123 C 
ATOM     35  C   UNL     1       3.582  -0.657  -0.088  0.00  0.00    +0.228 C 
BRANCH  34  36
ATOM     36  N   UNL     1       3.074  -2.097  -2.042  0.00  0.00    -0.304 N 
ATOM     37  C   UNL     1       2.961  -3.304  -2.631  0.00  0.00    +0.244 C 
ATOM     38  O   UNL     1       2.764  -4.294  -1.954  0.00  0.00    -0.270 OA
ATOM     39  H   UNL     1       3.231  -1.306  -2.582  0.00  0.00    +0.149 HD
BRANCH  37  40
ATOM     40  C   UNL     1       3.078  -3.423  -4.098  0.00  0.00    +0.037 A 
ATOM     41  C   UNL     1       3.310  -2.287  -4.877  0.00  0.00    +0.016 A 
ATOM     42  C   UNL     1       3.418  -2.402  -6.245  0.00  0.00    +0.046 A 
ATOM     43  C   UNL     1       3.296  -3.647  -6.851  0.00  0.00    +0.117 A 
ATOM     44  C   UNL     1       3.065  -4.780  -6.079  0.00  0.00    +0.046 A 
ATOM     45  C   UNL     1       2.962  -4.674  -4.710  0.00  0.00    +0.016 A 
BRANCH  43  46
ATOM     46  O   UNL     1       3.402  -3.756  -8.199  0.00  0.00    -0.507 OA
ATOM     47  H   UNL     1       4.304  -3.912  -8.511  0.00  0.00    +0.292 HD
ENDBRANCH  43  46
ENDBRANCH  37  40
ENDBRANCH  34  36
ENDBRANCH  26  35
ENDBRANCH   1  26
TORSDOF 12
