REMARK  Name = CHEMBL91126
REMARK  11 active torsions:
REMARK  status: ('A' for Active; 'I' for Inactive)
REMARK    1  A    between atoms: C_3  and  O_39
REMARK    2  A    between atoms: C_6  and  C_7
REMARK    3  A    between atoms: N_9  and  C_10
REMARK    4  A    between atoms: C_14  and  O_15
REMARK    5  A    between atoms: O_15  and  C_16
REMARK    6  A    between atoms: C_16  and  C_18
REMARK    7  A    between atoms: C_20  and  O_38
REMARK    8  A    between atoms: C_21  and  C_25
REMARK    9  A    between atoms: C_22  and  O_24
REMARK   10  A    between atoms: C_25  and  C_27
REMARK   11  A    between atoms: C_28  and  O_37
REMARK                            x       y       z     vdW  Elec       q    Type
REMARK                         _______ _______ _______ _____ _____    ______ ____
ROOT
ATOM      1  C   UNL     1      -0.010  -5.321   3.362  0.00  0.00    +0.066 A 
ATOM      2  C   UNL     1       1.052  -4.464   3.074  0.00  0.00    +0.061 A 
ATOM      3  C   UNL     1       2.193  -4.485   3.858  0.00  0.00    +0.132 A 
ATOM      4  C   UNL     1       2.279  -5.369   4.944  0.00  0.00    +0.105 A 
ATOM      5  C   UNL     1       1.208  -6.229   5.230  0.00  0.00    +0.132 A 
ATOM      6  C   UNL     1       0.069  -6.198   4.444  0.00  0.00    +0.061 A 
ENDROOT
BRANCH   1   7
ATOM      7  C   UNL     1      -1.227  -5.296   2.521  0.00  0.00    +0.340 C 
ATOM      8  O   UNL     1      -2.155  -6.037   2.773  0.00  0.00    -0.245 OA
BRANCH   7   9
ATOM      9  O   UNL     1      -1.306  -4.450   1.476  0.00  0.00    -0.455 OA
BRANCH   9  14
ATOM     10  C   UNL     1      -2.802  -3.090   0.095  0.00  0.00    +0.129 C 
ATOM     11  C   UNL     1      -3.328  -3.377  -1.323  0.00  0.00    +0.107 C 
ATOM     12  N   UNL     1      -3.358  -4.847  -1.485  0.00  0.00    -0.311 NA
ATOM     13  C   UNL     1      -2.341  -5.379  -0.543  0.00  0.00    +0.127 C 
ATOM     14  C   UNL     1      -2.510  -4.479   0.707  0.00  0.00    +0.212 C 
ATOM     15  H   UNL     1      -4.274  -5.215  -1.274  0.00  0.00    +0.122 HD
BRANCH  10  18
ATOM     16  C   UNL     1      -1.642  -0.948   0.022  0.00  0.00    +0.244 C 
ATOM     17  O   UNL     1      -2.723  -0.394   0.068  0.00  0.00    -0.270 OA
ATOM     18  N   UNL     1      -1.573  -2.294   0.030  0.00  0.00    -0.304 N 
ATOM     19  H   UNL     1      -0.711  -2.736  -0.007  0.00  0.00    +0.149 HD
BRANCH  16  25
ATOM     20  C   UNL     1      -0.473   1.249  -0.052  0.00  0.00    +0.016 A 
ATOM     21  C   UNL     1       0.684   1.993  -0.113  0.00  0.00    +0.046 A 
ATOM     22  C   UNL     1       1.920   1.358  -0.165  0.00  0.00    +0.117 A 
ATOM     23  C   UNL     1       1.992  -0.030  -0.157  0.00  0.00    +0.046 A 
ATOM     24  C   UNL     1       0.840  -0.782  -0.096  0.00  0.00    +0.016 A 
ATOM     25  C   UNL     1      -0.404  -0.147  -0.044  0.00  0.00    +0.037 A 
BRANCH  22  26
ATOM     26  O   UNL     1       3.058   2.094  -0.225  0.00  0.00    -0.507 OA
ATOM     27  H   UNL     1       3.429   2.316   0.640  0.00  0.00    +0.292 HD
ENDBRANCH  22  26
ENDBRANCH  16  25
ENDBRANCH  10  18
ENDBRANCH   9  14
ENDBRANCH   7   9
ENDBRANCH   1   7
BRANCH   5  28
ATOM     28  O   UNL     1       1.286  -7.085   6.279  0.00  0.00    -0.506 OA
ATOM     29  H   UNL     1       0.885  -6.749   7.093  0.00  0.00    +0.292 HD
ENDBRANCH   5  28
BRANCH   4  30
ATOM     30  C   UNL     1       3.492  -5.395   5.781  0.00  0.00    +0.204 C 
ATOM     31  O   UNL     1       4.458  -4.725   5.473  0.00  0.00    -0.286 OA
BRANCH  30  32
ATOM     32  C   UNL     1       3.533  -6.234   6.994  0.00  0.00    +0.067 A 
ATOM     33  C   UNL     1       3.023  -5.742   8.201  0.00  0.00    +0.128 A 
ATOM     34  C   UNL     1       3.068  -6.539   9.335  0.00  0.00    +0.046 A 
ATOM     35  C   UNL     1       3.614  -7.802   9.265  0.00  0.00    +0.007 A 
ATOM     36  C   UNL     1       4.124  -8.298   8.067  0.00  0.00    -0.043 A 
ATOM     37  C   UNL     1       4.078  -7.527   6.933  0.00  0.00    -0.030 A 
ATOM     38  C   UNL     1       4.590  -8.008   5.601  0.00  0.00    +0.036 C 
ATOM     39  C   UNL     1       5.515  -9.210   5.783  0.00  0.00    +0.005 C 
ATOM     40  C   UNL     1       4.795 -10.245   6.657  0.00  0.00    +0.005 C 
ATOM     41  C   UNL     1       4.710  -9.686   8.080  0.00  0.00    +0.035 C 
BRANCH  33  42
ATOM     42  O   UNL     1       2.491  -4.496   8.262  0.00  0.00    -0.506 OA
ATOM     43  H   UNL     1       1.560  -4.453   8.005  0.00  0.00    +0.292 HD
ENDBRANCH  33  42
ENDBRANCH  30  32
ENDBRANCH   4  30
BRANCH   3  44
ATOM     44  O   UNL     1       3.226  -3.652   3.577  0.00  0.00    -0.506 OA
ATOM     45  H   UNL     1       3.174  -2.796   4.023  0.00  0.00    +0.292 HD
ENDBRANCH   3  44
TORSDOF 11
