REMARK  Name = CHEMBL350059
REMARK  7 active torsions:
REMARK  status: ('A' for Active; 'I' for Inactive)
REMARK    1  A    between atoms: C_10  and  C_11
REMARK    2  A    between atoms: C_12  and  C_27
REMARK    3  A    between atoms: N_19  and  C_20
REMARK    4  A    between atoms: C_20  and  C_21
REMARK    5  A    between atoms: C_21  and  C_22
REMARK    6  A    between atoms: C_22  and  S_23
REMARK    7  A    between atoms: S_23  and  C_24
REMARK                            x       y       z     vdW  Elec       q    Type
REMARK                         _______ _______ _______ _____ _____    ______ ____
ROOT
ATOM      1  C   UNL     1       4.983   0.089  -0.045  0.00  0.00    +0.059 A 
ATOM      2  C   UNL     1       5.699   0.485   1.087  0.00  0.00    +0.020 A 
ATOM      3  C   UNL     1       6.896   1.187   0.592  0.00  0.00    +0.008 A 
ATOM      4  C   UNL     1       7.977   1.803   1.220  0.00  0.00    +0.010 A 
ATOM      5  C   UNL     1       8.966   2.388   0.458  0.00  0.00    +0.001 A 
ATOM      6  C   UNL     1       8.887   2.366  -0.926  0.00  0.00    +0.002 A 
ATOM      7  C   UNL     1       7.823   1.760  -1.560  0.00  0.00    +0.026 A 
ATOM      8  C   UNL     1       6.815   1.163  -0.810  0.00  0.00    +0.050 A 
ATOM      9  N   UNL     1       5.660   0.492  -1.162  0.00  0.00    -0.339 N 
ENDROOT
BRANCH   1  19
ATOM     10  C   UNL     1      -0.016   1.358   0.009  0.00  0.00    +0.001 A 
ATOM     11  C   UNL     1       1.167   2.091   0.002  0.00  0.00    +0.001 A 
ATOM     12  C   UNL     1       2.379   1.465  -0.013  0.00  0.00    +0.009 A 
ATOM     13  C   UNL     1       2.435   0.067  -0.021  0.00  0.00    -0.009 A 
ATOM     14  C   UNL     1       1.233  -0.682  -0.013  0.00  0.00    -0.017 A 
ATOM     15  C   UNL     1       0.002  -0.004   0.002  0.00  0.00    +0.008 A 
ATOM     16  C   UNL     1       1.294  -2.086  -0.020  0.00  0.00    +0.008 A 
ATOM     17  C   UNL     1       2.494  -2.730  -0.034  0.00  0.00    +0.001 A 
ATOM     18  C   UNL     1       3.696  -2.039  -0.042  0.00  0.00    +0.010 A 
ATOM     19  C   UNL     1       3.712  -0.647  -0.036  0.00  0.00    +0.007 A 
ENDBRANCH   1  19
BRANCH   2  20
ATOM     20  C   UNL     1       5.333   0.251   2.484  0.00  0.00    +0.052 C 
ATOM     21  C   UNL     1       5.681  -0.832   3.268  0.00  0.00    +0.081 C 
ATOM     22  C   UNL     1       5.106  -0.628   4.542  0.00  0.00    +0.244 C 
ATOM     23  O   UNL     1       5.210  -1.390   5.485  0.00  0.00    -0.270 OA
ATOM     24  N   UNL     1       4.427   0.530   4.561  0.00  0.00    -0.249 N 
ATOM     25  C   UNL     1       4.514   1.134   3.360  0.00  0.00    +0.251 C 
ATOM     26  O   UNL     1       4.017   2.197   3.049  0.00  0.00    -0.270 OA
ATOM     27  H   UNL     1       3.948   0.883   5.327  0.00  0.00    +0.158 HD
ENDBRANCH   2  20
BRANCH   9  28
ATOM     28  C   UNL     1       5.219   0.251  -2.538  0.00  0.00    +0.123 C 
BRANCH  28  29
ATOM     29  C   UNL     1       4.343   1.415  -3.005  0.00  0.00    +0.033 C 
BRANCH  29  30
ATOM     30  C   UNL     1       3.883   1.163  -4.442  0.00  0.00    +0.079 C 
BRANCH  30  31
ATOM     31  S   UNL     1       2.844   2.543  -4.996  0.00  0.00    -0.093 S 
BRANCH  31  32
ATOM     32  C   UNL     1       2.401   2.109  -6.645  0.00  0.00    +0.123 C 
ATOM     33  N   UNL     1       1.238   2.517  -7.152  0.00  0.00    -0.382 N 
ATOM     34  N   UNL     1       3.229   1.373  -7.386  0.00  0.00    -0.340 N 
ATOM     35  H   UNL     1       0.635   3.053  -6.613  0.00  0.00    +0.158 HD
ATOM     36  H   UNL     1       4.076   1.076  -7.016  0.00  0.00    +0.144 HD
ATOM     37  H   UNL     1       2.986   1.133  -8.293  0.00  0.00    +0.144 HD
ATOM     38  H   UNL     1       0.994   2.278  -8.060  0.00  0.00    +0.158 HD
ENDBRANCH  31  32
ENDBRANCH  30  31
ENDBRANCH  29  30
ENDBRANCH  28  29
ENDBRANCH   9  28
TORSDOF 7
