REMARK  Name = CHEMBL59687
REMARK  10 active torsions:
REMARK  status: ('A' for Active; 'I' for Inactive)
REMARK    1  A    between atoms: C_3  and  C_40
REMARK    2  A    between atoms: C_4  and  C_8
REMARK    3  A    between atoms: C_5  and  O_7
REMARK    4  A    between atoms: C_8  and  C_10
REMARK    5  A    between atoms: C_11  and  O_39
REMARK    6  A    between atoms: C_13  and  C_17
REMARK    7  A    between atoms: N_19  and  C_20
REMARK    8  A    between atoms: C_27  and  N_29
REMARK    9  A    between atoms: C_30  and  C_32
REMARK   10  A    between atoms: C_35  and  O_38
REMARK                            x       y       z     vdW  Elec       q    Type
REMARK                         _______ _______ _______ _____ _____    ______ ____
ROOT
ATOM      1  C   UNL     1       3.512  -6.394   0.804  0.00  0.00    +0.245 C 
ATOM      2  O   UNL     1       4.541  -7.036   0.888  0.00  0.00    -0.270 OA
ATOM      3  N   UNL     1       2.322  -7.026   0.807  0.00  0.00    -0.307 N 
ATOM      4  H   UNL     1       1.501  -6.513   0.740  0.00  0.00    +0.149 HD
ENDROOT
BRANCH   3   5
ATOM      5  C   UNL     1       2.268  -8.486   0.910  0.00  0.00    +0.092 C 
ATOM      6  C   UNL     1       2.447  -9.103  -0.499  0.00  0.00    +0.022 C 
ATOM      7  C   UNL     1       2.784 -10.563  -0.352  0.00  0.00    -0.017 C 
ATOM      8  C   UNL     1       1.549 -11.482  -0.366  0.00  0.00    -0.082 C 
ATOM      9  N   UNL     1       0.416 -10.963   0.430  0.00  0.00    +0.380 N 
ATOM     10  C   UNL     1       0.853 -10.397   1.683  0.00  0.00    -0.058 C 
ATOM     11  C   UNL     1       0.990  -8.878   1.492  0.00  0.00    +0.076 C 
ATOM     12  H   UNL     1      -0.060 -10.251  -0.103  0.00  0.00    -0.086 HD
ATOM     13  H   UNL     1      -0.227 -11.717   0.617  0.00  0.00    -0.086 HD
BRANCH  11  14
ATOM     14  N   UNL     1       0.846  -8.225   2.796  0.00  0.00    -0.309 N 
ATOM     15  C   UNL     1      -0.381  -7.999   3.304  0.00  0.00    +0.244 C 
ATOM     16  O   UNL     1      -1.369  -8.336   2.682  0.00  0.00    -0.270 OA
ATOM     17  H   UNL     1       1.634  -7.956   3.293  0.00  0.00    +0.149 HD
BRANCH  15  18
ATOM     18  C   UNL     1      -0.526  -7.341   4.618  0.00  0.00    +0.037 A 
ATOM     19  C   UNL     1       0.608  -6.947   5.333  0.00  0.00    +0.016 A 
ATOM     20  C   UNL     1       0.469  -6.334   6.558  0.00  0.00    +0.046 A 
ATOM     21  C   UNL     1      -0.798  -6.107   7.083  0.00  0.00    +0.117 A 
ATOM     22  C   UNL     1      -1.928  -6.497   6.375  0.00  0.00    +0.046 A 
ATOM     23  C   UNL     1      -1.798  -7.106   5.147  0.00  0.00    +0.016 A 
BRANCH  21  24
ATOM     24  O   UNL     1      -0.931  -5.503   8.291  0.00  0.00    -0.507 OA
ATOM     25  H   UNL     1      -0.992  -4.539   8.245  0.00  0.00    +0.292 HD
ENDBRANCH  21  24
ENDBRANCH  15  18
ENDBRANCH  11  14
ENDBRANCH   3   5
BRANCH   1  29
ATOM     26  C   UNL     1       3.670  -2.144   0.502  0.00  0.00    +0.110 A 
ATOM     27  C   UNL     1       4.856  -2.887   0.599  0.00  0.00    +0.132 A 
ATOM     28  C   UNL     1       4.800  -4.266   0.697  0.00  0.00    +0.059 A 
ATOM     29  C   UNL     1       3.567  -4.918   0.700  0.00  0.00    +0.044 A 
ATOM     30  C   UNL     1       2.385  -4.184   0.603  0.00  0.00    +0.064 A 
ATOM     31  C   UNL     1       2.432  -2.803   0.511  0.00  0.00    +0.194 A 
ATOM     32  O   UNL     1       1.281  -2.090   0.423  0.00  0.00    -0.287 OA
BRANCH  26  33
ATOM     33  C   UNL     1       3.724  -0.675   0.397  0.00  0.00    +0.205 C 
ATOM     34  O   UNL     1       4.791  -0.098   0.492  0.00  0.00    -0.286 OA
BRANCH  33  38
ATOM     35  C   UNL     1       0.147   1.548  -0.239  0.00  0.00    +0.004 A 
ATOM     36  C   UNL     1       0.825   1.021  -1.325  0.00  0.00    +0.016 A 
ATOM     37  C   UNL     1       1.995   0.293  -1.132  0.00  0.00    +0.077 A 
ATOM     38  C   UNL     1       2.485   0.095   0.176  0.00  0.00    +0.078 A 
ATOM     39  C   UNL     1       1.788   0.635   1.261  0.00  0.00    +0.128 A 
ATOM     40  C   UNL     1       0.621   1.359   1.043  0.00  0.00    +0.046 A 
BRANCH  37  41
ATOM     41  C   UNL     1       2.718  -0.271  -2.289  0.00  0.00    +0.387 C 
ATOM     42  O   UNL     1       2.239  -0.184  -3.410  0.00  0.00    -0.241 OA
ATOM     43  O   UNL     1       3.797  -0.823  -2.126  0.00  0.00    -0.241 OA
ENDBRANCH  37  41
BRANCH  39  44
ATOM     44  O   UNL     1       2.249   0.452   2.524  0.00  0.00    -0.506 OA
ATOM     45  H   UNL     1       2.795   1.180   2.852  0.00  0.00    +0.292 HD
ENDBRANCH  39  44
ENDBRANCH  33  38
ENDBRANCH  26  33
BRANCH  27  46
ATOM     46  O   UNL     1       6.056  -2.255   0.596  0.00  0.00    -0.506 OA
ATOM     47  H   UNL     1       6.373  -2.007   1.476  0.00  0.00    +0.292 HD
ENDBRANCH  27  46
ENDBRANCH   1  29
TORSDOF 10
