REMARK  Name = CHEMBL48988
REMARK  12 active torsions:
REMARK  status: ('A' for Active; 'I' for Inactive)
REMARK    1  A    between atoms: C_3  and  C_34
REMARK    2  A    between atoms: C_4  and  C_8
REMARK    3  A    between atoms: C_5  and  O_7
REMARK    4  A    between atoms: C_8  and  C_10
REMARK    5  A    between atoms: C_11  and  O_33
REMARK    6  A    between atoms: C_13  and  C_17
REMARK    7  A    between atoms: C_15  and  O_16
REMARK    8  A    between atoms: C_17  and  O_19
REMARK    9  A    between atoms: O_19  and  C_20
REMARK   10  A    between atoms: C_24  and  O_25
REMARK   11  A    between atoms: O_25  and  C_26
REMARK   12  A    between atoms: C_29  and  O_32
REMARK                            x       y       z     vdW  Elec       q    Type
REMARK                         _______ _______ _______ _____ _____    ______ ____
ROOT
ATOM      1  C   UNL     1       5.239  -1.397   1.164  0.00  0.00    +0.105 A 
ATOM      2  C   UNL     1       3.935  -1.910   1.225  0.00  0.00    +0.132 A 
ATOM      3  C   UNL     1       3.690  -3.219   0.847  0.00  0.00    +0.061 A 
ATOM      4  C   UNL     1       4.739  -4.028   0.408  0.00  0.00    +0.066 A 
ATOM      5  C   UNL     1       6.037  -3.522   0.347  0.00  0.00    +0.061 A 
ATOM      6  C   UNL     1       6.290  -2.212   0.716  0.00  0.00    +0.132 A 
ENDROOT
BRANCH   1   7
ATOM      7  C   UNL     1       5.505  -0.004   1.565  0.00  0.00    +0.204 C 
ATOM      8  O   UNL     1       6.648   0.407   1.618  0.00  0.00    -0.286 OA
BRANCH   7  12
ATOM      9  C   UNL     1       2.265   2.585   2.539  0.00  0.00    +0.004 A 
ATOM     10  C   UNL     1       2.701   2.501   1.228  0.00  0.00    +0.016 A 
ATOM     11  C   UNL     1       3.758   1.660   0.896  0.00  0.00    +0.077 A 
ATOM     12  C   UNL     1       4.382   0.894   1.902  0.00  0.00    +0.078 A 
ATOM     13  C   UNL     1       3.929   0.991   3.221  0.00  0.00    +0.128 A 
ATOM     14  C   UNL     1       2.871   1.839   3.529  0.00  0.00    +0.046 A 
BRANCH  11  15
ATOM     15  C   UNL     1       4.223   1.569  -0.503  0.00  0.00    +0.387 C 
ATOM     16  O   UNL     1       3.641   2.187  -1.382  0.00  0.00    -0.241 OA
ATOM     17  O   UNL     1       5.191   0.875  -0.781  0.00  0.00    -0.241 OA
ENDBRANCH  11  15
BRANCH  13  18
ATOM     18  O   UNL     1       4.521   0.259   4.199  0.00  0.00    -0.506 OA
ATOM     19  H   UNL     1       5.212   0.733   4.681  0.00  0.00    +0.292 HD
ENDBRANCH  13  18
ENDBRANCH   7  12
ENDBRANCH   1   7
BRANCH   6  20
ATOM     20  O   UNL     1       7.552  -1.719   0.650  0.00  0.00    -0.506 OA
ATOM     21  H   UNL     1       8.065  -1.843   1.460  0.00  0.00    +0.292 HD
ENDBRANCH   6  20
BRANCH   4  22
ATOM     22  C   UNL     1       4.472  -5.427   0.006  0.00  0.00    +0.340 C 
ATOM     23  O   UNL     1       3.343  -5.869   0.059  0.00  0.00    -0.245 OA
BRANCH  22  24
ATOM     24  O   UNL     1       5.483  -6.209  -0.419  0.00  0.00    -0.454 OA
BRANCH  24  25
ATOM     25  C   UNL     1       5.154  -7.549  -0.791  0.00  0.00    +0.217 C 
ATOM     26  C   UNL     1       5.335  -8.492   0.416  0.00  0.00    +0.048 C 
ATOM     27  C   UNL     1       5.895  -9.797  -0.202  0.00  0.00    +0.007 C 
ATOM     28  C   UNL     1       6.849  -9.271  -1.304  0.00  0.00    +0.048 C 
ATOM     29  C   UNL     1       6.116  -8.044  -1.884  0.00  0.00    +0.214 C 
BRANCH  29  30
ATOM     30  O   UNL     1       7.058  -7.019  -2.208  0.00  0.00    -0.485 OA
BRANCH  30  31
ATOM     31  C   UNL     1       7.653  -7.090  -3.429  0.00  0.00    +0.121 A 
ATOM     32  C   UNL     1       7.413  -8.179  -4.254  0.00  0.00    +0.049 A 
ATOM     33  C   UNL     1       8.018  -8.251  -5.494  0.00  0.00    +0.049 A 
ATOM     34  C   UNL     1       8.863  -7.235  -5.914  0.00  0.00    +0.117 A 
ATOM     35  C   UNL     1       9.102  -6.146  -5.089  0.00  0.00    +0.049 A 
ATOM     36  C   UNL     1       8.495  -6.072  -3.850  0.00  0.00    +0.049 A 
BRANCH  34  37
ATOM     37  O   UNL     1       9.459  -7.307  -7.135  0.00  0.00    -0.507 OA
ATOM     38  H   UNL     1       8.944  -6.904  -7.847  0.00  0.00    +0.292 HD
ENDBRANCH  34  37
ENDBRANCH  30  31
ENDBRANCH  29  30
ENDBRANCH  24  25
ENDBRANCH  22  24
ENDBRANCH   4  22
BRANCH   2  39
ATOM     39  O   UNL     1       2.915  -1.125   1.653  0.00  0.00    -0.506 OA
ATOM     40  H   UNL     1       2.430  -0.687   0.940  0.00  0.00    +0.292 HD
ENDBRANCH   2  39
TORSDOF 12
