REMARK  Name = CHEMBL359808
REMARK  9 active torsions:
REMARK  status: ('A' for Active; 'I' for Inactive)
REMARK    1  A    between atoms: C_1  and  N_2
REMARK    2  A    between atoms: N_2  and  C_3
REMARK    3  A    between atoms: N_2  and  C_4
REMARK    4  A    between atoms: C_4  and  C_5
REMARK    5  A    between atoms: C_5  and  C_6
REMARK    6  A    between atoms: C_6  and  N_7
REMARK    7  A    between atoms: C_14  and  C_16
REMARK    8  A    between atoms: C_17  and  C_23
REMARK    9  A    between atoms: N_25  and  C_32
REMARK                            x       y       z     vdW  Elec       q    Type
REMARK                         _______ _______ _______ _____ _____    ______ ____
ROOT
ATOM      1  C   UNL     1      -5.147  -0.852  -5.994  0.00  0.00    +0.077 C 
ATOM      2  C   UNL     1      -4.632  -1.998  -6.591  0.00  0.00    +0.060 C 
ATOM      3  C   UNL     1      -5.181  -2.024  -7.966  0.00  0.00    +0.252 C 
ATOM      4  O   UNL     1      -4.960  -2.876  -8.802  0.00  0.00    -0.270 OA
ATOM      5  N   UNL     1      -5.966  -0.945  -8.133  0.00  0.00    -0.248 N 
ATOM      6  C   UNL     1      -6.000  -0.208  -7.010  0.00  0.00    +0.253 C 
ATOM      7  O   UNL     1      -6.628   0.821  -6.858  0.00  0.00    -0.270 OA
ATOM      8  H   UNL     1      -6.444  -0.731  -8.949  0.00  0.00    +0.158 HD
ENDROOT
BRANCH   1  16
ATOM      9  N   UNL     1      -3.994  -0.090  -2.610  0.00  0.00    -0.263 N 
ATOM     10  C   UNL     1      -5.093   0.731  -2.615  0.00  0.00    +0.070 A 
ATOM     11  C   UNL     1      -5.649   1.598  -1.677  0.00  0.00    +0.028 A 
ATOM     12  C   UNL     1      -6.790   2.303  -1.989  0.00  0.00    +0.002 A 
ATOM     13  C   UNL     1      -7.393   2.157  -3.232  0.00  0.00    +0.001 A 
ATOM     14  C   UNL     1      -6.864   1.312  -4.166  0.00  0.00    +0.012 A 
ATOM     15  C   UNL     1      -5.708   0.588  -3.872  0.00  0.00    +0.028 A 
ATOM     16  C   UNL     1      -4.895  -0.380  -4.620  0.00  0.00    +0.106 A 
ATOM     17  N   UNL     1      -3.900  -0.745  -3.842  0.00  0.00    -0.170 NA
BRANCH   9  18
ATOM     18  C   UNL     1      -3.061  -0.250  -1.492  0.00  0.00    +0.142 C 
BRANCH  18  19
ATOM     19  C   UNL     1      -1.933   0.776  -1.617  0.00  0.00    +0.005 C 
BRANCH  19  20
ATOM     20  C   UNL     1      -0.959   0.609  -0.449  0.00  0.00    -0.078 C 
BRANCH  20  22
ATOM     21  C   UNL     1      -0.428   2.948  -0.425  0.00  0.00    -0.097 C 
ATOM     22  N   UNL     1       0.123   1.594  -0.570  0.00  0.00    +0.376 N 
ATOM     23  C   UNL     1       1.121   1.356   0.482  0.00  0.00    -0.097 C 
ATOM     24  H   UNL     1       0.561   1.504  -1.474  0.00  0.00    -0.083 HD
ENDBRANCH  20  22
ENDBRANCH  19  20
ENDBRANCH  18  19
ENDBRANCH   9  18
ENDBRANCH   1  16
BRANCH   2  25
ATOM     25  C   UNL     1      -3.728  -2.982  -5.981  0.00  0.00    +0.013 A 
ATOM     26  C   UNL     1      -4.060  -3.938  -5.062  0.00  0.00    +0.101 A 
ATOM     27  N   UNL     1      -2.955  -4.661  -4.734  0.00  0.00    -0.313 N 
ATOM     28  C   UNL     1      -1.855  -4.199  -5.432  0.00  0.00    +0.054 A 
ATOM     29  C   UNL     1      -2.286  -3.138  -6.245  0.00  0.00    +0.008 A 
ATOM     30  C   UNL     1      -1.379  -2.480  -7.072  0.00  0.00    +0.010 A 
ATOM     31  C   UNL     1      -0.059  -2.877  -7.091  0.00  0.00    +0.001 A 
ATOM     32  C   UNL     1       0.366  -3.927  -6.291  0.00  0.00    +0.002 A 
ATOM     33  C   UNL     1      -0.519  -4.582  -5.461  0.00  0.00    +0.027 A 
BRANCH  27  34
ATOM     34  C   UNL     1      -2.935  -5.718  -3.822  0.00  0.00    +0.072 A 
ATOM     35  C   UNL     1      -3.626  -6.885  -4.078  0.00  0.00    +0.137 A 
ATOM     36  N   UNL     1      -3.618  -7.897  -3.224  0.00  0.00    -0.261 NA
ATOM     37  C   UNL     1      -2.961  -7.866  -2.088  0.00  0.00    +0.119 A 
ATOM     38  C   UNL     1      -2.225  -6.726  -1.729  0.00  0.00    +0.002 A 
ATOM     39  C   UNL     1      -2.203  -5.621  -2.618  0.00  0.00    +0.009 A 
ATOM     40  C   UNL     1      -1.470  -4.476  -2.281  0.00  0.00    +0.010 A 
ATOM     41  C   UNL     1      -0.783  -4.441  -1.105  0.00  0.00    +0.001 A 
ATOM     42  C   UNL     1      -0.799  -5.527  -0.232  0.00  0.00    +0.001 A 
ATOM     43  C   UNL     1      -1.509  -6.652  -0.523  0.00  0.00    +0.010 A 
ENDBRANCH  27  34
ENDBRANCH   2  25
TORSDOF 7
