REMARK  Name = CHEMBL48988
REMARK  12 active torsions:
REMARK  status: ('A' for Active; 'I' for Inactive)
REMARK    1  A    between atoms: C_3  and  C_34
REMARK    2  A    between atoms: C_4  and  C_8
REMARK    3  A    between atoms: C_5  and  O_7
REMARK    4  A    between atoms: C_8  and  C_10
REMARK    5  A    between atoms: C_11  and  O_33
REMARK    6  A    between atoms: C_13  and  C_17
REMARK    7  A    between atoms: C_15  and  O_16
REMARK    8  A    between atoms: C_17  and  O_19
REMARK    9  A    between atoms: O_19  and  C_20
REMARK   10  A    between atoms: C_24  and  O_25
REMARK   11  A    between atoms: O_25  and  C_26
REMARK   12  A    between atoms: C_29  and  O_32
REMARK                            x       y       z     vdW  Elec       q    Type
REMARK                         _______ _______ _______ _____ _____    ______ ____
ROOT
ATOM      1  C   UNL     1       2.236  -2.988  -0.141  0.00  0.00    +0.105 A 
ATOM      2  C   UNL     1       1.296  -4.023  -0.256  0.00  0.00    +0.132 A 
ATOM      3  C   UNL     1       1.722  -5.322  -0.472  0.00  0.00    +0.061 A 
ATOM      4  C   UNL     1       3.085  -5.603  -0.574  0.00  0.00    +0.066 A 
ATOM      5  C   UNL     1       4.023  -4.577  -0.461  0.00  0.00    +0.061 A 
ATOM      6  C   UNL     1       3.606  -3.275  -0.252  0.00  0.00    +0.132 A 
ENDROOT
BRANCH   1   7
ATOM      7  C   UNL     1       1.787  -1.603   0.088  0.00  0.00    +0.204 C 
ATOM      8  O   UNL     1       2.603  -0.726   0.298  0.00  0.00    -0.286 OA
BRANCH   7  12
ATOM      9  C   UNL     1      -2.369  -0.674   0.020  0.00  0.00    +0.004 A 
ATOM     10  C   UNL     1      -1.639  -0.623  -1.155  0.00  0.00    +0.016 A 
ATOM     11  C   UNL     1      -0.281  -0.924  -1.147  0.00  0.00    +0.077 A 
ATOM     12  C   UNL     1       0.347  -1.281   0.064  0.00  0.00    +0.078 A 
ATOM     13  C   UNL     1      -0.405  -1.327   1.242  0.00  0.00    +0.128 A 
ATOM     14  C   UNL     1      -1.761  -1.023   1.209  0.00  0.00    +0.046 A 
BRANCH  11  15
ATOM     15  C   UNL     1       0.499  -0.871  -2.400  0.00  0.00    +0.387 C 
ATOM     16  O   UNL     1      -0.061  -0.621  -3.458  0.00  0.00    -0.241 OA
ATOM     17  O   UNL     1       1.704  -1.077  -2.379  0.00  0.00    -0.241 OA
ENDBRANCH  11  15
BRANCH  13  18
ATOM     18  O   UNL     1       0.187  -1.669   2.414  0.00  0.00    -0.506 OA
ATOM     19  H   UNL     1       0.478  -0.914   2.943  0.00  0.00    +0.292 HD
ENDBRANCH  13  18
ENDBRANCH   7  12
ENDBRANCH   1   7
BRANCH   6  20
ATOM     20  O   UNL     1       4.519  -2.277  -0.147  0.00  0.00    -0.506 OA
ATOM     21  H   UNL     1       4.827  -2.118   0.756  0.00  0.00    +0.292 HD
ENDBRANCH   6  20
BRANCH   4  22
ATOM     22  C   UNL     1       3.535  -6.993  -0.805  0.00  0.00    +0.340 C 
ATOM     23  O   UNL     1       2.720  -7.888  -0.904  0.00  0.00    -0.245 OA
BRANCH  22  24
ATOM     24  O   UNL     1       4.851  -7.267  -0.904  0.00  0.00    -0.454 OA
BRANCH  24  25
ATOM     25  C   UNL     1       5.214  -8.631  -1.126  0.00  0.00    +0.217 C 
ATOM     26  C   UNL     1       5.355  -8.901  -2.639  0.00  0.00    +0.048 C 
ATOM     27  C   UNL     1       6.870  -8.734  -2.915  0.00  0.00    +0.007 C 
ATOM     28  C   UNL     1       7.518  -9.353  -1.652  0.00  0.00    +0.048 C 
ATOM     29  C   UNL     1       6.590  -8.919  -0.499  0.00  0.00    +0.214 C 
BRANCH  29  30
ATOM     30  O   UNL     1       6.479  -9.970   0.463  0.00  0.00    -0.485 OA
BRANCH  30  31
ATOM     31  C   UNL     1       7.440 -10.033   1.422  0.00  0.00    +0.121 A 
ATOM     32  C   UNL     1       8.523  -9.167   1.377  0.00  0.00    +0.049 A 
ATOM     33  C   UNL     1       9.500  -9.231   2.351  0.00  0.00    +0.049 A 
ATOM     34  C   UNL     1       9.398 -10.161   3.375  0.00  0.00    +0.117 A 
ATOM     35  C   UNL     1       8.315 -11.027   3.421  0.00  0.00    +0.049 A 
ATOM     36  C   UNL     1       7.336 -10.960   2.449  0.00  0.00    +0.049 A 
BRANCH  34  37
ATOM     37  O   UNL     1      10.361 -10.225   4.334  0.00  0.00    -0.507 OA
ATOM     38  H   UNL     1      10.192  -9.658   5.098  0.00  0.00    +0.292 HD
ENDBRANCH  34  37
ENDBRANCH  30  31
ENDBRANCH  29  30
ENDBRANCH  24  25
ENDBRANCH  22  24
ENDBRANCH   4  22
BRANCH   2  39
ATOM     39  O   UNL     1      -0.029  -3.751  -0.155  0.00  0.00    -0.506 OA
ATOM     40  H   UNL     1      -0.468  -3.611  -1.006  0.00  0.00    +0.292 HD
ENDBRANCH   2  39
TORSDOF 12
