REMARK  Name = CHEMBL291126
REMARK  2 active torsions:
REMARK  status: ('A' for Active; 'I' for Inactive)
REMARK    1  A    between atoms: C_24  and  C_29
REMARK    2  A    between atoms: C_29  and  O_30
REMARK                            x       y       z     vdW  Elec       q    Type
REMARK                         _______ _______ _______ _____ _____    ______ ____
ROOT
ATOM      1  C   UNL     1      -0.017   1.380   0.010  0.00  0.00    +0.001 A 
ATOM      2  C   UNL     1       1.149   2.125   0.003  0.00  0.00    +0.002 A 
ATOM      3  C   UNL     1       2.402   1.536  -0.005  0.00  0.00    +0.026 A 
ATOM      4  C   UNL     1       2.450   0.143  -0.010  0.00  0.00    +0.052 A 
ATOM      5  C   UNL     1       1.256  -0.618  -0.015  0.00  0.00    +0.008 A 
ATOM      6  C   UNL     1       0.002  -0.004   0.002  0.00  0.00    +0.010 A 
ATOM      7  C   UNL     1       1.650  -2.023  -0.059  0.00  0.00    +0.023 A 
ATOM      8  C   UNL     1       0.971  -3.250  -0.092  0.00  0.00    +0.060 A 
ATOM      9  C   UNL     1       1.689  -4.455  -0.203  0.00  0.00    +0.060 A 
ATOM     10  C   UNL     1       3.089  -4.440  -0.277  0.00  0.00    +0.023 A 
ATOM     11  C   UNL     1       4.130  -5.443  -0.486  0.00  0.00    +0.008 A 
ATOM     12  C   UNL     1       4.065  -6.824  -0.677  0.00  0.00    +0.010 A 
ATOM     13  C   UNL     1       5.267  -7.488  -0.856  0.00  0.00    +0.001 A 
ATOM     14  C   UNL     1       6.478  -6.819  -0.848  0.00  0.00    +0.002 A 
ATOM     15  C   UNL     1       6.564  -5.450  -0.656  0.00  0.00    +0.026 A 
ATOM     16  C   UNL     1       5.369  -4.757  -0.469  0.00  0.00    +0.052 A 
ATOM     17  N   UNL     1       5.134  -3.425  -0.234  0.00  0.00    -0.311 N 
ATOM     18  C   UNL     1       3.766  -3.216  -0.166  0.00  0.00    +0.077 A 
ATOM     19  C   UNL     1       3.053  -2.018  -0.065  0.00  0.00    +0.077 A 
ATOM     20  N   UNL     1       3.521  -0.716   0.008  0.00  0.00    -0.312 N 
ATOM     21  C   UNL     1       4.937  -0.362   0.153  0.00  0.00    +0.223 C 
ATOM     22  C   UNL     1       5.589  -0.316  -1.244  0.00  0.00    +0.064 C 
ATOM     23  C   UNL     1       6.374  -1.638  -1.364  0.00  0.00    +0.069 C 
ATOM     24  C   UNL     1       6.134  -2.372  -0.029  0.00  0.00    +0.228 C 
ATOM     25  O   UNL     1       5.628  -1.374   0.887  0.00  0.00    -0.333 OA
ATOM     26  C   UNL     1       0.677  -5.528  -0.213  0.00  0.00    +0.252 C 
ATOM     27  O   UNL     1       0.908  -6.718  -0.294  0.00  0.00    -0.270 OA
ATOM     28  N   UNL     1      -0.542  -4.969  -0.117  0.00  0.00    -0.248 N 
ATOM     29  C   UNL     1      -0.453  -3.630  -0.042  0.00  0.00    +0.252 C 
ATOM     30  O   UNL     1      -1.389  -2.861   0.052  0.00  0.00    -0.270 OA
ATOM     31  H   UNL     1      -1.375  -5.466  -0.104  0.00  0.00    +0.158 HD
ENDROOT
BRANCH  23  32
ATOM     32  C   UNL     1       5.840  -2.469  -2.533  0.00  0.00    +0.164 C 
BRANCH  32  33
ATOM     33  O   UNL     1       6.119  -1.796  -3.762  0.00  0.00    -0.395 OA
ATOM     34  H   UNL     1       5.808  -2.266  -4.548  0.00  0.00    +0.209 HD
ENDBRANCH  32  33
ENDBRANCH  23  32
TORSDOF 2
