REMARK  Name = CHEMBL148745
REMARK  14 active torsions:
REMARK  status: ('A' for Active; 'I' for Inactive)
REMARK    1  A    between atoms: C_1  and  C_2
REMARK    2  A    between atoms: C_2  and  C_3
REMARK    3  A    between atoms: C_2  and  O_12
REMARK    4  A    between atoms: C_3  and  C_4
REMARK    5  A    between atoms: C_4  and  C_5
REMARK    6  A    between atoms: C_8  and  O_11
REMARK    7  A    between atoms: O_12  and  C_13
REMARK    8  A    between atoms: C_13  and  C_15
REMARK    9  A    between atoms: C_17  and  O_34
REMARK   10  A    between atoms: C_18  and  C_22
REMARK   11  A    between atoms: C_19  and  O_21
REMARK   12  A    between atoms: C_22  and  C_24
REMARK   13  A    between atoms: C_25  and  C_31
REMARK   14  A    between atoms: C_29  and  O_30
REMARK                            x       y       z     vdW  Elec       q    Type
REMARK                         _______ _______ _______ _____ _____    ______ ____
ROOT
ATOM      1  C   UNL     1       0.492  -1.034  -3.584  0.00  0.00    +0.066 A 
ATOM      2  C   UNL     1       1.871  -1.248  -3.570  0.00  0.00    +0.061 A 
ATOM      3  C   UNL     1       2.514  -1.704  -4.707  0.00  0.00    +0.132 A 
ATOM      4  C   UNL     1       1.777  -1.952  -5.876  0.00  0.00    +0.105 A 
ATOM      5  C   UNL     1       0.391  -1.736  -5.885  0.00  0.00    +0.132 A 
ATOM      6  C   UNL     1      -0.245  -1.285  -4.741  0.00  0.00    +0.061 A 
ENDROOT
BRANCH   1   7
ATOM      7  C   UNL     1      -0.191  -0.546  -2.365  0.00  0.00    +0.340 C 
ATOM      8  O   UNL     1      -1.391  -0.364  -2.374  0.00  0.00    -0.245 OA
BRANCH   7   9
ATOM      9  O   UNL     1       0.519  -0.304  -1.247  0.00  0.00    -0.458 OA
BRANCH   9  11
ATOM     10  C   UNL     1      -0.255   1.695  -0.129  0.00  0.00    +0.052 C 
ATOM     11  C   UNL     1      -0.205   0.166  -0.108  0.00  0.00    +0.174 C 
BRANCH  11  12
ATOM     12  C   UNL     1       0.493  -0.304   1.170  0.00  0.00    +0.049 C 
BRANCH  12  13
ATOM     13  C   UNL     1       0.432  -1.831   1.252  0.00  0.00    +0.039 C 
BRANCH  13  14
ATOM     14  C   UNL     1       1.120  -2.294   2.511  0.00  0.00    -0.047 A 
ATOM     15  C   UNL     1       2.474  -2.574   2.494  0.00  0.00    +0.007 A 
ATOM     16  C   UNL     1       3.107  -2.998   3.646  0.00  0.00    +0.045 A 
ATOM     17  C   UNL     1       2.383  -3.143   4.821  0.00  0.00    +0.117 A 
ATOM     18  C   UNL     1       1.025  -2.861   4.835  0.00  0.00    +0.045 A 
ATOM     19  C   UNL     1       0.398  -2.432   3.682  0.00  0.00    +0.007 A 
BRANCH  17  20
ATOM     20  O   UNL     1       3.003  -3.562   5.955  0.00  0.00    -0.507 OA
ATOM     21  H   UNL     1       3.360  -2.844   6.497  0.00  0.00    +0.292 HD
ENDBRANCH  17  20
ENDBRANCH  13  14
ENDBRANCH  12  13
ENDBRANCH  11  12
ENDBRANCH   9  11
ENDBRANCH   7   9
ENDBRANCH   1   7
BRANCH   5  22
ATOM     22  O   UNL     1      -0.326  -1.974  -7.012  0.00  0.00    -0.506 OA
ATOM     23  H   UNL     1      -0.732  -2.851  -7.042  0.00  0.00    +0.292 HD
ENDBRANCH   5  22
BRANCH   4  24
ATOM     24  C   UNL     1       2.458  -2.437  -7.089  0.00  0.00    +0.204 C 
ATOM     25  O   UNL     1       3.671  -2.525  -7.112  0.00  0.00    -0.286 OA
BRANCH  24  26
ATOM     26  C   UNL     1       1.668  -2.815  -8.277  0.00  0.00    +0.078 A 
ATOM     27  C   UNL     1       1.452  -1.883  -9.314  0.00  0.00    +0.077 A 
ATOM     28  C   UNL     1       0.706  -2.253 -10.428  0.00  0.00    +0.016 A 
ATOM     29  C   UNL     1       0.178  -3.530 -10.518  0.00  0.00    +0.004 A 
ATOM     30  C   UNL     1       0.384  -4.447  -9.507  0.00  0.00    +0.046 A 
ATOM     31  C   UNL     1       1.132  -4.102  -8.386  0.00  0.00    +0.128 A 
BRANCH  27  32
ATOM     32  C   UNL     1       2.016  -0.522  -9.217  0.00  0.00    +0.387 C 
ATOM     33  O   UNL     1       1.910   0.252 -10.157  0.00  0.00    -0.241 OA
ATOM     34  O   UNL     1       2.588  -0.168  -8.195  0.00  0.00    -0.241 OA
ENDBRANCH  27  32
BRANCH  31  35
ATOM     35  O   UNL     1       1.336  -5.009  -7.399  0.00  0.00    -0.506 OA
ATOM     36  H   UNL     1       0.620  -5.052  -6.751  0.00  0.00    +0.292 HD
ENDBRANCH  31  35
ENDBRANCH  24  26
ENDBRANCH   4  24
BRANCH   3  37
ATOM     37  O   UNL     1       3.855  -1.910  -4.693  0.00  0.00    -0.506 OA
ATOM     38  H   UNL     1       4.112  -2.804  -4.429  0.00  0.00    +0.292 HD
ENDBRANCH   3  37
TORSDOF 13
