REMARK  Name = CHEMBL131193
REMARK  7 active torsions:
REMARK  status: ('A' for Active; 'I' for Inactive)
REMARK    1  A    between atoms: C_1  and  C_2
REMARK    2  A    between atoms: C_3  and  O_44
REMARK    3  A    between atoms: C_5  and  N_35
REMARK    4  A    between atoms: N_35  and  C_36
REMARK    5  A    between atoms: N_35  and  C_37
REMARK    6  A    between atoms: C_37  and  C_38
REMARK    7  A    between atoms: O_44  and  C_45
REMARK                            x       y       z     vdW  Elec       q    Type
REMARK                         _______ _______ _______ _____ _____    ______ ____
ROOT
ATOM      1  C   UNL     1       0.735   1.308   0.003  0.00  0.00    +0.069 C 
ATOM      2  C   UNL     1       0.420  -0.189  -0.015  0.00  0.00    +0.174 C 
ATOM      3  C   UNL     1      -1.097  -0.326  -0.043  0.00  0.00    +0.188 C 
ATOM      4  C   UNL     1      -1.482  -1.782   0.243  0.00  0.00    +0.094 C 
ATOM      5  C   UNL     1      -0.937  -2.156   1.626  0.00  0.00    +0.076 C 
ATOM      6  C   UNL     1       0.579  -1.996   1.633  0.00  0.00    +0.224 C 
ATOM      7  O   UNL     1       0.992  -0.747   1.146  0.00  0.00    -0.328 OA
ATOM      8  N   UNL     1       1.216  -3.102   0.917  0.00  0.00    -0.311 N 
ATOM      9  C   UNL     1       1.524  -4.335   1.435  0.00  0.00    +0.052 A 
ATOM     10  C   UNL     1       1.334  -4.858   2.714  0.00  0.00    +0.026 A 
ATOM     11  C   UNL     1       1.759  -6.158   2.933  0.00  0.00    +0.002 A 
ATOM     12  C   UNL     1       2.347  -6.920   1.938  0.00  0.00    +0.001 A 
ATOM     13  C   UNL     1       2.547  -6.425   0.661  0.00  0.00    +0.010 A 
ATOM     14  C   UNL     1       2.126  -5.115   0.420  0.00  0.00    +0.008 A 
ATOM     15  C   UNL     1       2.178  -4.280  -0.776  0.00  0.00    +0.022 A 
ATOM     16  C   UNL     1       1.612  -3.054  -0.416  0.00  0.00    +0.077 A 
ATOM     17  C   UNL     1       1.523  -2.020  -1.355  0.00  0.00    +0.077 A 
ATOM     18  N   UNL     1       0.999  -0.735  -1.243  0.00  0.00    -0.307 N 
ATOM     19  C   UNL     1       1.130  -0.076  -2.442  0.00  0.00    +0.053 A 
ATOM     20  C   UNL     1       0.774   1.221  -2.808  0.00  0.00    +0.026 A 
ATOM     21  C   UNL     1       1.039   1.603  -4.112  0.00  0.00    +0.002 A 
ATOM     22  C   UNL     1       1.629   0.749  -5.026  0.00  0.00    +0.001 A 
ATOM     23  C   UNL     1       1.991  -0.545  -4.687  0.00  0.00    +0.010 A 
ATOM     24  C   UNL     1       1.733  -0.947  -3.377  0.00  0.00    +0.008 A 
ATOM     25  C   UNL     1       1.999  -2.215  -2.661  0.00  0.00    +0.015 A 
ATOM     26  C   UNL     1       2.553  -3.439  -3.020  0.00  0.00    -0.008 A 
ATOM     27  C   UNL     1       2.648  -4.474  -2.095  0.00  0.00    +0.052 A 
ATOM     28  C   UNL     1       3.267  -5.633  -2.758  0.00  0.00    +0.245 C 
ATOM     29  O   UNL     1       3.490  -6.702  -2.222  0.00  0.00    -0.270 OA
ATOM     30  N   UNL     1       3.552  -5.344  -4.039  0.00  0.00    -0.307 N 
ATOM     31  C   UNL     1       3.136  -3.963  -4.310  0.00  0.00    +0.141 C 
ATOM     32  H   UNL     1       3.963  -5.947  -4.678  0.00  0.00    +0.149 HD
ENDROOT
BRANCH   4  33
ATOM     33  N   UNL     1      -0.894  -2.660  -0.777  0.00  0.00    -0.295 NA
ATOM     34  C   UNL     1      -0.975  -2.047  -2.109  0.00  0.00    +0.105 C 
BRANCH  33  35
ATOM     35  C   UNL     1      -1.534  -3.983  -0.766  0.00  0.00    +0.119 C 
BRANCH  35  36
ATOM     36  C   UNL     1      -0.895  -4.859  -1.812  0.00  0.00    -0.033 A 
ATOM     37  C   UNL     1      -1.239  -4.710  -3.143  0.00  0.00    +0.005 A 
ATOM     38  C   UNL     1      -0.653  -5.514  -4.102  0.00  0.00    +0.000 A 
ATOM     39  C   UNL     1       0.278  -6.466  -3.731  0.00  0.00    +0.000 A 
ATOM     40  C   UNL     1       0.622  -6.615  -2.401  0.00  0.00    +0.000 A 
ATOM     41  C   UNL     1       0.039  -5.808  -1.442  0.00  0.00    +0.005 A 
ENDBRANCH  35  36
ENDBRANCH  33  35
ENDBRANCH   4  33
BRANCH   3  42
ATOM     42  O   UNL     1      -1.586   0.052  -1.331  0.00  0.00    -0.373 OA
ATOM     43  C   UNL     1      -2.902   0.609  -1.313  0.00  0.00    +0.194 C 
ENDBRANCH   3  42
TORSDOF 4
