REMARK  Name = CHEMBL335012
REMARK  6 active torsions:
REMARK  status: ('A' for Active; 'I' for Inactive)
REMARK    1  A    between atoms: C_1  and  C_2
REMARK    2  A    between atoms: C_3  and  O_45
REMARK    3  A    between atoms: C_5  and  N_35
REMARK    4  A    between atoms: N_35  and  C_36
REMARK    5  A    between atoms: C_37  and  C_39
REMARK    6  A    between atoms: O_45  and  C_46
REMARK                            x       y       z     vdW  Elec       q    Type
REMARK                         _______ _______ _______ _____ _____    ______ ____
ROOT
ATOM      1  C   UNL     1      -2.402   1.397  -0.588  0.00  0.00    +0.069 C 
ATOM      2  C   UNL     1      -1.525   0.149  -0.474  0.00  0.00    +0.174 C 
ATOM      3  C   UNL     1      -2.420  -0.984   0.014  0.00  0.00    +0.191 C 
ATOM      4  C   UNL     1      -1.550  -2.173   0.437  0.00  0.00    +0.114 C 
ATOM      5  C   UNL     1      -0.618  -1.706   1.560  0.00  0.00    +0.080 C 
ATOM      6  C   UNL     1       0.254  -0.565   1.052  0.00  0.00    +0.224 C 
ATOM      7  O   UNL     1      -0.490   0.450   0.434  0.00  0.00    -0.328 OA
ATOM      8  N   UNL     1       1.314  -1.076   0.182  0.00  0.00    -0.311 N 
ATOM      9  C   UNL     1       2.524  -1.583   0.585  0.00  0.00    +0.052 A 
ATOM     10  C   UNL     1       3.063  -1.745   1.861  0.00  0.00    +0.026 A 
ATOM     11  C   UNL     1       4.331  -2.294   1.945  0.00  0.00    +0.002 A 
ATOM     12  C   UNL     1       5.047  -2.673   0.823  0.00  0.00    +0.001 A 
ATOM     13  C   UNL     1       4.536  -2.523  -0.455  0.00  0.00    +0.010 A 
ATOM     14  C   UNL     1       3.258  -1.970  -0.561  0.00  0.00    +0.008 A 
ATOM     15  C   UNL     1       2.421  -1.665  -1.717  0.00  0.00    +0.022 A 
ATOM     16  C   UNL     1       1.243  -1.115  -1.208  0.00  0.00    +0.077 A 
ATOM     17  C   UNL     1       0.227  -0.704  -2.078  0.00  0.00    +0.077 A 
ATOM     18  N   UNL     1      -1.022  -0.148  -1.817  0.00  0.00    -0.307 N 
ATOM     19  C   UNL     1      -1.681   0.088  -3.000  0.00  0.00    +0.053 A 
ATOM     20  C   UNL     1      -2.935   0.645  -3.245  0.00  0.00    +0.026 A 
ATOM     21  C   UNL     1      -3.329   0.755  -4.568  0.00  0.00    +0.002 A 
ATOM     22  C   UNL     1      -2.526   0.334  -5.614  0.00  0.00    +0.001 A 
ATOM     23  C   UNL     1      -1.276  -0.223  -5.396  0.00  0.00    +0.010 A 
ATOM     24  C   UNL     1      -0.863  -0.340  -4.069  0.00  0.00    +0.008 A 
ATOM     25  C   UNL     1       0.389  -0.848  -3.465  0.00  0.00    +0.015 A 
ATOM     26  C   UNL     1       1.559  -1.406  -3.970  0.00  0.00    -0.008 A 
ATOM     27  C   UNL     1       2.577  -1.817  -3.115  0.00  0.00    +0.052 A 
ATOM     28  C   UNL     1       3.674  -2.362  -3.929  0.00  0.00    +0.245 C 
ATOM     29  O   UNL     1       4.713  -2.809  -3.482  0.00  0.00    -0.270 OA
ATOM     30  N   UNL     1       3.366  -2.298  -5.235  0.00  0.00    -0.307 N 
ATOM     31  C   UNL     1       2.033  -1.700  -5.372  0.00  0.00    +0.141 C 
ATOM     32  H   UNL     1       3.930  -2.596  -5.965  0.00  0.00    +0.149 HD
ENDROOT
BRANCH   4  33
ATOM     33  N   UNL     1      -0.758  -2.637  -0.704  0.00  0.00    -0.295 N 
ATOM     34  C   UNL     1       0.586  -3.181  -0.490  0.00  0.00    +0.132 C 
ATOM     35  C   UNL     1      -1.264  -2.564  -1.951  0.00  0.00    +0.248 C 
ATOM     36  O   UNL     1      -2.330  -2.011  -2.143  0.00  0.00    -0.270 OA
BRANCH  35  37
ATOM     37  C   UNL     1      -0.524  -3.156  -3.086  0.00  0.00    +0.055 A 
ATOM     38  C   UNL     1      -0.927  -2.911  -4.404  0.00  0.00    +0.016 A 
ATOM     39  C   UNL     1      -0.200  -3.488  -5.430  0.00  0.00    +0.020 A 
ATOM     40  C   UNL     1       0.890  -4.282  -5.124  0.00  0.00    +0.111 A 
ATOM     41  N   UNL     1       1.247  -4.496  -3.872  0.00  0.00    -0.263 NA
ATOM     42  C   UNL     1       0.591  -3.964  -2.861  0.00  0.00    +0.123 A 
ENDBRANCH  35  37
ENDBRANCH   4  33
BRANCH   3  43
ATOM     43  O   UNL     1      -3.297  -1.385  -1.040  0.00  0.00    -0.373 OA
ATOM     44  C   UNL     1      -4.555  -1.891  -0.588  0.00  0.00    +0.194 C 
ENDBRANCH   3  43
TORSDOF 3
