REMARK  Name = CHEMBL186290
REMARK  3 active torsions:
REMARK  status: ('A' for Active; 'I' for Inactive)
REMARK    1  A    between atoms: C_1  and  C_2
REMARK    2  A    between atoms: C_8  and  C_23
REMARK    3  A    between atoms: C_24  and  C_30
REMARK                            x       y       z     vdW  Elec       q    Type
REMARK                         _______ _______ _______ _____ _____    ______ ____
ROOT
ATOM      1  C   UNL     1      -0.269   2.836  -1.164  0.00  0.00    +0.044 C 
ATOM      2  C   UNL     1      -0.354   1.375  -0.804  0.00  0.00    -0.049 A 
ATOM      3  C   UNL     1      -0.033   0.415  -1.756  0.00  0.00    +0.010 A 
ATOM      4  C   UNL     1      -0.078  -0.923  -1.431  0.00  0.00    -0.006 A 
ATOM      5  C   UNL     1      -0.406  -1.297  -0.141  0.00  0.00    +0.054 A 
ATOM      6  C   UNL     1      -0.792  -0.342   0.807  0.00  0.00    +0.008 A 
ATOM      7  C   UNL     1      -0.745   1.009   0.466  0.00  0.00    +0.014 A 
ATOM      8  C   UNL     1      -1.190  -1.105   2.001  0.00  0.00    +0.013 A 
ATOM      9  C   UNL     1      -0.945  -2.420   1.726  0.00  0.00    +0.095 A 
ATOM     10  N   UNL     1      -0.401  -2.535   0.486  0.00  0.00    -0.344 N 
ATOM     11  C   UNL     1       0.192  -3.728  -0.135  0.00  0.00    +0.141 C 
ATOM     12  C   UNL     1      -0.618  -4.144  -1.352  0.00  0.00    +0.131 C 
ATOM     13  N   UNL     1      -0.828  -3.050  -2.298  0.00  0.00    -0.279 N 
ATOM     14  C   UNL     1       0.166  -1.983  -2.480  0.00  0.00    +0.146 C 
ATOM     15  C   UNL     1      -1.964  -3.019  -3.023  0.00  0.00    +0.305 C 
ATOM     16  O   UNL     1      -2.278  -2.006  -3.618  0.00  0.00    -0.252 OA
ATOM     17  N   UNL     1      -2.752  -4.110  -3.088  0.00  0.00    -0.285 N 
ATOM     18  C   UNL     1      -4.138  -4.005  -3.565  0.00  0.00    +0.109 C 
ATOM     19  C   UNL     1      -4.345  -5.012  -4.701  0.00  0.00    +0.019 C 
ATOM     20  C   UNL     1      -3.951  -6.410  -4.217  0.00  0.00    +0.003 C 
ATOM     21  C   UNL     1      -2.471  -6.418  -3.828  0.00  0.00    +0.019 C 
ATOM     22  C   UNL     1      -2.240  -5.428  -2.688  0.00  0.00    +0.109 C 
ENDROOT
BRANCH   8  23
ATOM     23  C   UNL     1      -1.745  -0.557   3.252  0.00  0.00    +0.060 C 
ATOM     24  C   UNL     1      -1.080  -0.403   4.469  0.00  0.00    +0.075 C 
ATOM     25  C   UNL     1      -2.067   0.187   5.400  0.00  0.00    +0.253 C 
ATOM     26  O   UNL     1      -1.864   0.471   6.564  0.00  0.00    -0.270 OA
ATOM     27  N   UNL     1      -3.226   0.356   4.742  0.00  0.00    -0.248 N 
ATOM     28  C   UNL     1      -3.111  -0.054   3.468  0.00  0.00    +0.252 C 
ATOM     29  O   UNL     1      -3.993  -0.020   2.631  0.00  0.00    -0.270 OA
ATOM     30  H   UNL     1      -4.033   0.728   5.131  0.00  0.00    +0.158 HD
BRANCH  24  31
ATOM     31  C   UNL     1       0.309  -0.754   4.764  0.00  0.00    +0.079 A 
ATOM     32  C   UNL     1       1.442  -0.271   4.124  0.00  0.00    +0.140 A 
ATOM     33  N   UNL     1       2.504  -0.831   4.684  0.00  0.00    -0.235 NA
ATOM     34  C   UNL     1       2.119  -1.654   5.657  0.00  0.00    +0.138 A 
ATOM     35  N   UNL     1       0.752  -1.626   5.739  0.00  0.00    -0.299 N 
ATOM     36  C   UNL     1       0.097  -2.380   6.664  0.00  0.00    +0.093 A 
ATOM     37  C   UNL     1       0.784  -3.168   7.522  0.00  0.00    +0.018 A 
ATOM     38  C   UNL     1       2.184  -3.216   7.467  0.00  0.00    +0.005 A 
ATOM     39  C   UNL     1       2.849  -2.471   6.538  0.00  0.00    +0.047 A 
ENDBRANCH  24  31
ENDBRANCH   8  23
TORSDOF 2
