REMARK  Name = CHEMBL285613
REMARK  5 active torsions:
REMARK  status: ('A' for Active; 'I' for Inactive)
REMARK    1  A    between atoms: N_22  and  C_24
REMARK    2  A    between atoms: C_24  and  C_25
REMARK    3  A    between atoms: C_24  and  C_27
REMARK    4  A    between atoms: C_25  and  O_26
REMARK    5  A    between atoms: C_27  and  O_28
REMARK                            x       y       z     vdW  Elec       q    Type
REMARK                         _______ _______ _______ _____ _____    ______ ____
ROOT
ATOM      1  C   UNL     1      -0.106   1.556  -1.543  0.00  0.00    +0.001 A 
ATOM      2  C   UNL     1       1.059   2.291  -1.411  0.00  0.00    +0.002 A 
ATOM      3  C   UNL     1       2.278   1.698  -1.127  0.00  0.00    +0.026 A 
ATOM      4  C   UNL     1       2.290   0.312  -0.977  0.00  0.00    +0.051 A 
ATOM      5  C   UNL     1       1.099  -0.437  -1.111  0.00  0.00    +0.008 A 
ATOM      6  C   UNL     1      -0.121   0.179  -1.397  0.00  0.00    +0.010 A 
ATOM      7  C   UNL     1       1.457  -1.836  -0.894  0.00  0.00    +0.023 A 
ATOM      8  C   UNL     1       0.738  -3.040  -0.889  0.00  0.00    +0.060 A 
ATOM      9  C   UNL     1       1.399  -4.254  -0.637  0.00  0.00    +0.060 A 
ATOM     10  C   UNL     1       2.779  -4.265  -0.390  0.00  0.00    +0.023 A 
ATOM     11  C   UNL     1       3.753  -5.314  -0.097  0.00  0.00    +0.008 A 
ATOM     12  C   UNL     1       3.622  -6.698   0.030  0.00  0.00    +0.010 A 
ATOM     13  C   UNL     1       4.774  -7.410   0.319  0.00  0.00    +0.001 A 
ATOM     14  C   UNL     1       5.999  -6.784   0.474  0.00  0.00    +0.002 A 
ATOM     15  C   UNL     1       6.149  -5.413   0.351  0.00  0.00    +0.026 A 
ATOM     16  C   UNL     1       5.003  -4.673   0.059  0.00  0.00    +0.051 A 
ATOM     17  N   UNL     1       4.835  -3.322  -0.128  0.00  0.00    -0.324 N 
ATOM     18  C   UNL     1       3.499  -3.058  -0.397  0.00  0.00    +0.076 A 
ATOM     19  C   UNL     1       2.841  -1.849  -0.648  0.00  0.00    +0.076 A 
ATOM     20  N   UNL     1       3.326  -0.549  -0.703  0.00  0.00    -0.324 N 
ATOM     21  C   UNL     1       4.725  -0.173  -0.508  0.00  0.00    +0.211 C 
ATOM     22  N   UNL     1       5.646  -1.193  -0.942  0.00  0.00    -0.260 NA
ATOM     23  C   UNL     1       5.888  -2.309  -0.065  0.00  0.00    +0.211 C 
ATOM     24  C   UNL     1       0.364  -5.301  -0.705  0.00  0.00    +0.252 C 
ATOM     25  O   UNL     1       0.547  -6.491  -0.541  0.00  0.00    -0.270 OA
ATOM     26  N   UNL     1      -0.817  -4.718  -0.978  0.00  0.00    -0.248 N 
ATOM     27  C   UNL     1      -0.678  -3.386  -1.101  0.00  0.00    +0.252 C 
ATOM     28  O   UNL     1      -1.572  -2.600  -1.347  0.00  0.00    -0.270 OA
ATOM     29  H   UNL     1      -1.657  -5.195  -1.074  0.00  0.00    +0.158 HD
ENDROOT
BRANCH  22  30
ATOM     30  C   UNL     1       6.909  -0.600  -1.401  0.00  0.00    +0.111 C 
BRANCH  30  31
ATOM     31  C   UNL     1       7.792  -1.691  -2.010  0.00  0.00    +0.177 C 
BRANCH  31  32
ATOM     32  O   UNL     1       7.129  -2.265  -3.138  0.00  0.00    -0.393 OA
ATOM     33  H   UNL     1       7.633  -2.965  -3.576  0.00  0.00    +0.209 HD
ENDBRANCH  31  32
ENDBRANCH  30  31
BRANCH  30  34
ATOM     34  C   UNL     1       6.618   0.469  -2.455  0.00  0.00    +0.177 C 
BRANCH  34  35
ATOM     35  O   UNL     1       5.975  -0.133  -3.580  0.00  0.00    -0.393 OA
ATOM     36  H   UNL     1       5.760   0.487  -4.289  0.00  0.00    +0.209 HD
ENDBRANCH  34  35
ENDBRANCH  30  34
ENDBRANCH  22  30
TORSDOF 5
