REMARK  Name = CHEMBL326688
REMARK  8 active torsions:
REMARK  status: ('A' for Active; 'I' for Inactive)
REMARK    1  A    between atoms: C_1  and  N_2
REMARK    2  A    between atoms: N_2  and  C_3
REMARK    3  A    between atoms: N_2  and  C_4
REMARK    4  A    between atoms: C_4  and  C_5
REMARK    5  A    between atoms: C_5  and  C_6
REMARK    6  A    between atoms: C_6  and  N_7
REMARK    7  A    between atoms: C_9  and  C_16
REMARK    8  A    between atoms: C_17  and  C_23
REMARK                            x       y       z     vdW  Elec       q    Type
REMARK                         _______ _______ _______ _____ _____    ______ ____
ROOT
ATOM      1  C   UNL     1      -0.812   1.954   7.718  0.00  0.00    +0.059 C 
ATOM      2  C   UNL     1      -1.344   3.232   7.582  0.00  0.00    +0.058 C 
ATOM      3  C   UNL     1      -1.194   3.881   8.899  0.00  0.00    +0.252 C 
ATOM      4  O   UNL     1      -1.546   5.010   9.176  0.00  0.00    -0.270 OA
ATOM      5  N   UNL     1      -0.606   3.015   9.742  0.00  0.00    -0.248 N 
ATOM      6  C   UNL     1      -0.352   1.850   9.123  0.00  0.00    +0.252 C 
ATOM      7  O   UNL     1       0.169   0.877   9.629  0.00  0.00    -0.270 OA
ATOM      8  H   UNL     1      -0.398   3.204  10.671  0.00  0.00    +0.158 HD
ENDROOT
BRANCH   2   9
ATOM      9  C   UNL     1      -1.937   3.819   6.369  0.00  0.00    -0.004 A 
ATOM     10  C   UNL     1      -3.209   3.445   5.947  0.00  0.00    +0.009 A 
ATOM     11  C   UNL     1      -3.765   4.000   4.804  0.00  0.00    +0.001 A 
ATOM     12  C   UNL     1      -3.098   4.922   4.056  0.00  0.00    +0.008 A 
ATOM     13  C   UNL     1      -1.810   5.348   4.422  0.00  0.00    -0.017 A 
ATOM     14  C   UNL     1      -1.205   4.813   5.586  0.00  0.00    -0.010 A 
ATOM     15  C   UNL     1       0.076   5.238   5.957  0.00  0.00    +0.009 A 
ATOM     16  C   UNL     1       0.724   6.167   5.198  0.00  0.00    +0.001 A 
ATOM     17  C   UNL     1       0.130   6.699   4.057  0.00  0.00    +0.001 A 
ATOM     18  C   UNL     1      -1.110   6.298   3.660  0.00  0.00    +0.008 A 
ENDBRANCH   2   9
BRANCH   1  21
ATOM     19  N   UNL     1      -0.082  -0.239   4.890  0.00  0.00    -0.331 N 
ATOM     20  C   UNL     1       0.148   0.875   5.633  0.00  0.00    +0.097 A 
ATOM     21  C   UNL     1      -0.728   0.917   6.682  0.00  0.00    +0.015 A 
ATOM     22  C   UNL     1      -1.571  -0.286   6.566  0.00  0.00    +0.027 A 
ATOM     23  C   UNL     1      -1.122  -0.968   5.421  0.00  0.00    +0.141 A 
ATOM     24  N   UNL     1      -1.708  -2.102   5.059  0.00  0.00    -0.237 NA
ATOM     25  C   UNL     1      -2.709  -2.613   5.744  0.00  0.00    +0.113 A 
ATOM     26  C   UNL     1      -3.203  -1.991   6.879  0.00  0.00    +0.020 A 
ATOM     27  C   UNL     1      -2.626  -0.809   7.309  0.00  0.00    +0.013 A 
BRANCH  19  28
ATOM     28  C   UNL     1       0.669  -0.610   3.687  0.00  0.00    +0.121 C 
BRANCH  28  29
ATOM     29  C   UNL     1      -0.071  -0.103   2.448  0.00  0.00    +0.003 C 
BRANCH  29  30
ATOM     30  C   UNL     1       0.713  -0.491   1.192  0.00  0.00    -0.078 C 
BRANCH  30  32
ATOM     31  C   UNL     1      -0.018   1.465   0.010  0.00  0.00    -0.097 C 
ATOM     32  N   UNL     1       0.002  -0.004   0.002  0.00  0.00    +0.376 N 
ATOM     33  C   UNL     1       0.690  -0.478  -1.207  0.00  0.00    -0.097 C 
ATOM     34  H   UNL     1      -0.945  -0.353   0.009  0.00  0.00    -0.083 HD
ENDBRANCH  30  32
ENDBRANCH  29  30
ENDBRANCH  28  29
ENDBRANCH  19  28
ENDBRANCH   1  21
TORSDOF 6
