REMARK  Name = CHEMBL431432
REMARK  7 active torsions:
REMARK  status: ('A' for Active; 'I' for Inactive)
REMARK    1  A    between atoms: C_1  and  N_2
REMARK    2  A    between atoms: C_6  and  C_7
REMARK    3  A    between atoms: C_7  and  C_8
REMARK    4  A    between atoms: C_8  and  N_9
REMARK    5  A    between atoms: C_10  and  C_12
REMARK    6  A    between atoms: C_12  and  C_13
REMARK    7  A    between atoms: C_13  and  N_14
REMARK                            x       y       z     vdW  Elec       q    Type
REMARK                         _______ _______ _______ _____ _____    ______ ____
ROOT
ATOM      1  N   UNL     1       4.881   7.046   2.169  0.00  0.00    -0.338 N 
ATOM      2  C   UNL     1       4.197   8.233   2.358  0.00  0.00    +0.050 A 
ATOM      3  C   UNL     1       2.975   8.697   1.882  0.00  0.00    +0.026 A 
ATOM      4  C   UNL     1       2.526   9.950   2.239  0.00  0.00    +0.002 A 
ATOM      5  C   UNL     1       3.283  10.760   3.071  0.00  0.00    +0.001 A 
ATOM      6  C   UNL     1       4.497  10.318   3.553  0.00  0.00    +0.010 A 
ATOM      7  C   UNL     1       4.961   9.053   3.200  0.00  0.00    +0.008 A 
ATOM      8  C   UNL     1       6.182   8.293   3.530  0.00  0.00    +0.015 A 
ATOM      9  C   UNL     1       6.071   7.060   2.868  0.00  0.00    +0.075 A 
ATOM     10  C   UNL     1       7.093   6.109   2.998  0.00  0.00    +0.073 A 
ATOM     11  C   UNL     1       8.208   6.395   3.787  0.00  0.00    +0.022 A 
ATOM     12  C   UNL     1       9.085   5.215   3.721  0.00  0.00    +0.008 A 
ATOM     13  C   UNL     1      10.320   4.904   4.288  0.00  0.00    +0.010 A 
ATOM     14  C   UNL     1      10.902   3.682   4.031  0.00  0.00    +0.001 A 
ATOM     15  C   UNL     1      10.265   2.763   3.211  0.00  0.00    +0.002 A 
ATOM     16  C   UNL     1       9.044   3.056   2.643  0.00  0.00    +0.026 A 
ATOM     17  C   UNL     1       8.438   4.285   2.891  0.00  0.00    +0.048 A 
ATOM     18  N   UNL     1       7.246   4.839   2.467  0.00  0.00    -0.352 N 
ATOM     19  H   UNL     1       6.608   4.401   1.882  0.00  0.00    +0.166 HD
ATOM     20  C   UNL     1       8.312   7.636   4.454  0.00  0.00    +0.052 A 
ATOM     21  C   UNL     1       7.296   8.576   4.310  0.00  0.00    -0.008 A 
ATOM     22  C   UNL     1       7.702   9.774   5.131  0.00  0.00    +0.141 C 
ATOM     23  N   UNL     1       9.006   9.444   5.719  0.00  0.00    -0.307 N 
ATOM     24  C   UNL     1       9.347   8.202   5.333  0.00  0.00    +0.245 C 
ATOM     25  O   UNL     1      10.373   7.634   5.652  0.00  0.00    -0.270 OA
ATOM     26  H   UNL     1       9.527  10.019   6.301  0.00  0.00    +0.149 HD
ENDROOT
BRANCH   1  27
ATOM     27  C   UNL     1       4.407   5.928   1.349  0.00  0.00    +0.131 C 
BRANCH  27  28
ATOM     28  C   UNL     1       3.574   4.979   2.212  0.00  0.00    +0.117 C 
BRANCH  28  30
ATOM     29  N   UNL     1       2.327   2.863   1.921  0.00  0.00    -0.315 N 
ATOM     30  C   UNL     1       3.086   3.830   1.368  0.00  0.00    +0.215 C 
ATOM     31  O   UNL     1       3.376   3.776   0.192  0.00  0.00    -0.276 OA
ATOM     32  H   UNL     1       2.095   2.906   2.861  0.00  0.00    +0.149 HD
BRANCH  29  33
ATOM     33  C   UNL     1       1.853   1.746   1.100  0.00  0.00    +0.102 C 
BRANCH  33  34
ATOM     34  C   UNL     1       1.019   0.796   1.964  0.00  0.00    +0.003 C 
BRANCH  34  40
ATOM     35  C   UNL     1      -0.481  -0.694   3.279  0.00  0.00    -0.096 C 
ATOM     36  N   UNL     1      -0.448  -1.177   1.892  0.00  0.00    +0.380 N 
ATOM     37  C   UNL     1       0.104  -2.548   1.856  0.00  0.00    -0.079 C 
ATOM     38  C   UNL     1       0.933  -2.607   0.548  0.00  0.00    -0.020 C 
ATOM     39  C   UNL     1       1.544  -1.181   0.501  0.00  0.00    -0.017 C 
ATOM     40  C   UNL     1       0.419  -0.300   1.082  0.00  0.00    -0.068 C 
ATOM     41  H   UNL     1      -1.381  -1.178   1.510  0.00  0.00    -0.082 HD
ENDBRANCH  34  40
ENDBRANCH  33  34
ENDBRANCH  29  33
ENDBRANCH  28  30
ENDBRANCH  27  28
ENDBRANCH   1  27
TORSDOF 6
