REMARK  Name = CHEMBL86680
REMARK  10 active torsions:
REMARK  status: ('A' for Active; 'I' for Inactive)
REMARK    1  A    between atoms: C_5  and  O_7
REMARK    2  A    between atoms: C_8  and  C_12
REMARK    3  A    between atoms: C_13  and  O_40
REMARK    4  A    between atoms: C_15  and  C_19
REMARK    5  A    between atoms: C_17  and  O_18
REMARK    6  A    between atoms: C_19  and  O_21
REMARK    7  A    between atoms: O_21  and  C_22
REMARK    8  A    between atoms: C_29  and  N_30
REMARK    9  A    between atoms: C_31  and  C_33
REMARK   10  A    between atoms: C_36  and  O_39
REMARK                            x       y       z     vdW  Elec       q    Type
REMARK                         _______ _______ _______ _____ _____    ______ ____
ROOT
ATOM      1  C   UNL     1       4.987  -3.446  -4.784  0.00  0.00    +0.340 C 
ATOM      2  O   UNL     1       5.086  -2.887  -5.858  0.00  0.00    -0.245 OA
ENDROOT
BRANCH   1   6
ATOM      3  C   UNL     1       4.147  -1.187  -1.279  0.00  0.00    +0.080 A 
ATOM      4  C   UNL     1       4.261  -0.546  -2.504  0.00  0.00    +0.128 A 
ATOM      5  C   UNL     1       4.534  -1.278  -3.648  0.00  0.00    +0.061 A 
ATOM      6  C   UNL     1       4.696  -2.661  -3.567  0.00  0.00    +0.066 A 
ATOM      7  C   UNL     1       4.581  -3.302  -2.332  0.00  0.00    +0.061 A 
ATOM      8  C   UNL     1       4.313  -2.562  -1.193  0.00  0.00    +0.128 A 
BRANCH   3  15
ATOM      9  C   UNL     1      -0.017   1.378   0.010  0.00  0.00    +0.004 A 
ATOM     10  C   UNL     1       1.165   2.093   0.002  0.00  0.00    +0.015 A 
ATOM     11  C   UNL     1       2.385   1.417  -0.013  0.00  0.00    +0.070 A 
ATOM     12  C   UNL     1       2.398   0.019  -0.021  0.00  0.00    +0.053 A 
ATOM     13  C   UNL     1       1.213  -0.687  -0.013  0.00  0.00    +0.125 A 
ATOM     14  C   UNL     1       0.002  -0.004   0.002  0.00  0.00    +0.046 A 
ATOM     15  C   UNL     1       3.850  -0.387  -0.037  0.00  0.00    +0.248 C 
ATOM     16  O   UNL     1       4.616   0.821  -0.038  0.00  0.00    -0.448 OA
ATOM     17  C   UNL     1       3.786   1.877  -0.024  0.00  0.00    +0.341 C 
ATOM     18  O   UNL     1       4.138   3.039  -0.021  0.00  0.00    -0.245 OA
BRANCH  13  19
ATOM     19  O   UNL     1       1.229  -2.046  -0.021  0.00  0.00    -0.506 OA
ATOM     20  H   UNL     1       1.242  -2.444   0.860  0.00  0.00    +0.292 HD
ENDBRANCH  13  19
ENDBRANCH   3  15
BRANCH   8  21
ATOM     21  O   UNL     1       4.207  -3.184   0.011  0.00  0.00    -0.506 OA
ATOM     22  H   UNL     1       3.310  -3.477   0.225  0.00  0.00    +0.292 HD
ENDBRANCH   8  21
BRANCH   4  23
ATOM     23  O   UNL     1       4.103   0.801  -2.582  0.00  0.00    -0.506 OA
ATOM     24  H   UNL     1       4.923   1.301  -2.467  0.00  0.00    +0.292 HD
ENDBRANCH   4  23
ENDBRANCH   1   6
BRANCH   1  25
ATOM     25  O   UNL     1       5.143  -4.782  -4.704  0.00  0.00    -0.456 OA
BRANCH  25  26
ATOM     26  C   UNL     1       5.422  -5.477  -5.921  0.00  0.00    +0.195 C 
ATOM     27  C   UNL     1       4.087  -5.888  -6.590  0.00  0.00    +0.044 C 
ATOM     28  C   UNL     1       4.356  -6.256  -8.025  0.00  0.00    -0.015 C 
ATOM     29  C   UNL     1       4.647  -7.753  -8.231  0.00  0.00    -0.082 C 
ATOM     30  N   UNL     1       5.543  -8.328  -7.204  0.00  0.00    +0.380 N 
ATOM     31  C   UNL     1       6.634  -7.440  -6.883  0.00  0.00    -0.056 C 
ATOM     32  C   UNL     1       6.241  -6.646  -5.627  0.00  0.00    +0.097 C 
ATOM     33  H   UNL     1       5.010  -8.508  -6.367  0.00  0.00    -0.086 HD
ATOM     34  H   UNL     1       5.919  -9.199  -7.547  0.00  0.00    -0.086 HD
BRANCH  32  35
ATOM     35  N   UNL     1       7.462  -6.207  -4.947  0.00  0.00    -0.307 N 
ATOM     36  C   UNL     1       8.127  -7.057  -4.139  0.00  0.00    +0.244 C 
ATOM     37  O   UNL     1       7.713  -8.188  -3.975  0.00  0.00    -0.270 OA
ATOM     38  H   UNL     1       7.793  -5.305  -5.078  0.00  0.00    +0.149 HD
BRANCH  36  39
ATOM     39  C   UNL     1       9.357  -6.615  -3.454  0.00  0.00    +0.037 A 
ATOM     40  C   UNL     1       9.832  -5.313  -3.638  0.00  0.00    +0.016 A 
ATOM     41  C   UNL     1      10.980  -4.904  -2.997  0.00  0.00    +0.046 A 
ATOM     42  C   UNL     1      11.667  -5.784  -2.169  0.00  0.00    +0.117 A 
ATOM     43  C   UNL     1      11.198  -7.080  -1.984  0.00  0.00    +0.046 A 
ATOM     44  C   UNL     1      10.048  -7.495  -2.617  0.00  0.00    +0.016 A 
BRANCH  42  45
ATOM     45  O   UNL     1      12.799  -5.378  -1.539  0.00  0.00    -0.507 OA
ATOM     46  H   UNL     1      12.645  -4.987  -0.668  0.00  0.00    +0.292 HD
ENDBRANCH  42  45
ENDBRANCH  36  39
ENDBRANCH  32  35
ENDBRANCH  25  26
ENDBRANCH   1  25
TORSDOF 10
