REMARK  Name = CHEMBL27387
REMARK  0 active torsions:
REMARK  status: ('A' for Active; 'I' for Inactive)
REMARK                            x       y       z     vdW  Elec       q    Type
REMARK                         _______ _______ _______ _____ _____    ______ ____
ROOT
ATOM      1  C   UNL     1      -0.017   1.381   0.010  0.00  0.00    +0.001 A 
ATOM      2  C   UNL     1       1.148   2.128   0.003  0.00  0.00    +0.002 A 
ATOM      3  C   UNL     1       2.404   1.541  -0.011  0.00  0.00    +0.026 A 
ATOM      4  C   UNL     1       2.444   0.147  -0.017  0.00  0.00    +0.051 A 
ATOM      5  C   UNL     1       1.260  -0.609  -0.013  0.00  0.00    +0.008 A 
ATOM      6  C   UNL     1       0.002  -0.004   0.002  0.00  0.00    +0.010 A 
ATOM      7  C   UNL     1       1.673  -2.012  -0.030  0.00  0.00    +0.023 A 
ATOM      8  C   UNL     1       0.931  -3.199  -0.044  0.00  0.00    +0.060 A 
ATOM      9  C   UNL     1       1.600  -4.430  -0.070  0.00  0.00    +0.060 A 
ATOM     10  C   UNL     1       3.000  -4.454  -0.080  0.00  0.00    +0.023 A 
ATOM     11  C   UNL     1       3.951  -5.563  -0.117  0.00  0.00    +0.008 A 
ATOM     12  C   UNL     1       3.775  -6.948  -0.144  0.00  0.00    +0.010 A 
ATOM     13  C   UNL     1       4.926  -7.717  -0.178  0.00  0.00    +0.001 A 
ATOM     14  C   UNL     1       6.187  -7.146  -0.185  0.00  0.00    +0.002 A 
ATOM     15  C   UNL     1       6.377  -5.774  -0.156  0.00  0.00    +0.026 A 
ATOM     16  C   UNL     1       5.231  -4.981  -0.120  0.00  0.00    +0.051 A 
ATOM     17  N   UNL     1       5.098  -3.604  -0.074  0.00  0.00    -0.326 N 
ATOM     18  C   UNL     1       3.755  -3.262  -0.058  0.00  0.00    +0.076 A 
ATOM     19  C   UNL     1       3.084  -2.027  -0.034  0.00  0.00    +0.076 A 
ATOM     20  N   UNL     1       3.528  -0.715  -0.019  0.00  0.00    -0.326 N 
ATOM     21  C   UNL     1       4.891  -0.211   0.010  0.00  0.00    +0.227 C 
ATOM     22  S   UNL     1       6.028  -1.246   0.925  0.00  0.00    +0.062 S 
ATOM     23  O   UNL     1       7.271  -0.573   1.068  0.00  0.00    -0.254 OA
ATOM     24  C   UNL     1       6.263  -2.735  -0.038  0.00  0.00    +0.227 C 
ATOM     25  C   UNL     1       0.550  -5.464  -0.083  0.00  0.00    +0.252 C 
ATOM     26  O   UNL     1       0.736  -6.665  -0.107  0.00  0.00    -0.270 OA
ATOM     27  N   UNL     1      -0.650  -4.855  -0.063  0.00  0.00    -0.248 N 
ATOM     28  C   UNL     1      -0.508  -3.517  -0.039  0.00  0.00    +0.252 C 
ATOM     29  O   UNL     1      -1.414  -2.707  -0.017  0.00  0.00    -0.270 OA
ATOM     30  H   UNL     1      -1.502  -5.318  -0.066  0.00  0.00    +0.158 HD
ENDROOT
TORSDOF 0
