REMARK  Name = CHEMBL285801
REMARK  14 active torsions:
REMARK  status: ('A' for Active; 'I' for Inactive)
REMARK    1  A    between atoms: C_1  and  C_2
REMARK    2  A    between atoms: C_2  and  C_3
REMARK    3  A    between atoms: C_3  and  C_4
REMARK    4  A    between atoms: C_4  and  C_5
REMARK    5  A    between atoms: C_5  and  C_6
REMARK    6  A    between atoms: C_6  and  C_7
REMARK    7  A    between atoms: C_7  and  C_8
REMARK    8  A    between atoms: C_8  and  C_9
REMARK    9  A    between atoms: CA_20  and  C_32
REMARK   10  A    between atoms: C_25  and  C_29
REMARK   11  A    between atoms: N_27  and  C_28
REMARK   12  A    between atoms: C_29  and  C_30
REMARK   13  A    between atoms: C_29  and  C_31
REMARK   14  A    between atoms: C_32  and  O_33
REMARK                            x       y       z     vdW  Elec       q    Type
REMARK                         _______ _______ _______ _____ _____    ______ ____
ROOT
ATOM      1  C   UNL     1       2.322  -8.004  -6.582  0.00  0.00    -0.023 A 
ATOM      2  C   UNL     1       2.020  -8.705  -7.730  0.00  0.00    +0.007 A 
ATOM      3  C   UNL     1       3.030  -9.161  -8.565  0.00  0.00    +0.024 A 
ATOM      4  C   UNL     1       4.350  -8.895  -8.261  0.00  0.00    +0.040 A 
ATOM      5  C   UNL     1       4.663  -8.068  -7.175  0.00  0.00    +0.024 A 
ATOM      6  C   UNL     1       3.642  -7.683  -6.285  0.00  0.00    +0.052 A 
ATOM      7  N   UNL     1       4.259  -7.064  -5.220  0.00  0.00    -0.360 N 
ATOM      8  H   UNL     1       3.823  -6.815  -4.390  0.00  0.00    +0.165 HD
ATOM      9  C   UNL     1       5.582  -6.855  -5.511  0.00  0.00    +0.087 A 
ATOM     10  C   UNL     1       5.874  -7.406  -6.697  0.00  0.00    -0.019 A 
ATOM     11  C   UNL     1       7.198  -7.234  -7.431  0.00  0.00    +0.061 C 
ATOM     12  CA  UNL     1       8.162  -8.349  -6.952  0.00  0.00    +0.103 C 
ATOM     13  N   UNL     1       8.508  -9.183  -8.108  0.00  0.00    -0.308 N 
ATOM     14  C   UNL     1       7.737 -10.054  -8.748  0.00  0.00    +0.234 C 
ATOM     15  O   UNL     1       8.158 -10.634  -9.726  0.00  0.00    -0.274 OA
ATOM     16  C   UNL     1       6.340 -10.319  -8.257  0.00  0.00    +0.162 C 
ATOM     17  N   UNL     1       5.393  -9.466  -8.978  0.00  0.00    -0.321 N 
ATOM     18  C   UNL     1       5.542  -9.223 -10.415  0.00  0.00    +0.130 C 
ATOM     19  H   UNL     1       9.412  -9.085  -8.448  0.00  0.00    +0.149 HD
ENDROOT
BRANCH  16  20
ATOM     20  C   UNL     1       5.987 -11.788  -8.498  0.00  0.00    +0.012 C 
ATOM     21  C   UNL     1       6.973 -12.681  -7.741  0.00  0.00    +0.009 C 
ATOM     22  C   UNL     1       4.566 -12.059  -7.998  0.00  0.00    +0.009 C 
ENDBRANCH  16  20
BRANCH   1  23
ATOM     23  C   UNL     1       1.218  -7.579  -5.648  0.00  0.00    +0.037 C 
BRANCH  23  24
ATOM     24  C   UNL     1       0.792  -6.148  -5.981  0.00  0.00    +0.005 C 
BRANCH  24  25
ATOM     25  C   UNL     1      -0.329  -5.716  -5.033  0.00  0.00    +0.000 C 
BRANCH  25  26
ATOM     26  C   UNL     1      -0.756  -4.285  -5.365  0.00  0.00    +0.000 C 
BRANCH  26  27
ATOM     27  C   UNL     1      -1.877  -3.854  -4.418  0.00  0.00    -0.000 C 
BRANCH  27  28
ATOM     28  C   UNL     1      -2.303  -2.423  -4.750  0.00  0.00    -0.000 C 
BRANCH  28  30
ATOM     29  C   UNL     1      -3.851  -0.560  -4.135  0.00  0.00    +0.004 C 
ATOM     30  C   UNL     1      -3.424  -1.991  -3.802  0.00  0.00    -0.003 C 
ENDBRANCH  28  30
ENDBRANCH  27  28
ENDBRANCH  26  27
ENDBRANCH  25  26
ENDBRANCH  24  25
ENDBRANCH  23  24
ENDBRANCH   1  23
BRANCH  12  31
ATOM     31  C   UNL     1       7.474  -9.204  -5.886  0.00  0.00    +0.178 C 
BRANCH  31  32
ATOM     32  O   UNL     1       8.075 -10.500  -5.854  0.00  0.00    -0.393 OA
ATOM     33  H   UNL     1       7.688 -11.097  -5.199  0.00  0.00    +0.209 HD
ENDBRANCH  31  32
ENDBRANCH  12  31
TORSDOF 10
