REMARK  Name = CHEMBL431432
REMARK  7 active torsions:
REMARK  status: ('A' for Active; 'I' for Inactive)
REMARK    1  A    between atoms: C_1  and  N_2
REMARK    2  A    between atoms: C_6  and  C_7
REMARK    3  A    between atoms: C_7  and  C_8
REMARK    4  A    between atoms: C_8  and  N_9
REMARK    5  A    between atoms: C_10  and  C_12
REMARK    6  A    between atoms: C_12  and  C_13
REMARK    7  A    between atoms: C_13  and  N_14
REMARK                            x       y       z     vdW  Elec       q    Type
REMARK                         _______ _______ _______ _____ _____    ______ ____
ROOT
ATOM      1  N   UNL     1       8.694   1.770  -1.315  0.00  0.00    -0.338 N 
ATOM      2  C   UNL     1       9.738   1.759  -0.408  0.00  0.00    +0.050 A 
ATOM      3  C   UNL     1       9.796   2.015   0.959  0.00  0.00    +0.026 A 
ATOM      4  C   UNL     1      10.999   1.928   1.626  0.00  0.00    +0.002 A 
ATOM      5  C   UNL     1      12.159   1.587   0.948  0.00  0.00    +0.001 A 
ATOM      6  C   UNL     1      12.122   1.331  -0.405  0.00  0.00    +0.010 A 
ATOM      7  C   UNL     1      10.913   1.414  -1.092  0.00  0.00    +0.008 A 
ATOM      8  C   UNL     1      10.531   1.207  -2.502  0.00  0.00    +0.015 A 
ATOM      9  C   UNL     1       9.149   1.437  -2.575  0.00  0.00    +0.075 A 
ATOM     10  C   UNL     1       8.488   1.308  -3.805  0.00  0.00    +0.073 A 
ATOM     11  C   UNL     1       9.211   0.951  -4.944  0.00  0.00    +0.022 A 
ATOM     12  C   UNL     1       8.248   0.901  -6.056  0.00  0.00    +0.008 A 
ATOM     13  C   UNL     1       8.365   0.607  -7.414  0.00  0.00    +0.010 A 
ATOM     14  C   UNL     1       7.248   0.645  -8.220  0.00  0.00    +0.001 A 
ATOM     15  C   UNL     1       6.011   0.974  -7.686  0.00  0.00    +0.002 A 
ATOM     16  C   UNL     1       5.881   1.266  -6.346  0.00  0.00    +0.026 A 
ATOM     17  C   UNL     1       6.997   1.233  -5.514  0.00  0.00    +0.048 A 
ATOM     18  N   UNL     1       7.160   1.475  -4.163  0.00  0.00    -0.352 N 
ATOM     19  H   UNL     1       6.448   1.724  -3.554  0.00  0.00    +0.166 HD
ATOM     20  C   UNL     1      10.603   0.718  -4.864  0.00  0.00    +0.052 A 
ATOM     21  C   UNL     1      11.248   0.857  -3.639  0.00  0.00    -0.008 A 
ATOM     22  C   UNL     1      12.704   0.547  -3.885  0.00  0.00    +0.141 C 
ATOM     23  N   UNL     1      12.821   0.247  -5.317  0.00  0.00    -0.307 N 
ATOM     24  C   UNL     1      11.601   0.336  -5.874  0.00  0.00    +0.245 C 
ATOM     25  O   UNL     1      11.360   0.144  -7.051  0.00  0.00    -0.270 OA
ATOM     26  H   UNL     1      13.639   0.009  -5.781  0.00  0.00    +0.149 HD
ENDROOT
BRANCH   1  27
ATOM     27  C   UNL     1       7.302   2.085  -0.984  0.00  0.00    +0.131 C 
BRANCH  27  28
ATOM     28  C   UNL     1       6.569   0.801  -0.590  0.00  0.00    +0.117 C 
BRANCH  28  30
ATOM     29  N   UNL     1       4.295   0.142   0.128  0.00  0.00    -0.315 N 
ATOM     30  C   UNL     1       5.137   1.125  -0.250  0.00  0.00    +0.215 C 
ATOM     31  O   UNL     1       4.742   2.269  -0.316  0.00  0.00    -0.276 OA
ATOM     32  H   UNL     1       4.612  -0.774   0.181  0.00  0.00    +0.149 HD
BRANCH  29  33
ATOM     33  C   UNL     1       2.903   0.457   0.459  0.00  0.00    +0.102 C 
BRANCH  33  34
ATOM     34  C   UNL     1       2.170  -0.827   0.853  0.00  0.00    +0.003 C 
BRANCH  34  40
ATOM     35  C   UNL     1      -0.018   1.465   0.010  0.00  0.00    -0.096 C 
ATOM     36  N   UNL     1       0.002  -0.004   0.002  0.00  0.00    +0.380 N 
ATOM     37  C   UNL     1      -1.379  -0.519   0.034  0.00  0.00    -0.079 C 
ATOM     38  C   UNL     1      -1.513  -1.393   1.299  0.00  0.00    -0.020 C 
ATOM     39  C   UNL     1      -0.044  -1.784   1.610  0.00  0.00    -0.017 C 
ATOM     40  C   UNL     1       0.716  -0.499   1.198  0.00  0.00    -0.068 C 
ATOM     41  H   UNL     1       0.466  -0.334  -0.831  0.00  0.00    -0.082 HD
ENDBRANCH  34  40
ENDBRANCH  33  34
ENDBRANCH  29  33
ENDBRANCH  28  30
ENDBRANCH  27  28
ENDBRANCH   1  27
TORSDOF 6
