REMARK  Name = CHEMBL103091
REMARK  16 active torsions:
REMARK  status: ('A' for Active; 'I' for Inactive)
REMARK    1  A    between atoms: C_1  and  C_2
REMARK    2  A    between atoms: C_2  and  C_3
REMARK    3  A    between atoms: C_3  and  C_4
REMARK    4  A    between atoms: C_4  and  C_5
REMARK    5  A    between atoms: C_5  and  C_6
REMARK    6  A    between atoms: C_6  and  C_7
REMARK    7  A    between atoms: C_7  and  C_8
REMARK    8  A    between atoms: C_8  and  C_9
REMARK    9  A    between atoms: C_9  and  C_10
REMARK   10  A    between atoms: C_10  and  C_11
REMARK   11  A    between atoms: C_18  and  C_30
REMARK   12  A    between atoms: C_23  and  C_27
REMARK   13  A    between atoms: N_25  and  C_26
REMARK   14  A    between atoms: C_27  and  C_28
REMARK   15  A    between atoms: C_27  and  C_29
REMARK   16  A    between atoms: C_30  and  O_31
REMARK                            x       y       z     vdW  Elec       q    Type
REMARK                         _______ _______ _______ _____ _____    ______ ____
ROOT
ATOM      1  C   UNL     1       3.570  -8.632  -5.716  0.00  0.00    -0.042 A 
ATOM      2  C   UNL     1       2.694  -9.096  -6.667  0.00  0.00    +0.004 A 
ATOM      3  C   UNL     1       3.171  -9.601  -7.863  0.00  0.00    +0.002 A 
ATOM      4  C   UNL     1       4.530  -9.617  -8.083  0.00  0.00    +0.023 A 
ATOM      5  C   UNL     1       5.420  -9.141  -7.118  0.00  0.00    +0.034 A 
ATOM      6  C   UNL     1       4.958  -8.646  -5.915  0.00  0.00    -0.020 A 
ATOM      7  C   UNL     1       5.724  -8.125  -4.719  0.00  0.00    +0.084 C 
ATOM      8  C   UNL     1       7.231  -8.154  -4.911  0.00  0.00    +0.206 C 
ATOM      9  O   UNL     1       7.737  -9.477  -4.676  0.00  0.00    -0.457 OA
ATOM     10  C   UNL     1       7.320 -10.462  -5.458  0.00  0.00    +0.328 C 
ATOM     11  O   UNL     1       6.754 -11.452  -5.061  0.00  0.00    -0.249 OA
ATOM     12  C   UNL     1       7.639 -10.192  -6.900  0.00  0.00    +0.185 C 
ATOM     13  N   UNL     1       6.780  -9.188  -7.479  0.00  0.00    -0.320 N 
ATOM     14  C   UNL     1       7.327  -8.220  -8.433  0.00  0.00    +0.130 C 
ENDROOT
BRANCH  12  15
ATOM     15  C   UNL     1       9.092  -9.726  -7.006  0.00  0.00    +0.014 C 
ATOM     16  C   UNL     1       9.264  -8.415  -6.236  0.00  0.00    +0.009 C 
ATOM     17  C   UNL     1      10.014 -10.792  -6.412  0.00  0.00    +0.009 C 
ENDBRANCH  12  15
BRANCH   1  18
ATOM     18  C   UNL     1       3.022  -8.085  -4.423  0.00  0.00    +0.035 C 
BRANCH  18  19
ATOM     19  C   UNL     1       2.883  -6.565  -4.530  0.00  0.00    +0.005 C 
BRANCH  19  20
ATOM     20  C   UNL     1       2.327  -6.010  -3.218  0.00  0.00    +0.000 C 
BRANCH  20  21
ATOM     21  C   UNL     1       2.188  -4.490  -3.325  0.00  0.00    +0.000 C 
BRANCH  21  22
ATOM     22  C   UNL     1       1.633  -3.935  -2.012  0.00  0.00    +0.000 C 
BRANCH  22  23
ATOM     23  C   UNL     1       1.494  -2.415  -2.119  0.00  0.00    -0.000 C 
BRANCH  23  24
ATOM     24  C   UNL     1       0.938  -1.859  -0.807  0.00  0.00    -0.000 C 
BRANCH  24  25
ATOM     25  C   UNL     1       0.799  -0.340  -0.914  0.00  0.00    -0.000 C 
BRANCH  25  27
ATOM     26  C   UNL     1       0.104   1.736   0.291  0.00  0.00    +0.004 C 
ATOM     27  C   UNL     1       0.243   0.216   0.399  0.00  0.00    -0.003 C 
ENDBRANCH  25  27
ENDBRANCH  24  25
ENDBRANCH  23  24
ENDBRANCH  22  23
ENDBRANCH  21  22
ENDBRANCH  20  21
ENDBRANCH  19  20
ENDBRANCH  18  19
ENDBRANCH   1  18
BRANCH   8  28
ATOM     28  C   UNL     1       7.886  -7.181  -3.928  0.00  0.00    +0.200 C 
BRANCH  28  29
ATOM     29  O   UNL     1       9.290  -7.119  -4.184  0.00  0.00    -0.391 OA
ATOM     30  H   UNL     1       9.771  -6.520  -3.597  0.00  0.00    +0.210 HD
ENDBRANCH  28  29
ENDBRANCH   8  28
TORSDOF 12
