REMARK  Name = CHEMBL105477
REMARK  2 active torsions:
REMARK  status: ('A' for Active; 'I' for Inactive)
REMARK    1  A    between atoms: C_1  and  N_2
REMARK    2  A    between atoms: N_27  and  C_33
REMARK                            x       y       z     vdW  Elec       q    Type
REMARK                         _______ _______ _______ _____ _____    ______ ____
ROOT
ATOM      1  C   UNL     1      -0.018   1.462   0.010  0.00  0.00    -0.096 C 
ATOM      2  N   UNL     1       0.002  -0.004   0.002  0.00  0.00    +0.380 N 
ATOM      3  C   UNL     1      -1.352  -0.561  -0.035  0.00  0.00    -0.057 C 
ATOM      4  C   UNL     1      -2.357   0.384  -0.682  0.00  0.00    +0.103 C 
ATOM      5  N   UNL     1      -3.622  -0.274  -0.983  0.00  0.00    -0.348 N 
ATOM      6  C   UNL     1      -3.935  -1.597  -0.917  0.00  0.00    +0.095 A 
ATOM      7  C   UNL     1      -5.214  -1.814  -1.307  0.00  0.00    +0.013 A 
ATOM      8  C   UNL     1      -5.779  -0.463  -1.588  0.00  0.00    +0.008 A 
ATOM      9  C   UNL     1      -4.734   0.441  -1.407  0.00  0.00    +0.050 A 
ATOM     10  C   UNL     1      -4.927   1.795  -1.673  0.00  0.00    +0.026 A 
ATOM     11  C   UNL     1      -6.177   2.226  -2.062  0.00  0.00    +0.002 A 
ATOM     12  C   UNL     1      -7.232   1.335  -2.183  0.00  0.00    +0.001 A 
ATOM     13  C   UNL     1      -7.048  -0.009  -1.937  0.00  0.00    +0.010 A 
ATOM     14  C   UNL     1      -6.021  -3.032  -1.481  0.00  0.00    +0.059 C 
ATOM     15  C   UNL     1      -6.063  -4.284  -0.890  0.00  0.00    +0.059 C 
ATOM     16  C   UNL     1      -5.362  -4.980   0.195  0.00  0.00    +0.013 A 
ATOM     17  C   UNL     1      -4.144  -4.780   0.760  0.00  0.00    +0.095 A 
ATOM     18  N   UNL     1      -3.893  -5.732   1.699  0.00  0.00    -0.348 N 
ATOM     19  C   UNL     1      -4.971  -6.593   1.790  0.00  0.00    +0.050 A 
ATOM     20  C   UNL     1      -5.954  -6.148   0.905  0.00  0.00    +0.008 A 
ATOM     21  C   UNL     1      -7.191  -6.773   0.871  0.00  0.00    +0.010 A 
ATOM     22  C   UNL     1      -7.391  -7.901   1.637  0.00  0.00    +0.001 A 
ATOM     23  C   UNL     1      -6.393  -8.391   2.461  0.00  0.00    +0.002 A 
ATOM     24  C   UNL     1      -5.178  -7.745   2.553  0.00  0.00    +0.026 A 
ATOM     25  C   UNL     1      -2.698  -5.877   2.529  0.00  0.00    +0.103 C 
ATOM     26  C   UNL     1      -1.498  -5.160   1.897  0.00  0.00    -0.057 C 
ATOM     27  N   UNL     1      -0.259  -5.679   2.497  0.00  0.00    +0.380 N 
ATOM     28  C   UNL     1       0.705  -4.604   2.734  0.00  0.00    -0.051 C 
ATOM     29  C   UNL     1       0.912  -3.775   1.461  0.00  0.00    +0.141 C 
ATOM     30  O   UNL     1       1.649  -2.602   1.823  0.00  0.00    -0.383 OA
ATOM     31  C   UNL     1       1.691  -1.585   0.820  0.00  0.00    +0.141 C 
ATOM     32  C   UNL     1       0.718  -0.462   1.203  0.00  0.00    -0.051 C 
ATOM     33  C   UNL     1       0.330  -6.691   1.612  0.00  0.00    -0.096 C 
ATOM     34  C   UNL     1      -7.089  -5.043  -1.681  0.00  0.00    +0.252 C 
ATOM     35  O   UNL     1      -7.328  -6.229  -1.583  0.00  0.00    -0.270 OA
ATOM     36  N   UNL     1      -7.703  -4.234  -2.543  0.00  0.00    -0.248 N 
ATOM     37  C   UNL     1      -7.093  -3.046  -2.530  0.00  0.00    +0.252 C 
ATOM     38  O   UNL     1      -7.361  -2.136  -3.288  0.00  0.00    -0.270 OA
ATOM     39  H   UNL     1      -8.472  -4.466  -3.085  0.00  0.00    +0.158 HD
ATOM     40  H   UNL     1       0.512  -0.318  -0.814  0.00  0.00    -0.082 HD
ATOM     41  H   UNL     1      -0.486  -6.115   3.384  0.00  0.00    -0.082 HD
ENDROOT
TORSDOF 0
