REMARK  Name = CHEMBL120645
REMARK  6 active torsions:
REMARK  status: ('A' for Active; 'I' for Inactive)
REMARK    1  A    between atoms: C_1  and  C_2
REMARK    2  A    between atoms: C_2  and  C_3
REMARK    3  A    between atoms: C_2  and  C_4
REMARK    4  A    between atoms: CA_9  and  C_23
REMARK    5  A    between atoms: N_21  and  C_22
REMARK    6  A    between atoms: C_23  and  O_24
REMARK                            x       y       z     vdW  Elec       q    Type
REMARK                         _______ _______ _______ _____ _____    ______ ____
ROOT
ATOM      1  C   UNL     1      -1.330  -0.976   0.088  0.00  0.00    +0.162 C 
ATOM      2  C   UNL     1      -2.080  -0.507  -1.114  0.00  0.00    +0.234 C 
ATOM      3  O   UNL     1      -3.285  -0.391  -1.038  0.00  0.00    -0.274 OA
ATOM      4  N   UNL     1      -1.473  -0.207  -2.283  0.00  0.00    -0.309 N 
ATOM      5  CA  UNL     1      -0.018  -0.482  -2.379  0.00  0.00    +0.099 C 
ATOM      6  C   UNL     1       0.190  -1.512  -3.493  0.00  0.00    +0.034 C 
ATOM      7  C   UNL     1       0.387  -2.913  -2.944  0.00  0.00    +0.041 C 
ATOM      8  C   UNL     1       0.587  -3.895  -4.120  0.00  0.00    +0.110 C 
ATOM      9  N   UNL     1      -0.747  -4.490  -4.295  0.00  0.00    -0.343 N 
ATOM     10  C   UNL     1      -1.463  -4.345  -3.102  0.00  0.00    +0.032 A 
ATOM     11  C   UNL     1      -0.842  -3.436  -2.252  0.00  0.00    -0.001 A 
ATOM     12  C   UNL     1      -1.386  -3.186  -0.999  0.00  0.00    +0.035 A 
ATOM     13  C   UNL     1      -2.563  -3.805  -0.604  0.00  0.00    +0.023 A 
ATOM     14  C   UNL     1      -3.201  -4.678  -1.466  0.00  0.00    +0.004 A 
ATOM     15  C   UNL     1      -2.659  -4.942  -2.707  0.00  0.00    +0.023 A 
ATOM     16  N   UNL     1      -0.737  -2.294  -0.133  0.00  0.00    -0.321 N 
ATOM     17  C   UNL     1       0.509  -2.676   0.536  0.00  0.00    +0.130 C 
ATOM     18  H   UNL     1      -1.967   0.172  -3.027  0.00  0.00    +0.149 HD
ATOM     19  H   UNL     1      -1.076  -4.912  -5.104  0.00  0.00    +0.146 HD
ENDROOT
BRANCH   1  21
ATOM     20  C   UNL     1      -0.787   1.446   0.376  0.00  0.00    +0.009 C 
ATOM     21  C   UNL     1      -0.218   0.026   0.406  0.00  0.00    +0.012 C 
ATOM     22  C   UNL     1       0.350  -0.266   1.796  0.00  0.00    +0.009 C 
ENDBRANCH   1  21
BRANCH   5  23
ATOM     23  C   UNL     1       0.732   0.807  -2.716  0.00  0.00    +0.178 C 
BRANCH  23  24
ATOM     24  O   UNL     1       0.597   1.733  -1.636  0.00  0.00    -0.393 OA
ATOM     25  H   UNL     1       1.049   2.576  -1.782  0.00  0.00    +0.209 HD
ENDBRANCH  23  24
ENDBRANCH   5  23
TORSDOF 3
