REMARK  Name = CHEMBL540357
REMARK  8 active torsions:
REMARK  status: ('A' for Active; 'I' for Inactive)
REMARK    1  A    between atoms: C_4  and  N_7
REMARK    2  A    between atoms: N_7  and  C_8
REMARK    3  A    between atoms: C_9  and  C_15
REMARK    4  A    between atoms: N_17  and  C_24
REMARK    5  A    between atoms: C_24  and  C_25
REMARK    6  A    between atoms: C_25  and  C_26
REMARK    7  A    between atoms: C_26  and  S_27
REMARK    8  A    between atoms: S_27  and  C_28
REMARK                            x       y       z     vdW  Elec       q    Type
REMARK                         _______ _______ _______ _____ _____    ______ ____
ROOT
ATOM      1  C   UNL     1       6.053  -2.559   0.135  0.00  0.00    +0.014 A 
ATOM      2  C   UNL     1       6.739  -2.054   1.197  0.00  0.00    +0.095 A 
ATOM      3  N   UNL     1       8.043  -1.860   0.852  0.00  0.00    -0.346 N 
ATOM      4  C   UNL     1       8.251  -2.236  -0.459  0.00  0.00    +0.050 A 
ATOM      5  C   UNL     1       7.023  -2.695  -0.966  0.00  0.00    +0.008 A 
ATOM      6  C   UNL     1       6.937  -3.149  -2.280  0.00  0.00    +0.010 A 
ATOM      7  C   UNL     1       8.061  -3.148  -3.077  0.00  0.00    +0.001 A 
ATOM      8  C   UNL     1       9.274  -2.699  -2.576  0.00  0.00    +0.002 A 
ATOM      9  C   UNL     1       9.373  -2.239  -1.281  0.00  0.00    +0.026 A 
ENDROOT
BRANCH   1  11
ATOM     10  C   UNL     1       3.555  -2.032   0.018  0.00  0.00    +0.107 C 
ATOM     11  C   UNL     1       4.620  -2.908   0.095  0.00  0.00    +0.072 C 
ATOM     12  C   UNL     1       4.036  -4.266   0.129  0.00  0.00    +0.253 C 
ATOM     13  O   UNL     1       4.661  -5.305   0.196  0.00  0.00    -0.270 OA
ATOM     14  N   UNL     1       2.698  -4.157   0.073  0.00  0.00    -0.247 N 
ATOM     15  C   UNL     1       2.336  -2.864   0.013  0.00  0.00    +0.265 C 
ATOM     16  O   UNL     1       1.196  -2.449  -0.041  0.00  0.00    -0.268 OA
ATOM     17  H   UNL     1       2.080  -4.905   0.080  0.00  0.00    +0.158 HD
BRANCH  10  18
ATOM     18  N   UNL     1       3.619  -0.648  -0.036  0.00  0.00    -0.310 N 
ATOM     19  H   UNL     1       4.059  -0.154   0.673  0.00  0.00    +0.152 HD
BRANCH  18  23
ATOM     20  C   UNL     1       1.918   1.388  -3.244  0.00  0.00    +0.000 A 
ATOM     21  C   UNL     1       1.984   0.007  -3.261  0.00  0.00    +0.002 A 
ATOM     22  C   UNL     1       2.548  -0.672  -2.199  0.00  0.00    +0.023 A 
ATOM     23  C   UNL     1       3.049   0.035  -1.112  0.00  0.00    +0.031 A 
ATOM     24  C   UNL     1       2.980   1.423  -1.098  0.00  0.00    +0.023 A 
ATOM     25  C   UNL     1       2.415   2.095  -2.164  0.00  0.00    +0.002 A 
ENDBRANCH  18  23
ENDBRANCH  10  18
ENDBRANCH   1  11
BRANCH   3  26
ATOM     26  C   UNL     1       9.075  -1.329   1.745  0.00  0.00    +0.122 C 
BRANCH  26  27
ATOM     27  C   UNL     1       9.206   0.181   1.532  0.00  0.00    +0.033 C 
BRANCH  27  28
ATOM     28  C   UNL     1      10.285   0.736   2.464  0.00  0.00    +0.079 C 
BRANCH  28  29
ATOM     29  S   UNL     1      10.440   2.525   2.212  0.00  0.00    -0.093 S 
BRANCH  29  30
ATOM     30  C   UNL     1      11.703   3.007   3.342  0.00  0.00    +0.123 C 
ATOM     31  N   UNL     1      12.489   4.046   3.059  0.00  0.00    -0.382 N 
ATOM     32  N   UNL     1      11.872   2.333   4.479  0.00  0.00    -0.340 N 
ATOM     33  H   UNL     1      12.366   4.537   2.232  0.00  0.00    +0.158 HD
ATOM     34  H   UNL     1      11.300   1.578   4.685  0.00  0.00    +0.144 HD
ATOM     35  H   UNL     1      12.567   2.599   5.102  0.00  0.00    +0.144 HD
ATOM     36  H   UNL     1      13.184   4.311   3.682  0.00  0.00    +0.158 HD
ENDBRANCH  29  30
ENDBRANCH  28  29
ENDBRANCH  27  28
ENDBRANCH  26  27
ENDBRANCH   3  26
TORSDOF 8
