REMARK  Name = CHEMBL89833
REMARK  12 active torsions:
REMARK  status: ('A' for Active; 'I' for Inactive)
REMARK    1  A    between atoms: C_3  and  C_35
REMARK    2  A    between atoms: C_4  and  C_8
REMARK    3  A    between atoms: C_5  and  O_7
REMARK    4  A    between atoms: C_8  and  C_10
REMARK    5  A    between atoms: C_11  and  O_34
REMARK    6  A    between atoms: C_13  and  C_17
REMARK    7  A    between atoms: C_15  and  O_16
REMARK    8  A    between atoms: C_17  and  O_18
REMARK    9  A    between atoms: O_18  and  C_19
REMARK   10  A    between atoms: C_23  and  N_24
REMARK   11  A    between atoms: C_25  and  C_27
REMARK   12  A    between atoms: C_30  and  O_33
REMARK                            x       y       z     vdW  Elec       q    Type
REMARK                         _______ _______ _______ _____ _____    ______ ____
ROOT
ATOM      1  C   UNL     1       3.616  -2.148  -0.577  0.00  0.00    +0.105 A 
ATOM      2  C   UNL     1       2.388  -2.828  -0.596  0.00  0.00    +0.132 A 
ATOM      3  C   UNL     1       2.358  -4.187  -0.862  0.00  0.00    +0.052 A 
ATOM      4  C   UNL     1       3.532  -4.874  -1.108  0.00  0.00    -0.015 A 
ATOM      5  C   UNL     1       4.748  -4.215  -1.092  0.00  0.00    +0.052 A 
ATOM      6  C   UNL     1       4.801  -2.856  -0.834  0.00  0.00    +0.132 A 
ENDROOT
BRANCH   1   7
ATOM      7  C   UNL     1       3.660  -0.705  -0.297  0.00  0.00    +0.204 C 
ATOM      8  O   UNL     1       4.731  -0.139  -0.186  0.00  0.00    -0.286 OA
BRANCH   7  12
ATOM      9  C   UNL     1       0.036   1.496   0.125  0.00  0.00    +0.004 A 
ATOM     10  C   UNL     1       0.667   0.997   1.252  0.00  0.00    +0.016 A 
ATOM     11  C   UNL     1       1.851   0.277   1.129  0.00  0.00    +0.077 A 
ATOM     12  C   UNL     1       2.404   0.058  -0.150  0.00  0.00    +0.078 A 
ATOM     13  C   UNL     1       1.754   0.568  -1.278  0.00  0.00    +0.128 A 
ATOM     14  C   UNL     1       0.572   1.285  -1.129  0.00  0.00    +0.046 A 
BRANCH  11  15
ATOM     15  C   UNL     1       2.526  -0.255   2.330  0.00  0.00    +0.387 C 
ATOM     16  O   UNL     1       2.098   0.018   3.442  0.00  0.00    -0.241 OA
ATOM     17  O   UNL     1       3.511  -0.969   2.212  0.00  0.00    -0.241 OA
ENDBRANCH  11  15
BRANCH  13  18
ATOM     18  O   UNL     1       2.276   0.364  -2.513  0.00  0.00    -0.506 OA
ATOM     19  H   UNL     1       1.907  -0.401  -2.974  0.00  0.00    +0.292 HD
ENDBRANCH  13  18
ENDBRANCH   7  12
ENDBRANCH   1   7
BRANCH   6  20
ATOM     20  O   UNL     1       5.994  -2.211  -0.825  0.00  0.00    -0.506 OA
ATOM     21  H   UNL     1       6.426  -2.194   0.041  0.00  0.00    +0.292 HD
ENDBRANCH   6  20
BRANCH   2  22
ATOM     22  O   UNL     1       1.234  -2.156  -0.354  0.00  0.00    -0.506 OA
ATOM     23  H   UNL     1       0.777  -1.859  -1.153  0.00  0.00    +0.292 HD
ENDBRANCH   2  22
BRANCH   4  24
ATOM     24  C   UNL     1       3.487  -6.353  -1.395  0.00  0.00    +0.195 C 
BRANCH  24  25
ATOM     25  O   UNL     1       3.349  -6.561  -2.802  0.00  0.00    -0.370 OA
BRANCH  25  26
ATOM     26  C   UNL     1       3.295  -7.937  -3.184  0.00  0.00    +0.139 C 
ATOM     27  C   UNL     1       1.825  -8.406  -3.316  0.00  0.00    +0.033 C 
ATOM     28  C   UNL     1       1.938  -9.618  -4.274  0.00  0.00    +0.004 C 
ATOM     29  C   UNL     1       3.019  -9.197  -5.291  0.00  0.00    +0.025 C 
ATOM     30  C   UNL     1       3.882  -8.128  -4.598  0.00  0.00    +0.102 C 
BRANCH  30  31
ATOM     31  N   UNL     1       5.271  -8.586  -4.507  0.00  0.00    -0.306 N 
ATOM     32  C   UNL     1       6.127  -8.347  -5.520  0.00  0.00    +0.244 C 
ATOM     33  O   UNL     1       5.747  -7.751  -6.510  0.00  0.00    -0.270 OA
ATOM     34  H   UNL     1       5.575  -9.060  -3.717  0.00  0.00    +0.149 HD
BRANCH  32  35
ATOM     35  C   UNL     1       7.526  -8.807  -5.429  0.00  0.00    +0.037 A 
ATOM     36  C   UNL     1       7.964  -9.497  -4.295  0.00  0.00    +0.016 A 
ATOM     37  C   UNL     1       9.270  -9.926  -4.213  0.00  0.00    +0.046 A 
ATOM     38  C   UNL     1      10.152  -9.673  -5.257  0.00  0.00    +0.117 A 
ATOM     39  C   UNL     1       9.721  -8.988  -6.387  0.00  0.00    +0.046 A 
ATOM     40  C   UNL     1       8.415  -8.561  -6.478  0.00  0.00    +0.016 A 
BRANCH  38  41
ATOM     41  O   UNL     1      11.439 -10.097  -5.173  0.00  0.00    -0.507 OA
ATOM     42  H   UNL     1      11.585 -10.985  -5.526  0.00  0.00    +0.292 HD
ENDBRANCH  38  41
ENDBRANCH  32  35
ENDBRANCH  30  31
ENDBRANCH  25  26
ENDBRANCH  24  25
ENDBRANCH   4  24
TORSDOF 12
