REMARK  Name = CHEMBL421947
REMARK  1 active torsions:
REMARK  status: ('A' for Active; 'I' for Inactive)
REMARK    1  A    between atoms: C_1  and  N_2
REMARK                            x       y       z     vdW  Elec       q    Type
REMARK                         _______ _______ _______ _____ _____    ______ ____
ROOT
ATOM      1  C   UNL     1      -0.018   1.465   0.010  0.00  0.00    +0.109 C 
ATOM      2  N   UNL     1       0.002  -0.004   0.002  0.00  0.00    -0.265 NA
ATOM      3  C   UNL     1       0.546  -0.516  -1.263  0.00  0.00    +0.160 C 
ATOM      4  C   UNL     1       1.185  -1.875  -0.909  0.00  0.00    +0.045 C 
ATOM      5  C   UNL     1       1.354  -1.880   0.621  0.00  0.00    +0.045 C 
ATOM      6  C   UNL     1       0.807  -0.526   1.116  0.00  0.00    +0.160 C 
ATOM      7  N   UNL     1       1.933   0.373   1.387  0.00  0.00    -0.322 N 
ATOM      8  C   UNL     1       2.509   0.619   2.610  0.00  0.00    +0.051 A 
ATOM      9  C   UNL     1       2.268   0.046   3.858  0.00  0.00    +0.026 A 
ATOM     10  C   UNL     1       3.010   0.523   4.926  0.00  0.00    +0.002 A 
ATOM     11  C   UNL     1       3.954   1.525   4.779  0.00  0.00    +0.001 A 
ATOM     12  C   UNL     1       4.216   2.106   3.550  0.00  0.00    +0.010 A 
ATOM     13  C   UNL     1       3.482   1.635   2.461  0.00  0.00    +0.008 A 
ATOM     14  C   UNL     1       3.511   1.985   1.043  0.00  0.00    +0.023 A 
ATOM     15  C   UNL     1       2.561   1.154   0.431  0.00  0.00    +0.077 A 
ATOM     16  C   UNL     1       2.416   1.151  -0.960  0.00  0.00    +0.077 A 
ATOM     17  N   UNL     1       1.575   0.394  -1.775  0.00  0.00    -0.322 N 
ATOM     18  C   UNL     1       1.849   0.658  -3.096  0.00  0.00    +0.051 A 
ATOM     19  C   UNL     1       1.348   0.079  -4.261  0.00  0.00    +0.026 A 
ATOM     20  C   UNL     1       1.809   0.583  -5.465  0.00  0.00    +0.002 A 
ATOM     21  C   UNL     1       2.728   1.615  -5.530  0.00  0.00    +0.001 A 
ATOM     22  C   UNL     1       3.247   2.203  -4.389  0.00  0.00    +0.010 A 
ATOM     23  C   UNL     1       2.800   1.704  -3.164  0.00  0.00    +0.008 A 
ATOM     24  C   UNL     1       3.191   2.010  -1.756  0.00  0.00    +0.023 A 
ATOM     25  C   UNL     1       4.069   2.912  -1.139  0.00  0.00    +0.060 A 
ATOM     26  C   UNL     1       4.231   2.898   0.259  0.00  0.00    +0.060 A 
ATOM     27  C   UNL     1       5.215   3.953   0.562  0.00  0.00    +0.252 C 
ATOM     28  O   UNL     1       5.618   4.248   1.670  0.00  0.00    -0.270 OA
ATOM     29  N   UNL     1       5.592   4.533  -0.591  0.00  0.00    -0.248 N 
ATOM     30  C   UNL     1       4.960   3.974  -1.639  0.00  0.00    +0.252 C 
ATOM     31  O   UNL     1       5.103   4.291  -2.803  0.00  0.00    -0.270 OA
ATOM     32  H   UNL     1       6.233   5.258  -0.658  0.00  0.00    +0.158 HD
ENDROOT
TORSDOF 0
