REMARK  Name = CHEMBL282612
REMARK  0 active torsions:
REMARK  status: ('A' for Active; 'I' for Inactive)
REMARK                            x       y       z     vdW  Elec       q    Type
REMARK                         _______ _______ _______ _____ _____    ______ ____
ROOT
ATOM      1  C   UNL     1      -0.173   1.188   1.353  0.00  0.00    +0.001 A 
ATOM      2  C   UNL     1       0.944   1.875   1.796  0.00  0.00    +0.002 A 
ATOM      3  C   UNL     1       2.184   1.268   1.919  0.00  0.00    +0.026 A 
ATOM      4  C   UNL     1       2.262  -0.079   1.571  0.00  0.00    +0.051 A 
ATOM      5  C   UNL     1       1.127  -0.774   1.117  0.00  0.00    +0.008 A 
ATOM      6  C   UNL     1      -0.117  -0.151   1.000  0.00  0.00    +0.010 A 
ATOM      7  C   UNL     1       1.568  -2.139   0.840  0.00  0.00    +0.021 A 
ATOM      8  C   UNL     1       0.883  -3.259   0.355  0.00  0.00    +0.035 A 
ATOM      9  C   UNL     1       1.571  -4.464   0.177  0.00  0.00    +0.059 A 
ATOM     10  C   UNL     1       2.930  -4.535   0.483  0.00  0.00    +0.023 A 
ATOM     11  C   UNL     1       3.892  -5.633   0.396  0.00  0.00    +0.008 A 
ATOM     12  C   UNL     1       3.760  -6.962  -0.011  0.00  0.00    +0.010 A 
ATOM     13  C   UNL     1       4.905  -7.740   0.037  0.00  0.00    +0.001 A 
ATOM     14  C   UNL     1       6.118  -7.229   0.465  0.00  0.00    +0.002 A 
ATOM     15  C   UNL     1       6.263  -5.912   0.872  0.00  0.00    +0.026 A 
ATOM     16  C   UNL     1       5.122  -5.113   0.833  0.00  0.00    +0.051 A 
ATOM     17  N   UNL     1       4.951  -3.783   1.183  0.00  0.00    -0.328 N 
ATOM     18  C   UNL     1       3.633  -3.409   0.977  0.00  0.00    +0.076 A 
ATOM     19  C   UNL     1       2.946  -2.200   1.155  0.00  0.00    +0.076 A 
ATOM     20  N   UNL     1       3.341  -0.947   1.597  0.00  0.00    -0.328 N 
ATOM     21  C   UNL     1       4.649  -0.511   2.059  0.00  0.00    +0.193 C 
ATOM     22  S   UNL     1       5.572  -1.778   2.921  0.00  0.00    -0.118 S 
ATOM     23  C   UNL     1       6.057  -2.991   1.697  0.00  0.00    +0.193 C 
ATOM     24  C   UNL     1       0.567  -5.424  -0.341  0.00  0.00    +0.270 C 
ATOM     25  O   UNL     1       0.772  -6.589  -0.623  0.00  0.00    -0.268 OA
ATOM     26  N   UNL     1      -0.611  -4.782  -0.444  0.00  0.00    -0.161 NA
ATOM     27  C   UNL     1      -0.509  -3.522  -0.059  0.00  0.00    +0.118 C 
ATOM     28  N   UNL     1      -1.525  -2.612  -0.046  0.00  0.00    -0.344 N 
ATOM     29  H   UNL     1      -2.122  -2.541  -0.808  0.00  0.00    +0.144 HD
ATOM     30  H   UNL     1      -1.651  -2.037   0.724  0.00  0.00    +0.144 HD
ENDROOT
TORSDOF 0
