REMARK  Name = CHEMBL120645
REMARK  6 active torsions:
REMARK  status: ('A' for Active; 'I' for Inactive)
REMARK    1  A    between atoms: C_1  and  C_2
REMARK    2  A    between atoms: C_2  and  C_3
REMARK    3  A    between atoms: C_2  and  C_4
REMARK    4  A    between atoms: CA_9  and  C_23
REMARK    5  A    between atoms: N_21  and  C_22
REMARK    6  A    between atoms: C_23  and  O_24
REMARK                            x       y       z     vdW  Elec       q    Type
REMARK                         _______ _______ _______ _____ _____    ______ ____
ROOT
ATOM      1  C   UNL     1      -1.435  -0.534   0.139  0.00  0.00    +0.162 C 
ATOM      2  C   UNL     1      -2.206  -0.104  -1.056  0.00  0.00    +0.234 C 
ATOM      3  O   UNL     1      -1.555   0.561  -1.872  0.00  0.00    -0.274 OA
ATOM      4  N   UNL     1      -3.474  -0.314  -1.394  0.00  0.00    -0.309 N 
ATOM      5  CA  UNL     1      -4.556  -0.826  -0.547  0.00  0.00    +0.099 C 
ATOM      6  C   UNL     1      -4.930  -2.234  -1.000  0.00  0.00    +0.034 C 
ATOM      7  C   UNL     1      -4.088  -3.353  -0.428  0.00  0.00    +0.041 C 
ATOM      8  C   UNL     1      -4.753  -4.697  -0.836  0.00  0.00    +0.110 C 
ATOM      9  N   UNL     1      -4.082  -5.003  -2.111  0.00  0.00    -0.343 N 
ATOM     10  C   UNL     1      -2.815  -4.412  -2.086  0.00  0.00    +0.032 A 
ATOM     11  C   UNL     1      -2.732  -3.455  -1.078  0.00  0.00    -0.001 A 
ATOM     12  C   UNL     1      -1.531  -2.823  -0.820  0.00  0.00    +0.035 A 
ATOM     13  C   UNL     1      -0.429  -3.063  -1.638  0.00  0.00    +0.023 A 
ATOM     14  C   UNL     1      -0.532  -3.951  -2.691  0.00  0.00    +0.004 A 
ATOM     15  C   UNL     1      -1.717  -4.620  -2.917  0.00  0.00    +0.023 A 
ATOM     16  N   UNL     1      -1.385  -1.980   0.280  0.00  0.00    -0.321 N 
ATOM     17  C   UNL     1      -1.162  -2.570   1.614  0.00  0.00    +0.130 C 
ATOM     18  H   UNL     1      -3.716  -0.095  -2.343  0.00  0.00    +0.149 HD
ATOM     19  H   UNL     1      -4.452  -5.524  -2.837  0.00  0.00    +0.146 HD
ENDROOT
BRANCH   1  21
ATOM     20  C   UNL     1      -0.015   1.526   0.016  0.00  0.00    +0.009 C 
ATOM     21  C   UNL     1       0.002  -0.004   0.002  0.00  0.00    +0.012 C 
ATOM     22  C   UNL     1       0.848  -0.515   1.170  0.00  0.00    +0.009 C 
ENDBRANCH   1  21
BRANCH   5  23
ATOM     23  C   UNL     1      -4.301  -0.745   0.946  0.00  0.00    +0.178 C 
BRANCH  23  24
ATOM     24  O   UNL     1      -4.217   0.626   1.341  0.00  0.00    -0.393 OA
ATOM     25  H   UNL     1      -4.055   0.754   2.285  0.00  0.00    +0.209 HD
ENDBRANCH  23  24
ENDBRANCH   5  23
TORSDOF 3
