REMARK  Name = CHEMBL386636
REMARK  0 active torsions:
REMARK  status: ('A' for Active; 'I' for Inactive)
REMARK                            x       y       z     vdW  Elec       q    Type
REMARK                         _______ _______ _______ _____ _____    ______ ____
ROOT
ATOM      1  C   UNL     1      -0.017   1.379   0.010  0.00  0.00    +0.000 A 
ATOM      2  C   UNL     1       1.168   2.095   0.002  0.00  0.00    +0.001 A 
ATOM      3  C   UNL     1       2.377   1.430  -0.024  0.00  0.00    +0.009 A 
ATOM      4  C   UNL     1       2.401   0.040  -0.050  0.00  0.00    -0.014 A 
ATOM      5  C   UNL     1       1.205  -0.679  -0.018  0.00  0.00    -0.039 A 
ATOM      6  C   UNL     1       0.002  -0.004   0.002  0.00  0.00    +0.004 A 
ATOM      7  C   UNL     1       1.235  -2.183   0.022  0.00  0.00    +0.040 C 
ATOM      8  C   UNL     1       2.384  -2.720  -0.824  0.00  0.00    +0.042 C 
ATOM      9  C   UNL     1       3.679  -2.047  -0.453  0.00  0.00    -0.015 A 
ATOM     10  C   UNL     1       3.683  -0.701  -0.089  0.00  0.00    +0.000 A 
ATOM     11  C   UNL     1       4.884  -0.064   0.240  0.00  0.00    +0.058 A 
ATOM     12  C   UNL     1       6.091  -0.787   0.214  0.00  0.00    +0.060 A 
ATOM     13  C   UNL     1       6.085  -2.137  -0.145  0.00  0.00    +0.021 A 
ATOM     14  C   UNL     1       4.865  -2.769  -0.478  0.00  0.00    +0.052 A 
ATOM     15  N   UNL     1       5.127  -4.093  -0.787  0.00  0.00    -0.354 N 
ATOM     16  H   UNL     1       4.458  -4.746  -1.045  0.00  0.00    +0.166 HD
ATOM     17  C   UNL     1       6.470  -4.348  -0.678  0.00  0.00    +0.048 A 
ATOM     18  C   UNL     1       7.121  -3.158  -0.278  0.00  0.00    +0.008 A 
ATOM     19  C   UNL     1       8.502  -3.112  -0.085  0.00  0.00    +0.010 A 
ATOM     20  C   UNL     1       9.204  -4.286  -0.305  0.00  0.00    +0.001 A 
ATOM     21  C   UNL     1       8.569  -5.451  -0.697  0.00  0.00    +0.002 A 
ATOM     22  C   UNL     1       7.198  -5.517  -0.892  0.00  0.00    +0.026 A 
ATOM     23  C   UNL     1       7.144   0.167   0.613  0.00  0.00    +0.252 C 
ATOM     24  O   UNL     1       8.328  -0.083   0.712  0.00  0.00    -0.270 OA
ATOM     25  N   UNL     1       6.571   1.361   0.849  0.00  0.00    -0.248 N 
ATOM     26  C   UNL     1       5.242   1.306   0.649  0.00  0.00    +0.252 C 
ATOM     27  O   UNL     1       4.466   2.231   0.784  0.00  0.00    -0.270 OA
ATOM     28  H   UNL     1       7.053   2.157   1.125  0.00  0.00    +0.158 HD
ENDROOT
TORSDOF 0
