REMARK  Name = CHEMBL338956
REMARK  7 active torsions:
REMARK  status: ('A' for Active; 'I' for Inactive)
REMARK    1  A    between atoms: C_1  and  C_2
REMARK    2  A    between atoms: C_3  and  O_47
REMARK    3  A    between atoms: C_5  and  N_37
REMARK    4  A    between atoms: C_34  and  O_36
REMARK    5  A    between atoms: N_37  and  C_38
REMARK    6  A    between atoms: C_39  and  C_41
REMARK    7  A    between atoms: O_47  and  C_48
REMARK                            x       y       z     vdW  Elec       q    Type
REMARK                         _______ _______ _______ _____ _____    ______ ____
ROOT
ATOM      1  C   UNL     1      -2.378   1.436  -0.644  0.00  0.00    +0.069 C 
ATOM      2  C   UNL     1      -1.507   0.187  -0.500  0.00  0.00    +0.174 C 
ATOM      3  C   UNL     1      -2.409  -0.933   0.003  0.00  0.00    +0.191 C 
ATOM      4  C   UNL     1      -1.548  -2.117   0.455  0.00  0.00    +0.114 C 
ATOM      5  C   UNL     1      -0.622  -1.632   1.576  0.00  0.00    +0.080 C 
ATOM      6  C   UNL     1       0.258  -0.504   1.053  0.00  0.00    +0.224 C 
ATOM      7  O   UNL     1      -0.477   0.502   0.410  0.00  0.00    -0.328 OA
ATOM      8  N   UNL     1       1.323  -1.035   0.200  0.00  0.00    -0.311 N 
ATOM      9  C   UNL     1       2.528  -1.539   0.622  0.00  0.00    +0.052 A 
ATOM     10  C   UNL     1       3.057  -1.678   1.905  0.00  0.00    +0.026 A 
ATOM     11  C   UNL     1       4.322  -2.230   2.009  0.00  0.00    +0.002 A 
ATOM     12  C   UNL     1       5.045  -2.632   0.899  0.00  0.00    +0.001 A 
ATOM     13  C   UNL     1       4.544  -2.505  -0.385  0.00  0.00    +0.010 A 
ATOM     14  C   UNL     1       3.269  -1.949  -0.510  0.00  0.00    +0.008 A 
ATOM     15  C   UNL     1       2.441  -1.664  -1.679  0.00  0.00    +0.022 A 
ATOM     16  C   UNL     1       1.262  -1.100  -1.189  0.00  0.00    +0.077 A 
ATOM     17  C   UNL     1       0.253  -0.702  -2.074  0.00  0.00    +0.077 A 
ATOM     18  N   UNL     1      -0.996  -0.137  -1.833  0.00  0.00    -0.307 N 
ATOM     19  C   UNL     1      -1.644   0.079  -3.026  0.00  0.00    +0.053 A 
ATOM     20  C   UNL     1      -2.894   0.635  -3.291  0.00  0.00    +0.026 A 
ATOM     21  C   UNL     1      -3.278   0.721  -4.619  0.00  0.00    +0.002 A 
ATOM     22  C   UNL     1      -2.469   0.278  -5.650  0.00  0.00    +0.001 A 
ATOM     23  C   UNL     1      -1.223  -0.279  -5.412  0.00  0.00    +0.010 A 
ATOM     24  C   UNL     1      -0.820  -0.372  -4.080  0.00  0.00    +0.008 A 
ATOM     25  C   UNL     1       0.426  -0.873  -3.457  0.00  0.00    +0.018 A 
ATOM     26  C   UNL     1       1.597  -1.445  -3.942  0.00  0.00    +0.021 A 
ATOM     27  C   UNL     1       2.607  -1.843  -3.072  0.00  0.00    +0.054 A 
ATOM     28  C   UNL     1       3.709  -2.408  -3.867  0.00  0.00    +0.247 C 
ATOM     29  O   UNL     1       4.743  -2.850  -3.404  0.00  0.00    -0.270 OA
ATOM     30  N   UNL     1       3.411  -2.366  -5.177  0.00  0.00    -0.282 N 
ATOM     31  C   UNL     1       2.081  -1.766  -5.335  0.00  0.00    +0.235 C 
ATOM     32  H   UNL     1       3.979  -2.681  -5.897  0.00  0.00    +0.152 HD
ENDROOT
BRANCH   4  33
ATOM     33  N   UNL     1      -0.748  -2.606  -0.672  0.00  0.00    -0.295 N 
ATOM     34  C   UNL     1       0.599  -3.132  -0.440  0.00  0.00    +0.132 C 
ATOM     35  C   UNL     1      -1.252  -2.571  -1.921  0.00  0.00    +0.247 C 
ATOM     36  O   UNL     1      -2.328  -2.045  -2.128  0.00  0.00    -0.270 OA
BRANCH  35  37
ATOM     37  C   UNL     1      -0.496  -3.172  -3.041  0.00  0.00    +0.037 A 
ATOM     38  C   UNL     1       0.616  -3.975  -2.784  0.00  0.00    +0.013 A 
ATOM     39  C   UNL     1       1.317  -4.534  -3.832  0.00  0.00    +0.001 A 
ATOM     40  C   UNL     1       0.920  -4.298  -5.137  0.00  0.00    +0.000 A 
ATOM     41  C   UNL     1      -0.180  -3.502  -5.399  0.00  0.00    +0.001 A 
ATOM     42  C   UNL     1      -0.894  -2.943  -4.359  0.00  0.00    +0.013 A 
ENDBRANCH  35  37
ENDBRANCH   4  33
BRANCH  31  43
ATOM     43  O   UNL     1       2.171  -0.571  -6.113  0.00  0.00    -0.370 OA
ATOM     44  H   UNL     1       2.477  -0.713  -7.019  0.00  0.00    +0.212 HD
ENDBRANCH  31  43
BRANCH   3  45
ATOM     45  O   UNL     1      -3.281  -1.351  -1.050  0.00  0.00    -0.373 OA
ATOM     46  C   UNL     1      -4.543  -1.844  -0.598  0.00  0.00    +0.194 C 
ENDBRANCH   3  45
TORSDOF 4
