REMARK  Name = CHEMBL91126
REMARK  11 active torsions:
REMARK  status: ('A' for Active; 'I' for Inactive)
REMARK    1  A    between atoms: C_3  and  O_39
REMARK    2  A    between atoms: C_6  and  C_7
REMARK    3  A    between atoms: N_9  and  C_10
REMARK    4  A    between atoms: C_14  and  O_15
REMARK    5  A    between atoms: O_15  and  C_16
REMARK    6  A    between atoms: C_16  and  C_18
REMARK    7  A    between atoms: C_20  and  O_38
REMARK    8  A    between atoms: C_21  and  C_25
REMARK    9  A    between atoms: C_22  and  O_24
REMARK   10  A    between atoms: C_25  and  C_27
REMARK   11  A    between atoms: C_28  and  O_37
REMARK                            x       y       z     vdW  Elec       q    Type
REMARK                         _______ _______ _______ _____ _____    ______ ____
ROOT
ATOM      1  C   UNL     1      -2.490  -5.304  -4.174  0.00  0.00    +0.066 A 
ATOM      2  C   UNL     1      -3.536  -4.468  -4.564  0.00  0.00    +0.061 A 
ATOM      3  C   UNL     1      -3.995  -4.493  -5.869  0.00  0.00    +0.132 A 
ATOM      4  C   UNL     1      -3.406  -5.361  -6.801  0.00  0.00    +0.105 A 
ATOM      5  C   UNL     1      -2.354  -6.200  -6.405  0.00  0.00    +0.132 A 
ATOM      6  C   UNL     1      -1.898  -6.165  -5.099  0.00  0.00    +0.061 A 
ENDROOT
BRANCH   1   7
ATOM      7  C   UNL     1      -2.002  -5.274  -2.777  0.00  0.00    +0.340 C 
ATOM      8  O   UNL     1      -1.089  -5.998  -2.437  0.00  0.00    -0.245 OA
BRANCH   7   9
ATOM      9  O   UNL     1      -2.573  -4.444  -1.883  0.00  0.00    -0.455 OA
BRANCH   9  14
ATOM     10  C   UNL     1      -2.206  -3.084   0.120  0.00  0.00    +0.129 C 
ATOM     11  C   UNL     1      -2.610  -3.386   1.575  0.00  0.00    +0.107 C 
ATOM     12  N   UNL     1      -2.650  -4.857   1.717  0.00  0.00    -0.311 NA
ATOM     13  C   UNL     1      -2.906  -5.390   0.354  0.00  0.00    +0.127 C 
ATOM     14  C   UNL     1      -2.052  -4.468  -0.552  0.00  0.00    +0.212 C 
ATOM     15  H   UNL     1      -1.778  -5.209   2.085  0.00  0.00    +0.122 HD
BRANCH  10  18
ATOM     16  C   UNL     1      -0.925  -1.011   0.135  0.00  0.00    +0.244 C 
ATOM     17  O   UNL     1      -1.972  -0.399   0.207  0.00  0.00    -0.270 OA
ATOM     18  N   UNL     1      -0.934  -2.358   0.086  0.00  0.00    -0.304 N 
ATOM     19  H   UNL     1      -0.098  -2.847   0.028  0.00  0.00    +0.149 HD
BRANCH  16  25
ATOM     20  C   UNL     1       0.369   1.116   0.152  0.00  0.00    +0.016 A 
ATOM     21  C   UNL     1       1.567   1.795   0.120  0.00  0.00    +0.046 A 
ATOM     22  C   UNL     1       2.763   1.092   0.038  0.00  0.00    +0.117 A 
ATOM     23  C   UNL     1       2.756  -0.297  -0.013  0.00  0.00    +0.046 A 
ATOM     24  C   UNL     1       1.562  -0.982   0.018  0.00  0.00    +0.016 A 
ATOM     25  C   UNL     1       0.357  -0.280   0.101  0.00  0.00    +0.037 A 
BRANCH  22  26
ATOM     26  O   UNL     1       3.942   1.765   0.006  0.00  0.00    -0.507 OA
ATOM     27  H   UNL     1       4.325   1.927   0.879  0.00  0.00    +0.292 HD
ENDBRANCH  22  26
ENDBRANCH  16  25
ENDBRANCH  10  18
ENDBRANCH   9  14
ENDBRANCH   7   9
ENDBRANCH   1   7
BRANCH   5  28
ATOM     28  O   UNL     1      -1.781  -7.042  -7.302  0.00  0.00    -0.506 OA
ATOM     29  H   UNL     1      -0.985  -6.687  -7.721  0.00  0.00    +0.292 HD
ENDBRANCH   5  28
BRANCH   4  30
ATOM     30  C   UNL     1      -3.892  -5.392  -8.192  0.00  0.00    +0.204 C 
ATOM     31  O   UNL     1      -4.869  -4.740  -8.510  0.00  0.00    -0.286 OA
BRANCH  30  32
ATOM     32  C   UNL     1      -3.193  -6.212  -9.199  0.00  0.00    +0.067 A 
ATOM     33  C   UNL     1      -2.081  -5.694  -9.873  0.00  0.00    +0.128 A 
ATOM     34  C   UNL     1      -1.433  -6.473 -10.819  0.00  0.00    +0.046 A 
ATOM     35  C   UNL     1      -1.889  -7.745 -11.088  0.00  0.00    +0.007 A 
ATOM     36  C   UNL     1      -2.995  -8.267 -10.424  0.00  0.00    -0.043 A 
ATOM     37  C   UNL     1      -3.642  -7.513  -9.476  0.00  0.00    -0.030 A 
ATOM     38  C   UNL     1      -4.831  -8.023  -8.704  0.00  0.00    +0.036 C 
ATOM     39  C   UNL     1      -5.445  -9.235  -9.401  0.00  0.00    +0.005 C 
ATOM     40  C   UNL     1      -4.328 -10.245  -9.688  0.00  0.00    +0.005 C 
ATOM     41  C   UNL     1      -3.433  -9.663 -10.785  0.00  0.00    +0.035 C 
BRANCH  33  42
ATOM     42  O   UNL     1      -1.641  -4.439  -9.603  0.00  0.00    -0.506 OA
ATOM     43  H   UNL     1      -1.041  -4.387  -8.846  0.00  0.00    +0.292 HD
ENDBRANCH  33  42
ENDBRANCH  30  32
ENDBRANCH   4  30
BRANCH   3  44
ATOM     44  O   UNL     1      -5.013  -3.680  -6.247  0.00  0.00    -0.506 OA
ATOM     45  H   UNL     1      -4.726  -2.816  -6.574  0.00  0.00    +0.292 HD
ENDBRANCH   3  44
TORSDOF 11
