REMARK  Name = CHEMBL147986
REMARK  0 active torsions:
REMARK  status: ('A' for Active; 'I' for Inactive)
REMARK                            x       y       z     vdW  Elec       q    Type
REMARK                         _______ _______ _______ _____ _____    ______ ____
ROOT
ATOM      1  C   UNL     1      -0.017   1.381   0.010  0.00  0.00    +0.001 A 
ATOM      2  C   UNL     1       1.149   2.126   0.003  0.00  0.00    +0.002 A 
ATOM      3  C   UNL     1       2.403   1.537  -0.011  0.00  0.00    +0.026 A 
ATOM      4  C   UNL     1       2.449   0.144  -0.017  0.00  0.00    +0.051 A 
ATOM      5  C   UNL     1       1.257  -0.615  -0.013  0.00  0.00    +0.008 A 
ATOM      6  C   UNL     1       0.002  -0.004   0.002  0.00  0.00    +0.010 A 
ATOM      7  C   UNL     1       1.656  -2.021  -0.027  0.00  0.00    +0.023 A 
ATOM      8  C   UNL     1       0.956  -3.235  -0.037  0.00  0.00    +0.060 A 
ATOM      9  C   UNL     1       1.659  -4.452  -0.056  0.00  0.00    +0.060 A 
ATOM     10  C   UNL     1       3.061  -4.454  -0.065  0.00  0.00    +0.023 A 
ATOM     11  C   UNL     1       4.078  -5.502  -0.090  0.00  0.00    +0.008 A 
ATOM     12  C   UNL     1       3.980  -6.895  -0.107  0.00  0.00    +0.010 A 
ATOM     13  C   UNL     1       5.169  -7.603  -0.130  0.00  0.00    +0.001 A 
ATOM     14  C   UNL     1       6.398  -6.967  -0.137  0.00  0.00    +0.002 A 
ATOM     15  C   UNL     1       6.515  -5.587  -0.118  0.00  0.00    +0.026 A 
ATOM     16  C   UNL     1       5.332  -4.850  -0.094  0.00  0.00    +0.051 A 
ATOM     17  N   UNL     1       5.125  -3.491  -0.066  0.00  0.00    -0.322 N 
ATOM     18  C   UNL     1       3.761  -3.236  -0.051  0.00  0.00    +0.077 A 
ATOM     19  C   UNL     1       3.061  -2.024  -0.033  0.00  0.00    +0.077 A 
ATOM     20  N   UNL     1       3.522  -0.716  -0.024  0.00  0.00    -0.322 N 
ATOM     21  C   UNL     1       4.931  -0.324  -0.010  0.00  0.00    +0.157 C 
ATOM     22  C   UNL     1       5.419  -0.017  -1.419  0.00  0.00    +0.041 C 
ATOM     23  C   UNL     1       5.614  -1.326  -2.191  0.00  0.00    +0.007 C 
ATOM     24  C   UNL     1       6.662  -2.165  -1.452  0.00  0.00    +0.041 C 
ATOM     25  C   UNL     1       6.170  -2.468  -0.043  0.00  0.00    +0.157 C 
ATOM     26  N   UNL     1       5.775  -1.285   0.667  0.00  0.00    -0.276 NA
ATOM     27  C   UNL     1       0.634  -5.512  -0.064  0.00  0.00    +0.252 C 
ATOM     28  O   UNL     1       0.850  -6.707  -0.080  0.00  0.00    -0.270 OA
ATOM     29  N   UNL     1      -0.581  -4.933  -0.051  0.00  0.00    -0.248 N 
ATOM     30  C   UNL     1      -0.474  -3.593  -0.033  0.00  0.00    +0.252 C 
ATOM     31  O   UNL     1      -1.401  -2.808  -0.017  0.00  0.00    -0.270 OA
ATOM     32  H   UNL     1       6.576  -0.834   1.083  0.00  0.00    +0.126 HD
ATOM     33  H   UNL     1      -1.421  -5.418  -0.053  0.00  0.00    +0.158 HD
ENDROOT
TORSDOF 0
