REMARK  Name = CHEMBL327723
REMARK  5 active torsions:
REMARK  status: ('A' for Active; 'I' for Inactive)
REMARK    1  A    between atoms: C_1  and  N_2
REMARK    2  A    between atoms: C_4  and  C_11
REMARK    3  A    between atoms: C_12  and  C_18
REMARK    4  A    between atoms: C_29  and  C_32
REMARK    5  A    between atoms: C_32  and  N_33
REMARK                            x       y       z     vdW  Elec       q    Type
REMARK                         _______ _______ _______ _____ _____    ______ ____
ROOT
ATOM      1  C   UNL     1       3.421  -3.565  -2.876  0.00  0.00    +0.016 A 
ATOM      2  C   UNL     1       4.043  -2.550  -3.746  0.00  0.00    +0.008 A 
ATOM      3  C   UNL     1       3.640  -1.895  -4.908  0.00  0.00    +0.010 A 
ATOM      4  C   UNL     1       4.478  -0.974  -5.497  0.00  0.00    +0.001 A 
ATOM      5  C   UNL     1       5.718  -0.698  -4.939  0.00  0.00    +0.002 A 
ATOM      6  C   UNL     1       6.130  -1.338  -3.791  0.00  0.00    +0.026 A 
ATOM      7  C   UNL     1       5.298  -2.271  -3.180  0.00  0.00    +0.050 A 
ATOM      8  N   UNL     1       5.424  -3.054  -2.051  0.00  0.00    -0.343 N 
ATOM      9  C   UNL     1       4.313  -3.809  -1.876  0.00  0.00    +0.028 A 
ATOM     10  C   UNL     1       4.107  -4.786  -0.727  0.00  0.00    +0.054 C 
ATOM     11  C   UNL     1       4.042  -3.959   0.564  0.00  0.00    +0.008 C 
ATOM     12  C   UNL     1       5.425  -3.567   1.026  0.00  0.00    -0.027 C 
ATOM     13  C   UNL     1       6.128  -2.510   0.211  0.00  0.00    +0.023 C 
ATOM     14  C   UNL     1       6.596  -3.070  -1.146  0.00  0.00    +0.122 C 
ENDROOT
BRANCH   1  16
ATOM     15  C   UNL     1       0.887  -3.727  -2.540  0.00  0.00    +0.059 C 
ATOM     16  C   UNL     1       2.097  -4.185  -3.049  0.00  0.00    +0.059 C 
ATOM     17  C   UNL     1       1.785  -5.419  -3.799  0.00  0.00    +0.252 C 
ATOM     18  O   UNL     1       2.590  -6.111  -4.390  0.00  0.00    -0.270 OA
ATOM     19  N   UNL     1       0.464  -5.648  -3.718  0.00  0.00    -0.248 N 
ATOM     20  C   UNL     1      -0.137  -4.696  -2.985  0.00  0.00    +0.252 C 
ATOM     21  O   UNL     1      -1.324  -4.638  -2.733  0.00  0.00    -0.270 OA
ATOM     22  H   UNL     1       0.007  -6.399  -4.129  0.00  0.00    +0.158 HD
BRANCH  15  26
ATOM     23  C   UNL     1       0.361   1.063  -1.191  0.00  0.00    +0.149 C 
ATOM     24  N   UNL     1       0.433  -0.398  -1.101  0.00  0.00    -0.349 N 
ATOM     25  C   UNL     1       0.668  -1.231  -2.151  0.00  0.00    +0.095 A 
ATOM     26  C   UNL     1       0.670  -2.525  -1.718  0.00  0.00    +0.013 A 
ATOM     27  C   UNL     1       0.412  -2.483  -0.268  0.00  0.00    +0.008 A 
ATOM     28  C   UNL     1       0.278  -1.124   0.062  0.00  0.00    +0.049 A 
ATOM     29  C   UNL     1       0.030  -0.764   1.382  0.00  0.00    +0.026 A 
ATOM     30  C   UNL     1      -0.078  -1.738   2.352  0.00  0.00    +0.002 A 
ATOM     31  C   UNL     1       0.059  -3.079   2.025  0.00  0.00    +0.001 A 
ATOM     32  C   UNL     1       0.295  -3.456   0.721  0.00  0.00    +0.010 A 
ENDBRANCH  15  26
ENDBRANCH   1  16
BRANCH  12  33
ATOM     33  C   UNL     1       5.320  -3.065   2.467  0.00  0.00    -0.083 C 
BRANCH  33  34
ATOM     34  N   UNL     1       4.897  -4.168   3.341  0.00  0.00    +0.378 N 
ATOM     35  H   UNL     1       4.936  -3.869   4.304  0.00  0.00    -0.090 HD
ATOM     36  H   UNL     1       3.953  -4.436   3.110  0.00  0.00    -0.090 HD
ATOM     37  H   UNL     1       5.513  -4.957   3.209  0.00  0.00    -0.090 HD
ENDBRANCH  33  34
ENDBRANCH  12  33
TORSDOF 4
