REMARK  Name = CHEMBL105620
REMARK  2 active torsions:
REMARK  status: ('A' for Active; 'I' for Inactive)
REMARK    1  A    between atoms: C_1  and  N_2
REMARK    2  A    between atoms: N_27  and  C_36
REMARK                            x       y       z     vdW  Elec       q    Type
REMARK                         _______ _______ _______ _____ _____    ______ ____
ROOT
ATOM      1  C   UNL     1      -0.018   1.501   0.010  0.00  0.00    +0.105 C 
ATOM      2  N   UNL     1       0.002  -0.004   0.002  0.00  0.00    -0.301 NA
ATOM      3  C   UNL     1      -1.397  -0.416   0.299  0.00  0.00    +0.105 C 
ATOM      4  C   UNL     1      -1.838  -0.059   1.705  0.00  0.00    +0.137 C 
ATOM      5  N   UNL     1      -3.294  -0.234   1.833  0.00  0.00    -0.345 N 
ATOM      6  C   UNL     1      -3.961  -1.395   1.583  0.00  0.00    +0.095 A 
ATOM      7  C   UNL     1      -5.292  -1.222   1.757  0.00  0.00    +0.013 A 
ATOM      8  C   UNL     1      -5.465   0.183   2.212  0.00  0.00    +0.008 A 
ATOM      9  C   UNL     1      -4.181   0.750   2.205  0.00  0.00    +0.050 A 
ATOM     10  C   UNL     1      -4.041   2.093   2.529  0.00  0.00    +0.026 A 
ATOM     11  C   UNL     1      -5.137   2.846   2.888  0.00  0.00    +0.002 A 
ATOM     12  C   UNL     1      -6.398   2.274   2.943  0.00  0.00    +0.001 A 
ATOM     13  C   UNL     1      -6.561   0.941   2.618  0.00  0.00    +0.010 A 
ATOM     14  C   UNL     1      -6.433  -2.133   1.568  0.00  0.00    +0.059 C 
ATOM     15  C   UNL     1      -6.611  -3.506   1.690  0.00  0.00    +0.059 C 
ATOM     16  C   UNL     1      -5.732  -4.593   2.154  0.00  0.00    +0.013 A 
ATOM     17  C   UNL     1      -4.392  -4.629   2.396  0.00  0.00    +0.095 A 
ATOM     18  N   UNL     1      -4.006  -5.889   2.739  0.00  0.00    -0.345 N 
ATOM     19  C   UNL     1      -5.101  -6.731   2.759  0.00  0.00    +0.050 A 
ATOM     20  C   UNL     1      -6.230  -5.957   2.458  0.00  0.00    +0.008 A 
ATOM     21  C   UNL     1      -7.498  -6.533   2.541  0.00  0.00    +0.010 A 
ATOM     22  C   UNL     1      -7.612  -7.886   2.777  0.00  0.00    +0.001 A 
ATOM     23  C   UNL     1      -6.482  -8.658   2.983  0.00  0.00    +0.002 A 
ATOM     24  C   UNL     1      -5.226  -8.090   2.984  0.00  0.00    +0.026 A 
ATOM     25  C   UNL     1      -2.662  -6.349   3.063  0.00  0.00    +0.137 C 
ATOM     26  C   UNL     1      -1.841  -6.630   1.808  0.00  0.00    +0.105 C 
ATOM     27  N   UNL     1      -0.584  -7.299   2.248  0.00  0.00    -0.301 NA
ATOM     28  C   UNL     1       0.488  -6.810   1.339  0.00  0.00    +0.112 C 
ATOM     29  C   UNL     1       1.341  -5.836   2.153  0.00  0.00    +0.175 C 
ATOM     30  O   UNL     1       2.590  -5.651   1.486  0.00  0.00    -0.376 OA
ATOM     31  C   UNL     1       3.253  -4.443   1.878  0.00  0.00    +0.188 C 
ATOM     32  C   UNL     1       2.953  -3.350   0.847  0.00  0.00    +0.188 C 
ATOM     33  O   UNL     1       2.339  -2.246   1.516  0.00  0.00    -0.376 OA
ATOM     34  C   UNL     1       2.064  -1.124   0.679  0.00  0.00    +0.175 C 
ATOM     35  C   UNL     1       0.829  -0.383   1.196  0.00  0.00    +0.112 C 
ATOM     36  C   UNL     1      -0.743  -8.758   1.992  0.00  0.00    +0.105 C 
ATOM     37  C   UNL     1      -7.979  -3.765   1.159  0.00  0.00    +0.252 C 
ATOM     38  O   UNL     1      -8.465  -4.843   0.893  0.00  0.00    -0.270 OA
ATOM     39  N   UNL     1      -8.617  -2.602   0.981  0.00  0.00    -0.248 N 
ATOM     40  C   UNL     1      -7.761  -1.597   1.161  0.00  0.00    +0.252 C 
ATOM     41  O   UNL     1      -8.037  -0.427   0.982  0.00  0.00    -0.270 OA
ATOM     42  H   UNL     1      -9.554  -2.506   0.756  0.00  0.00    +0.158 HD
ENDROOT
TORSDOF 0
