REMARK  Name = CHEMBL367162
REMARK  12 active torsions:
REMARK  status: ('A' for Active; 'I' for Inactive)
REMARK    1  A    between atoms: C_8  and  N_34
REMARK    2  A    between atoms: C_10  and  O_11
REMARK    3  A    between atoms: O_11  and  C_12
REMARK    4  A    between atoms: C_12  and  C_14
REMARK    5  A    between atoms: C_16  and  O_33
REMARK    6  A    between atoms: C_17  and  C_21
REMARK    7  A    between atoms: C_18  and  O_20
REMARK    8  A    between atoms: C_21  and  C_23
REMARK    9  A    between atoms: C_24  and  C_30
REMARK   10  A    between atoms: C_28  and  O_29
REMARK   11  A    between atoms: C_35  and  C_37
REMARK   12  A    between atoms: C_40  and  O_43
REMARK                            x       y       z     vdW  Elec       q    Type
REMARK                         _______ _______ _______ _____ _____    ______ ____
ROOT
ATOM      1  C   UNL     1       5.661   0.252  -0.371  0.00  0.00    +0.340 C 
ATOM      2  O   UNL     1       5.717   0.606   0.789  0.00  0.00    -0.245 OA
ENDROOT
BRANCH   1   3
ATOM      3  C   UNL     1       6.682   0.716  -1.336  0.00  0.00    +0.066 A 
ATOM      4  C   UNL     1       6.612   0.313  -2.670  0.00  0.00    +0.061 A 
ATOM      5  C   UNL     1       7.565   0.744  -3.576  0.00  0.00    +0.132 A 
ATOM      6  C   UNL     1       8.603   1.588  -3.152  0.00  0.00    +0.105 A 
ATOM      7  C   UNL     1       8.669   1.991  -1.810  0.00  0.00    +0.132 A 
ATOM      8  C   UNL     1       7.709   1.560  -0.911  0.00  0.00    +0.061 A 
BRANCH   7   9
ATOM      9  O   UNL     1       9.670   2.807  -1.394  0.00  0.00    -0.506 OA
ATOM     10  H   UNL     1       9.435   3.745  -1.386  0.00  0.00    +0.292 HD
ENDBRANCH   7   9
BRANCH   6  11
ATOM     11  C   UNL     1       9.620   2.049  -4.113  0.00  0.00    +0.204 C 
ATOM     12  O   UNL     1       9.622   1.618  -5.250  0.00  0.00    -0.286 OA
BRANCH  11  13
ATOM     13  C   UNL     1      10.637   3.034  -3.695  0.00  0.00    +0.078 A 
ATOM     14  C   UNL     1      11.903   2.602  -3.249  0.00  0.00    +0.077 A 
ATOM     15  C   UNL     1      12.852   3.541  -2.858  0.00  0.00    +0.016 A 
ATOM     16  C   UNL     1      12.555   4.892  -2.909  0.00  0.00    +0.004 A 
ATOM     17  C   UNL     1      11.318   5.322  -3.345  0.00  0.00    +0.046 A 
ATOM     18  C   UNL     1      10.355   4.402  -3.745  0.00  0.00    +0.128 A 
BRANCH  14  19
ATOM     19  C   UNL     1      12.219   1.160  -3.195  0.00  0.00    +0.387 C 
ATOM     20  O   UNL     1      13.347   0.792  -2.900  0.00  0.00    -0.241 OA
ATOM     21  O   UNL     1      11.353   0.335  -3.445  0.00  0.00    -0.241 OA
ENDBRANCH  14  19
BRANCH  18  22
ATOM     22  O   UNL     1       9.143   4.831  -4.177  0.00  0.00    -0.506 OA
ATOM     23  H   UNL     1       8.508   4.996  -3.467  0.00  0.00    +0.292 HD
ENDBRANCH  18  22
ENDBRANCH  11  13
ENDBRANCH   6  11
BRANCH   5  24
ATOM     24  O   UNL     1       7.497   0.351  -4.873  0.00  0.00    -0.506 OA
ATOM     25  H   UNL     1       6.979   0.942  -5.436  0.00  0.00    +0.292 HD
ENDBRANCH   5  24
ENDBRANCH   1   3
BRANCH   1  26
ATOM     26  O   UNL     1       4.669  -0.562  -0.779  0.00  0.00    -0.451 OA
BRANCH  26  35
ATOM     27  C   UNL     1       0.134   1.340   0.318  0.00  0.00    +0.000 A 
ATOM     28  C   UNL     1       1.319   2.049   0.244  0.00  0.00    +0.000 A 
ATOM     29  C   UNL     1       2.524   1.374   0.204  0.00  0.00    +0.007 A 
ATOM     30  C   UNL     1       2.549  -0.010   0.238  0.00  0.00    -0.002 A 
ATOM     31  C   UNL     1       1.364  -0.718   0.311  0.00  0.00    -0.039 A 
ATOM     32  C   UNL     1       0.157  -0.040   0.351  0.00  0.00    +0.004 A 
ATOM     33  C   UNL     1       1.656  -2.203   0.334  0.00  0.00    +0.061 C 
ATOM     34  C   UNL     1       3.108  -2.337  -0.173  0.00  0.00    +0.123 C 
ATOM     35  C   UNL     1       3.718  -0.971   0.206  0.00  0.00    +0.228 C 
BRANCH  34  36
ATOM     36  N   UNL     1       3.137  -2.541  -1.623  0.00  0.00    -0.304 N 
ATOM     37  C   UNL     1       3.029  -3.785  -2.131  0.00  0.00    +0.244 C 
ATOM     38  O   UNL     1       2.906  -4.737  -1.385  0.00  0.00    -0.270 OA
ATOM     39  H   UNL     1       3.235  -1.781  -2.218  0.00  0.00    +0.149 HD
BRANCH  37  40
ATOM     40  C   UNL     1       3.058  -3.990  -3.592  0.00  0.00    +0.037 A 
ATOM     41  C   UNL     1       3.204  -2.897  -4.451  0.00  0.00    +0.016 A 
ATOM     42  C   UNL     1       3.232  -3.093  -5.813  0.00  0.00    +0.046 A 
ATOM     43  C   UNL     1       3.114  -4.376  -6.335  0.00  0.00    +0.117 A 
ATOM     44  C   UNL     1       2.968  -5.466  -5.485  0.00  0.00    +0.046 A 
ATOM     45  C   UNL     1       2.945  -5.279  -4.121  0.00  0.00    +0.016 A 
BRANCH  43  46
ATOM     46  O   UNL     1       3.140  -4.565  -7.679  0.00  0.00    -0.507 OA
ATOM     47  H   UNL     1       4.026  -4.713  -8.038  0.00  0.00    +0.292 HD
ENDBRANCH  43  46
ENDBRANCH  37  40
ENDBRANCH  34  36
ENDBRANCH  26  35
ENDBRANCH   1  26
TORSDOF 12
