REMARK  Name = CHEMBL91126
REMARK  11 active torsions:
REMARK  status: ('A' for Active; 'I' for Inactive)
REMARK    1  A    between atoms: C_3  and  O_39
REMARK    2  A    between atoms: C_6  and  C_7
REMARK    3  A    between atoms: N_9  and  C_10
REMARK    4  A    between atoms: C_14  and  O_15
REMARK    5  A    between atoms: O_15  and  C_16
REMARK    6  A    between atoms: C_16  and  C_18
REMARK    7  A    between atoms: C_20  and  O_38
REMARK    8  A    between atoms: C_21  and  C_25
REMARK    9  A    between atoms: C_22  and  O_24
REMARK   10  A    between atoms: C_25  and  C_27
REMARK   11  A    between atoms: C_28  and  O_37
REMARK                            x       y       z     vdW  Elec       q    Type
REMARK                         _______ _______ _______ _____ _____    ______ ____
ROOT
ATOM      1  C   UNL     1      -2.490  -5.304  -4.174  0.00  0.00    +0.066 A 
ATOM      2  C   UNL     1      -3.536  -4.468  -4.564  0.00  0.00    +0.061 A 
ATOM      3  C   UNL     1      -3.995  -4.493  -5.869  0.00  0.00    +0.132 A 
ATOM      4  C   UNL     1      -3.406  -5.361  -6.801  0.00  0.00    +0.105 A 
ATOM      5  C   UNL     1      -2.354  -6.200  -6.405  0.00  0.00    +0.132 A 
ATOM      6  C   UNL     1      -1.898  -6.165  -5.099  0.00  0.00    +0.061 A 
ENDROOT
BRANCH   1   7
ATOM      7  C   UNL     1      -2.002  -5.274  -2.777  0.00  0.00    +0.340 C 
ATOM      8  O   UNL     1      -1.089  -5.998  -2.437  0.00  0.00    -0.245 OA
BRANCH   7   9
ATOM      9  O   UNL     1      -2.573  -4.444  -1.883  0.00  0.00    -0.458 OA
BRANCH   9  14
ATOM     10  C   UNL     1      -2.206  -3.084   0.120  0.00  0.00    +0.095 C 
ATOM     11  C   UNL     1      -2.610  -3.386   1.575  0.00  0.00    -0.056 C 
ATOM     12  N   UNL     1      -2.650  -4.857   1.717  0.00  0.00    +0.383 N 
ATOM     13  C   UNL     1      -2.906  -5.390   0.354  0.00  0.00    -0.035 C 
ATOM     14  C   UNL     1      -2.052  -4.468  -0.552  0.00  0.00    +0.178 C 
ATOM     15  H   UNL     1      -1.765  -5.197   2.063  0.00  0.00    -0.086 HD
ATOM     16  H   UNL     1      -3.396  -5.127   2.341  0.00  0.00    -0.086 HD
BRANCH  10  19
ATOM     17  C   UNL     1      -0.925  -1.011   0.135  0.00  0.00    +0.244 C 
ATOM     18  O   UNL     1      -1.972  -0.399   0.207  0.00  0.00    -0.270 OA
ATOM     19  N   UNL     1      -0.934  -2.358   0.086  0.00  0.00    -0.307 N 
ATOM     20  H   UNL     1      -0.098  -2.847   0.028  0.00  0.00    +0.149 HD
BRANCH  17  26
ATOM     21  C   UNL     1       0.369   1.116   0.152  0.00  0.00    +0.016 A 
ATOM     22  C   UNL     1       1.567   1.795   0.120  0.00  0.00    +0.046 A 
ATOM     23  C   UNL     1       2.763   1.092   0.038  0.00  0.00    +0.117 A 
ATOM     24  C   UNL     1       2.756  -0.297  -0.013  0.00  0.00    +0.046 A 
ATOM     25  C   UNL     1       1.562  -0.982   0.018  0.00  0.00    +0.016 A 
ATOM     26  C   UNL     1       0.357  -0.280   0.101  0.00  0.00    +0.037 A 
BRANCH  23  27
ATOM     27  O   UNL     1       3.942   1.765   0.006  0.00  0.00    -0.507 OA
ATOM     28  H   UNL     1       4.325   1.927   0.879  0.00  0.00    +0.292 HD
ENDBRANCH  23  27
ENDBRANCH  17  26
ENDBRANCH  10  19
ENDBRANCH   9  14
ENDBRANCH   7   9
ENDBRANCH   1   7
BRANCH   5  29
ATOM     29  O   UNL     1      -1.781  -7.042  -7.302  0.00  0.00    -0.506 OA
ATOM     30  H   UNL     1      -0.985  -6.687  -7.721  0.00  0.00    +0.292 HD
ENDBRANCH   5  29
BRANCH   4  31
ATOM     31  C   UNL     1      -3.892  -5.392  -8.192  0.00  0.00    +0.204 C 
ATOM     32  O   UNL     1      -4.869  -4.740  -8.510  0.00  0.00    -0.286 OA
BRANCH  31  33
ATOM     33  C   UNL     1      -3.193  -6.212  -9.199  0.00  0.00    +0.067 A 
ATOM     34  C   UNL     1      -2.081  -5.694  -9.873  0.00  0.00    +0.128 A 
ATOM     35  C   UNL     1      -1.433  -6.473 -10.819  0.00  0.00    +0.046 A 
ATOM     36  C   UNL     1      -1.889  -7.745 -11.088  0.00  0.00    +0.007 A 
ATOM     37  C   UNL     1      -2.995  -8.267 -10.424  0.00  0.00    -0.043 A 
ATOM     38  C   UNL     1      -3.642  -7.513  -9.476  0.00  0.00    -0.030 A 
ATOM     39  C   UNL     1      -4.831  -8.023  -8.704  0.00  0.00    +0.036 C 
ATOM     40  C   UNL     1      -5.445  -9.235  -9.401  0.00  0.00    +0.005 C 
ATOM     41  C   UNL     1      -4.328 -10.245  -9.688  0.00  0.00    +0.005 C 
ATOM     42  C   UNL     1      -3.433  -9.663 -10.785  0.00  0.00    +0.035 C 
BRANCH  34  43
ATOM     43  O   UNL     1      -1.641  -4.439  -9.603  0.00  0.00    -0.506 OA
ATOM     44  H   UNL     1      -1.041  -4.387  -8.846  0.00  0.00    +0.292 HD
ENDBRANCH  34  43
ENDBRANCH  31  33
ENDBRANCH   4  31
BRANCH   3  45
ATOM     45  O   UNL     1      -5.013  -3.680  -6.247  0.00  0.00    -0.506 OA
ATOM     46  H   UNL     1      -4.726  -2.816  -6.574  0.00  0.00    +0.292 HD
ENDBRANCH   3  45
TORSDOF 11
