REMARK  Name = CHEMBL106384
REMARK  2 active torsions:
REMARK  status: ('A' for Active; 'I' for Inactive)
REMARK    1  A    between atoms: C_1  and  N_2
REMARK    2  A    between atoms: N_30  and  C_33
REMARK                            x       y       z     vdW  Elec       q    Type
REMARK                         _______ _______ _______ _____ _____    ______ ____
ROOT
ATOM      1  C   UNL     1      -0.018   1.500   0.010  0.00  0.00    +0.105 C 
ATOM      2  N   UNL     1       0.002  -0.004   0.002  0.00  0.00    -0.302 NA
ATOM      3  C   UNL     1      -1.414  -0.419   0.285  0.00  0.00    +0.105 C 
ATOM      4  C   UNL     1      -2.313   0.135  -0.810  0.00  0.00    +0.137 C 
ATOM      5  N   UNL     1      -3.557  -0.625  -0.924  0.00  0.00    -0.345 N 
ATOM      6  C   UNL     1      -3.718  -1.976  -0.955  0.00  0.00    +0.095 A 
ATOM      7  C   UNL     1      -5.026  -2.295  -1.088  0.00  0.00    +0.013 A 
ATOM      8  C   UNL     1      -5.766  -1.002  -1.082  0.00  0.00    +0.008 A 
ATOM      9  C   UNL     1      -4.793  -0.004  -1.013  0.00  0.00    +0.050 A 
ATOM     10  C   UNL     1      -5.154   1.338  -1.048  0.00  0.00    +0.026 A 
ATOM     11  C   UNL     1      -6.486   1.677  -1.131  0.00  0.00    +0.002 A 
ATOM     12  C   UNL     1      -7.463   0.691  -1.151  0.00  0.00    +0.001 A 
ATOM     13  C   UNL     1      -7.111  -0.643  -1.107  0.00  0.00    +0.010 A 
ATOM     14  C   UNL     1      -5.729  -3.584  -1.223  0.00  0.00    +0.059 C 
ATOM     15  C   UNL     1      -5.510  -4.868  -0.772  0.00  0.00    +0.059 C 
ATOM     16  C   UNL     1      -4.503  -5.496   0.099  0.00  0.00    +0.013 A 
ATOM     17  C   UNL     1      -3.271  -5.073   0.494  0.00  0.00    +0.095 A 
ATOM     18  N   UNL     1      -2.655  -6.025   1.244  0.00  0.00    -0.344 N 
ATOM     19  C   UNL     1      -3.501  -7.109   1.402  0.00  0.00    +0.050 A 
ATOM     20  C   UNL     1      -4.703  -6.816   0.749  0.00  0.00    +0.008 A 
ATOM     21  C   UNL     1      -5.768  -7.703   0.852  0.00  0.00    +0.010 A 
ATOM     22  C   UNL     1      -5.597  -8.911   1.492  0.00  0.00    +0.001 A 
ATOM     23  C   UNL     1      -4.378  -9.231   2.072  0.00  0.00    +0.002 A 
ATOM     24  C   UNL     1      -3.334  -8.336   2.037  0.00  0.00    +0.026 A 
ATOM     25  C   UNL     1      -1.317  -5.986   1.836  0.00  0.00    +0.150 C 
ATOM     26  C   UNL     1      -0.566  -4.719   1.437  0.00  0.00    +0.181 C 
ATOM     27  O   UNL     1       0.841  -4.927   1.575  0.00  0.00    -0.377 OA
ATOM     28  C   UNL     1       1.532  -3.864   2.232  0.00  0.00    +0.175 C 
ATOM     29  C   UNL     1       2.325  -3.042   1.216  0.00  0.00    +0.112 C 
ATOM     30  N   UNL     1       2.698  -1.736   1.822  0.00  0.00    -0.302 NA
ATOM     31  C   UNL     1       2.199  -0.672   0.904  0.00  0.00    +0.099 C 
ATOM     32  C   UNL     1       0.746  -0.369   1.253  0.00  0.00    +0.099 C 
ATOM     33  C   UNL     1       4.181  -1.654   1.829  0.00  0.00    +0.105 C 
ATOM     34  C   UNL     1      -6.577  -5.701  -1.424  0.00  0.00    +0.252 C 
ATOM     35  O   UNL     1      -6.653  -6.912  -1.419  0.00  0.00    -0.270 OA
ATOM     36  N   UNL     1      -7.448  -4.901  -2.046  0.00  0.00    -0.248 N 
ATOM     37  C   UNL     1      -7.001  -3.646  -2.018  0.00  0.00    +0.252 C 
ATOM     38  O   UNL     1      -7.529  -2.716  -2.595  0.00  0.00    -0.270 OA
ATOM     39  H   UNL     1      -8.282  -5.188  -2.448  0.00  0.00    +0.158 HD
ENDROOT
TORSDOF 0
