REMARK  Name = CHEMBL103506
REMARK  2 active torsions:
REMARK  status: ('A' for Active; 'I' for Inactive)
REMARK    1  A    between atoms: C_1  and  C_2
REMARK    2  A    between atoms: C_2  and  N_3
REMARK                            x       y       z     vdW  Elec       q    Type
REMARK                         _______ _______ _______ _____ _____    ______ ____
ROOT
ATOM      1  N   UNL     1       0.711  -0.490   1.190  0.00  0.00    +0.382 N 
ATOM      2  C   UNL     1       0.923  -1.942   1.129  0.00  0.00    -0.057 C 
ATOM      3  C   UNL     1      -0.390  -2.688   0.915  0.00  0.00    +0.103 C 
ATOM      4  N   UNL     1      -0.136  -4.132   0.881  0.00  0.00    -0.348 N 
ATOM      5  C   UNL     1       0.628  -4.834   1.763  0.00  0.00    +0.095 A 
ATOM      6  C   UNL     1       0.677  -6.138   1.409  0.00  0.00    +0.013 A 
ATOM      7  C   UNL     1      -0.207  -6.265   0.218  0.00  0.00    +0.008 A 
ATOM      8  C   UNL     1      -0.646  -4.971  -0.080  0.00  0.00    +0.050 A 
ATOM      9  C   UNL     1      -1.432  -4.764  -1.206  0.00  0.00    +0.026 A 
ATOM     10  C   UNL     1      -1.815  -5.830  -1.993  0.00  0.00    +0.002 A 
ATOM     11  C   UNL     1      -1.430  -7.128  -1.665  0.00  0.00    +0.001 A 
ATOM     12  C   UNL     1      -0.645  -7.338  -0.545  0.00  0.00    +0.010 A 
ATOM     13  C   UNL     1       1.404  -7.294   1.956  0.00  0.00    +0.059 C 
ATOM     14  C   UNL     1       1.898  -7.632   3.209  0.00  0.00    +0.059 C 
ATOM     15  C   UNL     1       1.907  -6.990   4.533  0.00  0.00    +0.013 A 
ATOM     16  C   UNL     1       1.796  -5.693   4.912  0.00  0.00    +0.095 A 
ATOM     17  N   UNL     1       1.940  -5.581   6.257  0.00  0.00    -0.344 N 
ATOM     18  C   UNL     1       2.137  -6.823   6.819  0.00  0.00    +0.050 A 
ATOM     19  C   UNL     1       2.080  -7.771   5.790  0.00  0.00    +0.008 A 
ATOM     20  C   UNL     1       2.145  -9.123   6.089  0.00  0.00    +0.010 A 
ATOM     21  C   UNL     1       2.384  -9.543   7.387  0.00  0.00    +0.001 A 
ATOM     22  C   UNL     1       2.510  -8.598   8.395  0.00  0.00    +0.002 A 
ATOM     23  C   UNL     1       2.380  -7.256   8.121  0.00  0.00    +0.026 A 
ATOM     24  C   UNL     1       1.890  -4.346   7.035  0.00  0.00    +0.150 C 
ATOM     25  C   UNL     1       2.047  -3.123   6.132  0.00  0.00    +0.181 C 
ATOM     26  O   UNL     1       2.543  -2.043   6.936  0.00  0.00    -0.376 OA
ATOM     27  C   UNL     1       1.874  -0.796   6.745  0.00  0.00    +0.188 C 
ATOM     28  C   UNL     1       2.164  -0.268   5.338  0.00  0.00    +0.187 C 
ATOM     29  O   UNL     1       0.957  -0.317   4.583  0.00  0.00    -0.379 OA
ATOM     30  C   UNL     1       0.944   0.496   3.413  0.00  0.00    +0.141 C 
ATOM     31  C   UNL     1      -0.028  -0.126   2.406  0.00  0.00    -0.050 C 
ATOM     32  C   UNL     1       2.599  -8.936   3.013  0.00  0.00    +0.252 C 
ATOM     33  O   UNL     1       3.271  -9.523   3.835  0.00  0.00    -0.270 OA
ATOM     34  N   UNL     1       2.408  -9.375   1.763  0.00  0.00    -0.248 N 
ATOM     35  C   UNL     1       1.779  -8.428   1.065  0.00  0.00    +0.252 C 
ATOM     36  O   UNL     1       1.595  -8.489  -0.137  0.00  0.00    -0.270 OA
ATOM     37  H   UNL     1       2.679 -10.239   1.423  0.00  0.00    +0.158 HD
ATOM     38  H   UNL     1       1.623  -0.035   1.220  0.00  0.00    -0.082 HD
ENDROOT
BRANCH   1  40
ATOM     39  C   UNL     1      -0.019   1.526   0.010  0.00  0.00    -0.017 C 
ATOM     40  C   UNL     1       0.002  -0.004   0.002  0.00  0.00    -0.082 C 
ENDBRANCH   1  40
TORSDOF 1
