REMARK  Name = CHEMBL148745
REMARK  13 active torsions:
REMARK  status: ('A' for Active; 'I' for Inactive)
REMARK    1  A    between atoms: C_1  and  C_2
REMARK    2  A    between atoms: C_2  and  C_3
REMARK    3  A    between atoms: C_2  and  O_12
REMARK    4  A    between atoms: C_3  and  C_4
REMARK    5  A    between atoms: C_4  and  C_5
REMARK    6  A    between atoms: C_8  and  O_11
REMARK    7  A    between atoms: O_12  and  C_13
REMARK    8  A    between atoms: C_13  and  C_15
REMARK    9  A    between atoms: C_17  and  O_34
REMARK   10  A    between atoms: C_18  and  C_22
REMARK   11  A    between atoms: C_22  and  C_24
REMARK   12  A    between atoms: C_25  and  C_31
REMARK   13  A    between atoms: C_29  and  O_30
REMARK                            x       y       z     vdW  Elec       q    Type
REMARK                         _______ _______ _______ _____ _____    ______ ____
ROOT
ATOM      1  C   UNL     1      -3.276  -1.237   1.283  0.00  0.00    +0.066 A 
ATOM      2  C   UNL     1      -3.861  -1.434   2.534  0.00  0.00    +0.061 A 
ATOM      3  C   UNL     1      -5.159  -1.906   2.627  0.00  0.00    +0.132 A 
ATOM      4  C   UNL     1      -5.886  -2.187   1.460  0.00  0.00    +0.110 A 
ATOM      5  C   UNL     1      -5.293  -1.987   0.204  0.00  0.00    +0.194 A 
ATOM      6  C   UNL     1      -3.996  -1.510   0.121  0.00  0.00    +0.066 A 
ATOM      7  O   UNL     1      -5.991  -2.257  -0.928  0.00  0.00    -0.287 OA
ENDROOT
BRANCH   1   8
ATOM      8  C   UNL     1      -1.888  -0.732   1.190  0.00  0.00    +0.340 C 
ATOM      9  O   UNL     1      -1.259  -0.494   2.201  0.00  0.00    -0.245 OA
BRANCH   8  10
ATOM     10  O   UNL     1      -1.323  -0.535  -0.017  0.00  0.00    -0.458 OA
BRANCH  10  12
ATOM     11  C   UNL     1       0.004   1.484  -0.049  0.00  0.00    +0.052 C 
ATOM     12  C   UNL     1       0.020  -0.046  -0.032  0.00  0.00    +0.174 C 
BRANCH  12  13
ATOM     13  C   UNL     1       0.737  -0.562  -1.282  0.00  0.00    +0.049 C 
BRANCH  13  14
ATOM     14  C   UNL     1       0.862  -2.085  -1.204  0.00  0.00    +0.039 C 
BRANCH  14  15
ATOM     15  C   UNL     1       1.568  -2.594  -2.434  0.00  0.00    -0.047 A 
ATOM     16  C   UNL     1       0.837  -2.937  -3.557  0.00  0.00    +0.007 A 
ATOM     17  C   UNL     1       1.482  -3.404  -4.686  0.00  0.00    +0.045 A 
ATOM     18  C   UNL     1       2.864  -3.529  -4.693  0.00  0.00    +0.117 A 
ATOM     19  C   UNL     1       3.595  -3.184  -3.565  0.00  0.00    +0.045 A 
ATOM     20  C   UNL     1       2.946  -2.712  -2.441  0.00  0.00    +0.007 A 
BRANCH  18  21
ATOM     21  O   UNL     1       3.501  -3.989  -5.802  0.00  0.00    -0.507 OA
ATOM     22  H   UNL     1       3.758  -3.295  -6.424  0.00  0.00    +0.292 HD
ENDBRANCH  18  21
ENDBRANCH  14  15
ENDBRANCH  13  14
ENDBRANCH  12  13
ENDBRANCH  10  12
ENDBRANCH   8  10
ENDBRANCH   1   8
BRANCH   4  23
ATOM     23  C   UNL     1      -7.268  -2.690   1.553  0.00  0.00    +0.205 C 
ATOM     24  O   UNL     1      -7.745  -2.959   2.639  0.00  0.00    -0.286 OA
BRANCH  23  25
ATOM     25  C   UNL     1      -8.072  -2.868   0.328  0.00  0.00    +0.078 A 
ATOM     26  C   UNL     1      -8.134  -4.126  -0.305  0.00  0.00    +0.077 A 
ATOM     27  C   UNL     1      -8.897  -4.279  -1.458  0.00  0.00    +0.016 A 
ATOM     28  C   UNL     1      -9.592  -3.201  -1.980  0.00  0.00    +0.004 A 
ATOM     29  C   UNL     1      -9.536  -1.967  -1.366  0.00  0.00    +0.046 A 
ATOM     30  C   UNL     1      -8.784  -1.791  -0.209  0.00  0.00    +0.128 A 
BRANCH  26  31
ATOM     31  C   UNL     1      -7.392  -5.274   0.252  0.00  0.00    +0.387 C 
ATOM     32  O   UNL     1      -7.369  -6.338  -0.351  0.00  0.00    -0.241 OA
ATOM     33  O   UNL     1      -6.800  -5.162   1.316  0.00  0.00    -0.241 OA
ENDBRANCH  26  31
BRANCH  30  34
ATOM     34  O   UNL     1      -8.738  -0.577   0.394  0.00  0.00    -0.506 OA
ATOM     35  H   UNL     1      -7.980  -0.036   0.132  0.00  0.00    +0.292 HD
ENDBRANCH  30  34
ENDBRANCH  23  25
ENDBRANCH   4  23
BRANCH   3  36
ATOM     36  O   UNL     1      -5.727  -2.098   3.844  0.00  0.00    -0.506 OA
ATOM     37  H   UNL     1      -6.194  -1.323   4.186  0.00  0.00    +0.292 HD
ENDBRANCH   3  36
TORSDOF 12
