REMARK  Name = CHEMBL105620
REMARK  2 active torsions:
REMARK  status: ('A' for Active; 'I' for Inactive)
REMARK    1  A    between atoms: C_1  and  N_2
REMARK    2  A    between atoms: N_27  and  C_36
REMARK                            x       y       z     vdW  Elec       q    Type
REMARK                         _______ _______ _______ _____ _____    ______ ____
ROOT
ATOM      1  C   UNL     1      -0.018   1.463   0.010  0.00  0.00    -0.096 C 
ATOM      2  N   UNL     1       0.002  -0.004   0.002  0.00  0.00    +0.380 N 
ATOM      3  C   UNL     1      -1.362  -0.528  -0.061  0.00  0.00    -0.057 C 
ATOM      4  C   UNL     1      -2.112  -0.333   1.254  0.00  0.00    +0.103 C 
ATOM      5  N   UNL     1      -3.532  -0.598   1.036  0.00  0.00    -0.348 N 
ATOM      6  C   UNL     1      -4.061  -1.756   0.551  0.00  0.00    +0.095 A 
ATOM      7  C   UNL     1      -5.402  -1.661   0.436  0.00  0.00    +0.013 A 
ATOM      8  C   UNL     1      -5.757  -0.303   0.950  0.00  0.00    +0.008 A 
ATOM      9  C   UNL     1      -4.548   0.311   1.284  0.00  0.00    +0.050 A 
ATOM     10  C   UNL     1      -4.555   1.630   1.750  0.00  0.00    +0.026 A 
ATOM     11  C   UNL     1      -5.749   2.308   1.893  0.00  0.00    +0.002 A 
ATOM     12  C   UNL     1      -6.946   1.667   1.601  0.00  0.00    +0.001 A 
ATOM     13  C   UNL     1      -6.951   0.366   1.149  0.00  0.00    +0.010 A 
ATOM     14  C   UNL     1      -6.425  -2.607  -0.064  0.00  0.00    +0.059 C 
ATOM     15  C   UNL     1      -6.542  -3.980  -0.034  0.00  0.00    +0.059 C 
ATOM     16  C   UNL     1      -5.736  -5.050   0.586  0.00  0.00    +0.013 A 
ATOM     17  C   UNL     1      -4.476  -5.029   1.090  0.00  0.00    +0.095 A 
ATOM     18  N   UNL     1      -4.109  -6.271   1.512  0.00  0.00    -0.345 N 
ATOM     19  C   UNL     1      -5.149  -7.154   1.313  0.00  0.00    +0.050 A 
ATOM     20  C   UNL     1      -6.230  -6.442   0.777  0.00  0.00    +0.008 A 
ATOM     21  C   UNL     1      -7.445  -7.094   0.591  0.00  0.00    +0.010 A 
ATOM     22  C   UNL     1      -7.532  -8.452   0.806  0.00  0.00    +0.001 A 
ATOM     23  C   UNL     1      -6.442  -9.184   1.257  0.00  0.00    +0.002 A 
ATOM     24  C   UNL     1      -5.256  -8.530   1.525  0.00  0.00    +0.026 A 
ATOM     25  C   UNL     1      -2.820  -6.638   2.092  0.00  0.00    +0.137 C 
ATOM     26  C   UNL     1      -1.792  -6.883   0.990  0.00  0.00    +0.105 C 
ATOM     27  N   UNL     1      -0.602  -7.558   1.574  0.00  0.00    -0.301 NA
ATOM     28  C   UNL     1       0.602  -6.969   0.925  0.00  0.00    +0.112 C 
ATOM     29  C   UNL     1       1.227  -5.976   1.905  0.00  0.00    +0.175 C 
ATOM     30  O   UNL     1       2.587  -5.714   1.535  0.00  0.00    -0.376 OA
ATOM     31  C   UNL     1       3.095  -4.511   2.126  0.00  0.00    +0.188 C 
ATOM     32  C   UNL     1       2.996  -3.389   1.092  0.00  0.00    +0.187 C 
ATOM     33  O   UNL     1       2.168  -2.355   1.629  0.00  0.00    -0.379 OA
ATOM     34  C   UNL     1       1.982  -1.233   0.760  0.00  0.00    +0.141 C 
ATOM     35  C   UNL     1       0.707  -0.493   1.183  0.00  0.00    -0.051 C 
ATOM     36  C   UNL     1      -0.662  -8.990   1.169  0.00  0.00    +0.105 C 
ATOM     37  C   UNL     1      -7.749  -4.298  -0.860  0.00  0.00    +0.252 C 
ATOM     38  O   UNL     1      -8.107  -5.390  -1.245  0.00  0.00    -0.270 OA
ATOM     39  N   UNL     1      -8.388  -3.158  -1.139  0.00  0.00    -0.248 N 
ATOM     40  C   UNL     1      -7.661  -2.111  -0.742  0.00  0.00    +0.252 C 
ATOM     41  O   UNL     1      -7.974  -0.950  -0.925  0.00  0.00    -0.270 OA
ATOM     42  H   UNL     1      -9.261  -3.104  -1.555  0.00  0.00    +0.158 HD
ATOM     43  H   UNL     1       0.505  -0.310  -0.828  0.00  0.00    -0.082 HD
ENDROOT
TORSDOF 0
