REMARK  Name = CHEMBL475816
REMARK  6 active torsions:
REMARK  status: ('A' for Active; 'I' for Inactive)
REMARK    1  A    between atoms: C_1  and  C_2
REMARK    2  A    between atoms: C_2  and  C_4
REMARK    3  A    between atoms: C_8  and  C_23
REMARK    4  A    between atoms: C_12  and  O_22
REMARK    5  A    between atoms: C_14  and  O_21
REMARK    6  A    between atoms: C_15  and  C_18
REMARK                            x       y       z     vdW  Elec       q    Type
REMARK                         _______ _______ _______ _____ _____    ______ ____
ROOT
ATOM      1  C   UNL     1      -0.107  -0.705  -1.219  0.00  0.00    +0.107 C 
ATOM      2  C   UNL     1      -0.199  -2.107  -1.215  0.00  0.00    +0.196 C 
ATOM      3  C   UNL     1      -0.093  -2.873  -2.386  0.00  0.00    +0.094 C 
ATOM      4  C   UNL     1       0.029  -2.299  -3.585  0.00  0.00    +0.127 C 
ATOM      5  C   UNL     1      -0.275  -0.800  -3.706  0.00  0.00    +0.120 C 
ATOM      6  C   UNL     1      -0.128   0.012  -2.445  0.00  0.00    +0.188 C 
ATOM      7  O   UNL     1      -0.028   1.222  -2.476  0.00  0.00    -0.290 OA
ATOM      8  C   UNL     1       0.779  -0.397  -4.709  0.00  0.00    +0.058 A 
ATOM      9  C   UNL     1       1.383   0.794  -5.056  0.00  0.00    +0.128 A 
ATOM     10  C   UNL     1       2.353   0.824  -6.051  0.00  0.00    +0.092 A 
ATOM     11  C   UNL     1       2.715  -0.344  -6.698  0.00  0.00    +0.136 A 
ATOM     12  C   UNL     1       2.104  -1.559  -6.353  0.00  0.00    +0.120 A 
ATOM     13  C   UNL     1       1.122  -1.586  -5.350  0.00  0.00    +0.152 A 
ATOM     14  O   UNL     1       0.376  -2.615  -4.846  0.00  0.00    -0.458 OA
ATOM     15  C   UNL     1      -1.675  -0.596  -4.288  0.00  0.00    +0.033 C 
ATOM     16  O   UNL     1      -0.397  -2.741  -0.041  0.00  0.00    -0.287 OA
ENDROOT
BRANCH  12  17
ATOM     17  C   UNL     1       2.492  -2.800  -7.038  0.00  0.00    +0.249 C 
ATOM     18  O   UNL     1       3.397  -3.482  -6.596  0.00  0.00    -0.270 OA
ATOM     19  N   UNL     1       1.844  -3.183  -8.157  0.00  0.00    -0.325 N 
ATOM     20  H   UNL     1       1.122  -2.640  -8.509  0.00  0.00    +0.145 HD
ATOM     21  H   UNL     1       2.100  -4.002  -8.609  0.00  0.00    +0.145 HD
ENDBRANCH  12  17
BRANCH   1  23
ATOM     22  C   UNL     1      -0.027   1.503   0.012  0.00  0.00    +0.092 C 
ATOM     23  C   UNL     1       0.002  -0.004   0.002  0.00  0.00    +0.167 C 
ATOM     24  O   UNL     1       0.119  -0.616   1.045  0.00  0.00    -0.292 OA
ENDBRANCH   1  23
BRANCH  11  25
ATOM     25  O   UNL     1       3.661  -0.314  -7.669  0.00  0.00    -0.506 OA
ATOM     26  H   UNL     1       4.562  -0.448  -7.344  0.00  0.00    +0.292 HD
ENDBRANCH  11  25
BRANCH   9  27
ATOM     27  O   UNL     1       1.029   1.941  -4.422  0.00  0.00    -0.506 OA
ATOM     28  H   UNL     1       1.553   2.132  -3.632  0.00  0.00    +0.292 HD
ENDBRANCH   9  27
TORSDOF 4
