REMARK  Name = CHEMBL492118
REMARK  14 active torsions:
REMARK  status: ('A' for Active; 'I' for Inactive)
REMARK    1  A    between atoms: C_1  and  C_2
REMARK    2  A    between atoms: C_5  and  C_8
REMARK    3  A    between atoms: C_9  and  C_10
REMARK    4  A    between atoms: C_13  and  O_16
REMARK    5  A    between atoms: O_16  and  C_17
REMARK    6  A    between atoms: C_17  and  C_18
REMARK    7  A    between atoms: C_18  and  C_19
REMARK    8  A    between atoms: C_19  and  O_21
REMARK    9  A    between atoms: O_21  and  C_22
REMARK   10  A    between atoms: C_22  and  C_23
REMARK   11  A    between atoms: C_23  and  C_32
REMARK   12  A    between atoms: C_26  and  C_27
REMARK   13  A    between atoms: C_26  and  C_28
REMARK   14  A    between atoms: C_32  and  O_33
REMARK                            x       y       z     vdW  Elec       q    Type
REMARK                         _______ _______ _______ _____ _____    ______ ____
ROOT
ATOM      1  C   UNL     1       0.156 -11.596   1.212  0.00  0.00    +0.240 C 
ENDROOT
BRANCH   1   2
ATOM      2  O   UNL     1       0.147 -10.941  -0.058  0.00  0.00    -0.491 OA
BRANCH   2   6
ATOM      3  C   UNL     1       0.093  -6.811  -0.035  0.00  0.00    +0.025 A 
ATOM      4  C   UNL     1       0.102  -7.505  -1.249  0.00  0.00    +0.020 A 
ATOM      5  C   UNL     1       0.120  -8.883  -1.251  0.00  0.00    +0.047 A 
ATOM      6  C   UNL     1       0.130  -9.582  -0.051  0.00  0.00    +0.121 A 
ATOM      7  C   UNL     1       0.121  -8.897   1.157  0.00  0.00    +0.047 A 
ATOM      8  C   UNL     1       0.108  -7.519   1.170  0.00  0.00    +0.020 A 
BRANCH   3  10
ATOM      9  C   UNL     1       0.059  -4.205  -0.021  0.00  0.00    -0.061 C 
ATOM     10  C   UNL     1       0.074  -5.379  -0.028  0.00  0.00    -0.061 C 
BRANCH   9  15
ATOM     11  C   UNL     1      -0.018   1.503   0.010  0.00  0.00    +0.044 C 
ATOM     12  C   UNL     1       0.002  -0.004   0.002  0.00  0.00    -0.050 A 
ATOM     13  C   UNL     1       0.006  -0.686  -1.202  0.00  0.00    +0.004 A 
ATOM     14  C   UNL     1       0.024  -2.065  -1.218  0.00  0.00    +0.017 A 
ATOM     15  C   UNL     1       0.040  -2.773  -0.013  0.00  0.00    +0.025 A 
ATOM     16  C   UNL     1       0.036  -2.078   1.199  0.00  0.00    +0.017 A 
ATOM     17  C   UNL     1       0.023  -0.699   1.198  0.00  0.00    +0.004 A 
ENDBRANCH   9  15
ENDBRANCH   3  10
ENDBRANCH   2   6
ENDBRANCH   1   2
BRANCH   1  18
ATOM     18  C   UNL     1       0.175 -13.112   1.003  0.00  0.00    +0.161 C 
BRANCH  18  19
ATOM     19  C   UNL     1       0.185 -13.803   2.342  0.00  0.00    +0.310 C 
ATOM     20  O   UNL     1       0.177 -13.151   3.358  0.00  0.00    -0.251 OA
BRANCH  19  21
ATOM     21  O   UNL     1       0.202 -15.144   2.405  0.00  0.00    -0.460 OA
BRANCH  21  22
ATOM     22  C   UNL     1       0.210 -15.732   3.707  0.00  0.00    +0.282 C 
BRANCH  22  23
ATOM     23  C   UNL     1       0.230 -17.257   3.578  0.00  0.00    +0.174 C 
ATOM     24  C   UNL     1       0.196 -17.916   4.973  0.00  0.00    +0.096 C 
ATOM     25  C   UNL     1       1.647 -18.310   5.204  0.00  0.00    +0.039 C 
ATOM     26  C   UNL     1       2.158 -18.932   6.263  0.00  0.00    -0.066 C 
ATOM     27  C   UNL     1       1.263 -19.326   7.410  0.00  0.00    +0.039 C 
ATOM     28  C   UNL     1       3.631 -19.243   6.317  0.00  0.00    +0.039 C 
ATOM     29  C   UNL     1       2.366 -17.853   3.998  0.00  0.00    +0.336 C 
ATOM     30  O   UNL     1       3.562 -17.654   3.917  0.00  0.00    -0.245 OA
ATOM     31  O   UNL     1       1.470 -17.695   2.998  0.00  0.00    -0.449 OA
BRANCH  23  32
ATOM     32  C   UNL     1      -0.952 -17.735   2.731  0.00  0.00    +0.207 C 
BRANCH  32  33
ATOM     33  O   UNL     1      -0.878 -17.143   1.433  0.00  0.00    -0.391 OA
ATOM     34  H   UNL     1      -1.598 -17.402   0.841  0.00  0.00    +0.210 HD
ENDBRANCH  32  33
ENDBRANCH  23  32
ENDBRANCH  22  23
ENDBRANCH  21  22
ENDBRANCH  19  21
ENDBRANCH  18  19
ENDBRANCH   1  18
TORSDOF 11
