REMARK  Name = CHEMBL89384
REMARK  11 active torsions:
REMARK  status: ('A' for Active; 'I' for Inactive)
REMARK    1  A    between atoms: C_3  and  C_36
REMARK    2  A    between atoms: C_4  and  C_8
REMARK    3  A    between atoms: C_5  and  O_7
REMARK    4  A    between atoms: C_8  and  C_10
REMARK    5  A    between atoms: C_11  and  O_35
REMARK    6  A    between atoms: C_13  and  C_17
REMARK    7  A    between atoms: C_17  and  O_19
REMARK    8  A    between atoms: O_19  and  C_20
REMARK    9  A    between atoms: C_24  and  N_25
REMARK   10  A    between atoms: C_26  and  C_28
REMARK   11  A    between atoms: C_31  and  O_34
REMARK                            x       y       z     vdW  Elec       q    Type
REMARK                         _______ _______ _______ _____ _____    ______ ____
ROOT
ATOM      1  C   UNL     1       3.697  -2.169   0.176  0.00  0.00    +0.110 A 
ATOM      2  C   UNL     1       4.902  -2.889   0.163  0.00  0.00    +0.132 A 
ATOM      3  C   UNL     1       4.879  -4.272   0.166  0.00  0.00    +0.061 A 
ATOM      4  C   UNL     1       3.660  -4.952   0.180  0.00  0.00    +0.066 A 
ATOM      5  C   UNL     1       2.461  -4.240   0.194  0.00  0.00    +0.066 A 
ATOM      6  C   UNL     1       2.475  -2.856   0.197  0.00  0.00    +0.194 A 
ATOM      7  O   UNL     1       1.307  -2.165   0.215  0.00  0.00    -0.287 OA
ENDROOT
BRANCH   1   8
ATOM      8  C   UNL     1       3.717  -0.695   0.174  0.00  0.00    +0.205 C 
ATOM      9  O   UNL     1       4.775  -0.101   0.259  0.00  0.00    -0.286 OA
BRANCH   8  13
ATOM     10  C   UNL     1       0.071   1.480  -0.125  0.00  0.00    +0.004 A 
ATOM     11  C   UNL     1       0.702   1.045  -1.276  0.00  0.00    +0.012 A 
ATOM     12  C   UNL     1       1.894   0.334  -1.193  0.00  0.00    +0.037 A 
ATOM     13  C   UNL     1       2.455   0.058   0.070  0.00  0.00    +0.075 A 
ATOM     14  C   UNL     1       1.802   0.506   1.226  0.00  0.00    +0.128 A 
ATOM     15  C   UNL     1       0.614   1.214   1.117  0.00  0.00    +0.046 A 
BRANCH  12  16
ATOM     16  C   UNL     1       2.569  -0.132  -2.424  0.00  0.00    +0.207 A 
ATOM     17  N   UNL     1       2.110  -0.032  -3.673  0.00  0.00    -0.106 NA
ATOM     18  N   UNL     1       2.994  -0.555  -4.453  0.00  0.00    -0.021 NA
ATOM     19  N   UNL     1       3.984  -0.979  -3.749  0.00  0.00    -0.021 NA
ATOM     20  N   UNL     1       3.759  -0.730  -2.504  0.00  0.00    -0.106 NA
ENDBRANCH  12  16
BRANCH  14  21
ATOM     21  O   UNL     1       2.331   0.248   2.449  0.00  0.00    -0.506 OA
ATOM     22  H   UNL     1       2.878   0.963   2.800  0.00  0.00    +0.292 HD
ENDBRANCH  14  21
ENDBRANCH   8  13
ENDBRANCH   1   8
BRANCH   4  23
ATOM     23  C   UNL     1       3.641  -6.431   0.182  0.00  0.00    +0.340 C 
ATOM     24  O   UNL     1       4.684  -7.052   0.170  0.00  0.00    -0.245 OA
BRANCH  23  25
ATOM     25  O   UNL     1       2.466  -7.089   0.196  0.00  0.00    -0.456 OA
BRANCH  25  26
ATOM     26  C   UNL     1       2.522  -8.517   0.197  0.00  0.00    +0.197 C 
ATOM     27  C   UNL     1       2.454  -9.049  -1.250  0.00  0.00    +0.046 C 
ATOM     28  C   UNL     1       1.603 -10.339  -1.140  0.00  0.00    +0.006 C 
ATOM     29  C   UNL     1       0.532  -9.954  -0.089  0.00  0.00    +0.026 C 
ATOM     30  C   UNL     1       1.300  -9.092   0.935  0.00  0.00    +0.114 C 
BRANCH  30  31
ATOM     31  N   UNL     1       0.446  -8.003   1.415  0.00  0.00    -0.305 N 
ATOM     32  C   UNL     1      -0.365  -8.200   2.474  0.00  0.00    +0.244 C 
ATOM     33  O   UNL     1      -0.387  -9.281   3.030  0.00  0.00    -0.270 OA
ATOM     34  H   UNL     1       0.463  -7.141   0.972  0.00  0.00    +0.149 HD
BRANCH  32  35
ATOM     35  C   UNL     1      -1.226  -7.103   2.958  0.00  0.00    +0.037 A 
ATOM     36  C   UNL     1      -1.206  -5.862   2.317  0.00  0.00    +0.016 A 
ATOM     37  C   UNL     1      -2.010  -4.841   2.772  0.00  0.00    +0.046 A 
ATOM     38  C   UNL     1      -2.842  -5.044   3.867  0.00  0.00    +0.117 A 
ATOM     39  C   UNL     1      -2.864  -6.277   4.508  0.00  0.00    +0.046 A 
ATOM     40  C   UNL     1      -2.067  -7.305   4.056  0.00  0.00    +0.016 A 
BRANCH  38  41
ATOM     41  O   UNL     1      -3.633  -4.035   4.313  0.00  0.00    -0.507 OA
ATOM     42  H   UNL     1      -4.508  -4.011   3.902  0.00  0.00    +0.292 HD
ENDBRANCH  38  41
ENDBRANCH  32  35
ENDBRANCH  30  31
ENDBRANCH  25  26
ENDBRANCH  23  25
ENDBRANCH   4  23
BRANCH   2  43
ATOM     43  O   UNL     1       6.087  -2.229   0.148  0.00  0.00    -0.506 OA
ATOM     44  H   UNL     1       6.441  -2.036   1.026  0.00  0.00    +0.292 HD
ENDBRANCH   2  43
TORSDOF 11
