REMARK  Name = CHEMBL48988
REMARK  11 active torsions:
REMARK  status: ('A' for Active; 'I' for Inactive)
REMARK    1  A    between atoms: C_3  and  C_34
REMARK    2  A    between atoms: C_4  and  C_8
REMARK    3  A    between atoms: C_5  and  O_7
REMARK    4  A    between atoms: C_8  and  C_10
REMARK    5  A    between atoms: C_11  and  O_33
REMARK    6  A    between atoms: C_13  and  C_17
REMARK    7  A    between atoms: C_17  and  O_19
REMARK    8  A    between atoms: O_19  and  C_20
REMARK    9  A    between atoms: C_24  and  O_25
REMARK   10  A    between atoms: O_25  and  C_26
REMARK   11  A    between atoms: C_29  and  O_32
REMARK                            x       y       z     vdW  Elec       q    Type
REMARK                         _______ _______ _______ _____ _____    ______ ____
ROOT
ATOM      1  C   UNL     1       3.966  -3.318   0.357  0.00  0.00    +0.110 A 
ATOM      2  C   UNL     1       5.183  -4.010   0.260  0.00  0.00    +0.132 A 
ATOM      3  C   UNL     1       5.185  -5.388   0.140  0.00  0.00    +0.061 A 
ATOM      4  C   UNL     1       3.979  -6.090   0.114  0.00  0.00    +0.066 A 
ATOM      5  C   UNL     1       2.767  -5.406   0.209  0.00  0.00    +0.066 A 
ATOM      6  C   UNL     1       2.756  -4.028   0.337  0.00  0.00    +0.194 A 
ATOM      7  O   UNL     1       1.577  -3.364   0.436  0.00  0.00    -0.287 OA
ENDROOT
BRANCH   1   8
ATOM      8  C   UNL     1       3.959  -1.850   0.485  0.00  0.00    +0.205 C 
ATOM      9  O   UNL     1       5.008  -1.245   0.602  0.00  0.00    -0.286 OA
BRANCH   8  13
ATOM     10  C   UNL     1       0.267   0.274   0.447  0.00  0.00    +0.004 A 
ATOM     11  C   UNL     1       0.883  -0.046  -0.751  0.00  0.00    +0.016 A 
ATOM     12  C   UNL     1       2.089  -0.739  -0.753  0.00  0.00    +0.077 A 
ATOM     13  C   UNL     1       2.680  -1.114   0.471  0.00  0.00    +0.078 A 
ATOM     14  C   UNL     1       2.045  -0.783   1.672  0.00  0.00    +0.128 A 
ATOM     15  C   UNL     1       0.840  -0.090   1.649  0.00  0.00    +0.046 A 
BRANCH  12  16
ATOM     16  C   UNL     1       2.747  -1.080  -2.030  0.00  0.00    +0.387 C 
ATOM     17  O   UNL     1       2.185  -0.842  -3.090  0.00  0.00    -0.241 OA
ATOM     18  O   UNL     1       3.853  -1.602  -2.028  0.00  0.00    -0.241 OA
ENDBRANCH  12  16
BRANCH  14  19
ATOM     19  O   UNL     1       2.602  -1.138   2.857  0.00  0.00    -0.506 OA
ATOM     20  H   UNL     1       3.144  -0.446   3.260  0.00  0.00    +0.292 HD
ENDBRANCH  14  19
ENDBRANCH   8  13
ENDBRANCH   1   8
BRANCH   4  21
ATOM     21  C   UNL     1       3.986  -7.564  -0.015  0.00  0.00    +0.340 C 
ATOM     22  O   UNL     1       5.040  -8.162  -0.099  0.00  0.00    -0.245 OA
BRANCH  21  23
ATOM     23  O   UNL     1       2.823  -8.243  -0.040  0.00  0.00    -0.454 OA
BRANCH  23  24
ATOM     24  C   UNL     1       2.904  -9.664  -0.167  0.00  0.00    +0.217 C 
ATOM     25  C   UNL     1       2.820 -10.068  -1.654  0.00  0.00    +0.048 C 
ATOM     26  C   UNL     1       1.994 -11.378  -1.645  0.00  0.00    +0.007 C 
ATOM     27  C   UNL     1       0.936 -11.108  -0.547  0.00  0.00    +0.048 C 
ATOM     28  C   UNL     1       1.706 -10.326   0.536  0.00  0.00    +0.214 C 
BRANCH  28  29
ATOM     29  O   UNL     1       2.167 -11.220   1.551  0.00  0.00    -0.485 OA
BRANCH  29  30
ATOM     30  C   UNL     1       1.314 -11.483   2.577  0.00  0.00    +0.121 A 
ATOM     31  C   UNL     1       0.017 -10.992   2.543  0.00  0.00    +0.049 A 
ATOM     32  C   UNL     1      -0.850 -11.258   3.585  0.00  0.00    +0.049 A 
ATOM     33  C   UNL     1      -0.424 -12.018   4.664  0.00  0.00    +0.117 A 
ATOM     34  C   UNL     1       0.872 -12.510   4.697  0.00  0.00    +0.049 A 
ATOM     35  C   UNL     1       1.738 -12.247   3.654  0.00  0.00    +0.049 A 
BRANCH  33  36
ATOM     36  O   UNL     1      -1.277 -12.280   5.690  0.00  0.00    -0.507 OA
ATOM     37  H   UNL     1      -1.793 -13.091   5.576  0.00  0.00    +0.292 HD
ENDBRANCH  33  36
ENDBRANCH  29  30
ENDBRANCH  28  29
ENDBRANCH  23  24
ENDBRANCH  21  23
ENDBRANCH   4  21
BRANCH   2  38
ATOM     38  O   UNL     1       6.356  -3.329   0.284  0.00  0.00    -0.506 OA
ATOM     39  H   UNL     1       6.723  -3.208   1.171  0.00  0.00    +0.292 HD
ENDBRANCH   2  38
TORSDOF 11
