REMARK  Name = CHEMBL163269
REMARK  7 active torsions:
REMARK  status: ('A' for Active; 'I' for Inactive)
REMARK    1  A    between atoms: C_10  and  C_11
REMARK    2  A    between atoms: C_12  and  C_18
REMARK    3  A    between atoms: N_20  and  C_27
REMARK    4  A    between atoms: C_27  and  C_28
REMARK    5  A    between atoms: C_28  and  C_29
REMARK    6  A    between atoms: C_29  and  S_30
REMARK    7  A    between atoms: S_30  and  C_31
REMARK                            x       y       z     vdW  Elec       q    Type
REMARK                         _______ _______ _______ _____ _____    ______ ____
ROOT
ATOM      1  C   UNL     1       5.654  -0.236  -2.495  0.00  0.00    +0.013 A 
ATOM      2  C   UNL     1       4.794   0.252  -3.440  0.00  0.00    +0.095 A 
ATOM      3  N   UNL     1       4.906  -0.477  -4.580  0.00  0.00    -0.346 N 
ATOM      4  C   UNL     1       5.848  -1.474  -4.423  0.00  0.00    +0.050 A 
ATOM      5  C   UNL     1       6.363  -1.367  -3.120  0.00  0.00    +0.008 A 
ATOM      6  C   UNL     1       7.345  -2.252  -2.683  0.00  0.00    +0.010 A 
ATOM      7  C   UNL     1       7.812  -3.229  -3.537  0.00  0.00    +0.001 A 
ATOM      8  C   UNL     1       7.307  -3.333  -4.824  0.00  0.00    +0.002 A 
ATOM      9  C   UNL     1       6.327  -2.470  -5.266  0.00  0.00    +0.026 A 
ENDROOT
BRANCH   1  11
ATOM     10  C   UNL     1       4.985   0.092  -0.046  0.00  0.00    +0.058 C 
ATOM     11  C   UNL     1       5.840   0.272  -1.130  0.00  0.00    +0.059 C 
ATOM     12  C   UNL     1       6.975   1.080  -0.625  0.00  0.00    +0.252 C 
ATOM     13  O   UNL     1       7.931   1.445  -1.278  0.00  0.00    -0.270 OA
ATOM     14  N   UNL     1       6.767   1.340   0.677  0.00  0.00    -0.248 N 
ATOM     15  C   UNL     1       5.611   0.795   1.090  0.00  0.00    +0.252 C 
ATOM     16  O   UNL     1       5.156   0.868   2.214  0.00  0.00    -0.270 OA
ATOM     17  H   UNL     1       7.368   1.853   1.240  0.00  0.00    +0.158 HD
BRANCH  10  27
ATOM     18  C   UNL     1      -0.016   1.358   0.009  0.00  0.00    +0.001 A 
ATOM     19  C   UNL     1       1.167   2.091   0.002  0.00  0.00    +0.001 A 
ATOM     20  C   UNL     1       2.379   1.465  -0.013  0.00  0.00    +0.009 A 
ATOM     21  C   UNL     1       2.435   0.067  -0.021  0.00  0.00    -0.010 A 
ATOM     22  C   UNL     1       1.233  -0.682  -0.013  0.00  0.00    -0.017 A 
ATOM     23  C   UNL     1       0.002  -0.004   0.002  0.00  0.00    +0.008 A 
ATOM     24  C   UNL     1       1.294  -2.086  -0.021  0.00  0.00    +0.008 A 
ATOM     25  C   UNL     1       2.494  -2.730  -0.034  0.00  0.00    +0.001 A 
ATOM     26  C   UNL     1       3.696  -2.037  -0.043  0.00  0.00    +0.009 A 
ATOM     27  C   UNL     1       3.711  -0.646  -0.037  0.00  0.00    -0.004 A 
ENDBRANCH  10  27
ENDBRANCH   1  11
BRANCH   3  28
ATOM     28  C   UNL     1       4.136  -0.239  -5.803  0.00  0.00    +0.122 C 
BRANCH  28  29
ATOM     29  C   UNL     1       2.903  -1.145  -5.814  0.00  0.00    +0.033 C 
BRANCH  29  30
ATOM     30  C   UNL     1       2.099  -0.897  -7.092  0.00  0.00    +0.079 C 
BRANCH  30  31
ATOM     31  S   UNL     1       0.637  -1.971  -7.104  0.00  0.00    -0.093 S 
BRANCH  31  32
ATOM     32  C   UNL     1      -0.172  -1.572  -8.617  0.00  0.00    +0.123 C 
ATOM     33  N   UNL     1      -0.891  -2.497  -9.253  0.00  0.00    -0.382 N 
ATOM     34  N   UNL     1      -0.066  -0.345  -9.126  0.00  0.00    -0.340 N 
ATOM     35  H   UNL     1      -0.968  -3.390  -8.883  0.00  0.00    +0.158 HD
ATOM     36  H   UNL     1       0.457   0.329  -8.664  0.00  0.00    +0.144 HD
ATOM     37  H   UNL     1      -0.512  -0.125  -9.959  0.00  0.00    +0.144 HD
ATOM     38  H   UNL     1      -1.337  -2.277 -10.086  0.00  0.00    +0.158 HD
ENDBRANCH  31  32
ENDBRANCH  30  31
ENDBRANCH  29  30
ENDBRANCH  28  29
ENDBRANCH   3  28
TORSDOF 7
