REMARK  Name = CHEMBL103628
REMARK  3 active torsions:
REMARK  status: ('A' for Active; 'I' for Inactive)
REMARK    1  A    between atoms: C_1  and  N_2
REMARK    2  A    between atoms: N_27  and  C_34
REMARK    3  A    between atoms: N_30  and  C_33
REMARK                            x       y       z     vdW  Elec       q    Type
REMARK                         _______ _______ _______ _____ _____    ______ ____
ROOT
ATOM      1  C   UNL     1      -0.018   1.463   0.010  0.00  0.00    -0.096 C 
ATOM      2  N   UNL     1       0.002  -0.004   0.002  0.00  0.00    +0.380 N 
ATOM      3  C   UNL     1      -1.361  -0.558   0.010  0.00  0.00    -0.057 C 
ATOM      4  C   UNL     1      -2.285   0.268  -0.882  0.00  0.00    +0.103 C 
ATOM      5  N   UNL     1      -3.538  -0.438  -1.201  0.00  0.00    -0.348 N 
ATOM      6  C   UNL     1      -3.739  -1.774  -1.335  0.00  0.00    +0.095 A 
ATOM      7  C   UNL     1      -5.026  -2.028  -1.664  0.00  0.00    +0.013 A 
ATOM      8  C   UNL     1      -5.719  -0.707  -1.671  0.00  0.00    +0.008 A 
ATOM      9  C   UNL     1      -4.722   0.245  -1.413  0.00  0.00    +0.050 A 
ATOM     10  C   UNL     1      -5.038   1.603  -1.423  0.00  0.00    +0.026 A 
ATOM     11  C   UNL     1      -6.339   1.992  -1.643  0.00  0.00    +0.002 A 
ATOM     12  C   UNL     1      -7.348   1.056  -1.841  0.00  0.00    +0.001 A 
ATOM     13  C   UNL     1      -7.039  -0.289  -1.837  0.00  0.00    +0.010 A 
ATOM     14  C   UNL     1      -5.762  -3.272  -1.988  0.00  0.00    +0.059 C 
ATOM     15  C   UNL     1      -5.663  -4.600  -1.615  0.00  0.00    +0.059 C 
ATOM     16  C   UNL     1      -4.803  -5.369  -0.677  0.00  0.00    +0.013 A 
ATOM     17  C   UNL     1      -3.588  -5.106  -0.130  0.00  0.00    +0.095 A 
ATOM     18  N   UNL     1      -3.173  -6.152   0.636  0.00  0.00    -0.345 N 
ATOM     19  C   UNL     1      -4.122  -7.153   0.615  0.00  0.00    +0.050 A 
ATOM     20  C   UNL     1      -5.206  -6.701  -0.155  0.00  0.00    +0.008 A 
ATOM     21  C   UNL     1      -6.366  -7.477  -0.243  0.00  0.00    +0.010 A 
ATOM     22  C   UNL     1      -6.393  -8.740   0.317  0.00  0.00    +0.001 A 
ATOM     23  C   UNL     1      -5.278  -9.206   1.003  0.00  0.00    +0.002 A 
ATOM     24  C   UNL     1      -4.152  -8.436   1.164  0.00  0.00    +0.026 A 
ATOM     25  C   UNL     1      -1.926  -6.259   1.406  0.00  0.00    +0.137 C 
ATOM     26  C   UNL     1      -0.814  -5.371   0.819  0.00  0.00    +0.105 C 
ATOM     27  N   UNL     1       0.493  -5.922   1.286  0.00  0.00    -0.302 NA
ATOM     28  C   UNL     1       1.262  -4.858   1.956  0.00  0.00    +0.099 C 
ATOM     29  C   UNL     1       1.686  -3.767   0.982  0.00  0.00    +0.099 C 
ATOM     30  N   UNL     1       1.946  -2.516   1.756  0.00  0.00    -0.306 NA
ATOM     31  C   UNL     1       1.879  -1.380   0.795  0.00  0.00    +0.065 C 
ATOM     32  C   UNL     1       0.717  -0.471   1.200  0.00  0.00    -0.064 C 
ATOM     33  C   UNL     1       3.345  -2.588   2.260  0.00  0.00    +0.104 C 
ATOM     34  C   UNL     1       1.250  -6.362   0.084  0.00  0.00    +0.105 C 
ATOM     35  C   UNL     1      -6.678  -5.324  -2.446  0.00  0.00    +0.252 C 
ATOM     36  O   UNL     1      -6.816  -6.522  -2.552  0.00  0.00    -0.270 OA
ATOM     37  N   UNL     1      -7.415  -4.419  -3.095  0.00  0.00    -0.248 N 
ATOM     38  C   UNL     1      -6.920  -3.198  -2.933  0.00  0.00    +0.252 C 
ATOM     39  O   UNL     1      -7.332  -2.204  -3.496  0.00  0.00    -0.270 OA
ATOM     40  H   UNL     1      -8.208  -4.628  -3.613  0.00  0.00    +0.158 HD
ATOM     41  H   UNL     1       0.493  -0.328  -0.820  0.00  0.00    -0.082 HD
ENDROOT
TORSDOF 0
