REMARK  Name = CHEMBL349382
REMARK  6 active torsions:
REMARK  status: ('A' for Active; 'I' for Inactive)
REMARK    1  A    between atoms: C_8  and  C_10
REMARK    2  A    between atoms: C_11  and  C_28
REMARK    3  A    between atoms: N_18  and  C_19
REMARK    4  A    between atoms: C_19  and  C_20
REMARK    5  A    between atoms: C_20  and  C_21
REMARK    6  A    between atoms: C_21  and  N_22
REMARK                            x       y       z     vdW  Elec       q    Type
REMARK                         _______ _______ _______ _____ _____    ______ ____
ROOT
ATOM      1  C   UNL     1       3.127  -4.008  -0.052  0.00  0.00    +0.065 A 
ATOM      2  C   UNL     1       2.598  -5.027   0.748  0.00  0.00    +0.021 A 
ATOM      3  C   UNL     1       3.332  -6.252   0.390  0.00  0.00    +0.008 A 
ATOM      4  C   UNL     1       3.266  -7.574   0.829  0.00  0.00    +0.010 A 
ATOM      5  C   UNL     1       4.110  -8.517   0.285  0.00  0.00    +0.001 A 
ATOM      6  C   UNL     1       5.022  -8.156  -0.696  0.00  0.00    +0.002 A 
ATOM      7  C   UNL     1       5.098  -6.853  -1.139  0.00  0.00    +0.026 A 
ATOM      8  C   UNL     1       4.254  -5.885  -0.603  0.00  0.00    +0.050 A 
ATOM      9  N   UNL     1       4.104  -4.534  -0.852  0.00  0.00    -0.339 N 
ENDROOT
BRANCH   1  17
ATOM     10  C   UNL     1      -0.016   1.354   0.009  0.00  0.00    +0.001 A 
ATOM     11  C   UNL     1       1.157   2.098   0.002  0.00  0.00    +0.001 A 
ATOM     12  C   UNL     1       2.375   1.448  -0.013  0.00  0.00    +0.015 A 
ATOM     13  C   UNL     1       2.410   0.071  -0.021  0.00  0.00    +0.020 A 
ATOM     14  C   UNL     1       1.231  -0.713  -0.013  0.00  0.00    -0.010 A 
ATOM     15  C   UNL     1       0.002  -0.004   0.002  0.00  0.00    +0.009 A 
ATOM     16  C   UNL     1       1.432  -2.104  -0.024  0.00  0.00    +0.026 A 
ATOM     17  C   UNL     1       2.700  -2.607  -0.039  0.00  0.00    +0.037 A 
ATOM     18  S   UNL     1       3.711  -1.136  -0.040  0.00  0.00    -0.087 S 
ENDBRANCH   1  17
BRANCH   2  19
ATOM     19  C   UNL     1       1.532  -4.899   1.740  0.00  0.00    +0.052 C 
ATOM     20  C   UNL     1       0.174  -5.053   1.531  0.00  0.00    +0.081 C 
ATOM     21  C   UNL     1      -0.467  -4.839   2.771  0.00  0.00    +0.244 C 
ATOM     22  O   UNL     1      -1.668  -4.896   2.955  0.00  0.00    -0.270 OA
ATOM     23  N   UNL     1       0.445  -4.563   3.718  0.00  0.00    -0.249 N 
ATOM     24  C   UNL     1       1.682  -4.584   3.187  0.00  0.00    +0.251 C 
ATOM     25  O   UNL     1       2.724  -4.380   3.777  0.00  0.00    -0.270 OA
ATOM     26  H   UNL     1       0.241  -4.379   4.648  0.00  0.00    +0.158 HD
ENDBRANCH   2  19
BRANCH   9  27
ATOM     27  C   UNL     1       4.884  -3.772  -1.830  0.00  0.00    +0.124 C 
BRANCH  27  28
ATOM     28  C   UNL     1       6.141  -3.216  -1.158  0.00  0.00    +0.040 C 
BRANCH  28  29
ATOM     29  C   UNL     1       6.956  -2.420  -2.180  0.00  0.00    +0.106 C 
BRANCH  29  30
ATOM     30  N   UNL     1       8.159  -1.887  -1.537  0.00  0.00    -0.319 N 
ATOM     31  C   UNL     1       9.046  -1.138  -2.260  0.00  0.00    +0.154 C 
ATOM     32  N   UNL     1       8.867  -0.856  -3.540  0.00  0.00    -0.360 N 
ATOM     33  C   UNL     1       9.992  -0.038  -4.019  0.00  0.00    +0.134 C 
ATOM     34  C   UNL     1      10.882   0.115  -2.768  0.00  0.00    +0.125 C 
ATOM     35  N   UNL     1      10.149  -0.631  -1.733  0.00  0.00    -0.317 N 
ATOM     36  H   UNL     1       8.328  -2.067  -0.599  0.00  0.00    +0.149 HD
ATOM     37  H   UNL     1      10.431  -0.736  -0.811  0.00  0.00    +0.149 HD
ATOM     38  H   UNL     1       8.113  -1.144  -4.078  0.00  0.00    +0.162 HD
ENDBRANCH  29  30
ENDBRANCH  28  29
ENDBRANCH  27  28
ENDBRANCH   9  27
TORSDOF 6
