REMARK  Name = CHEMBL284436
REMARK  10 active torsions:
REMARK  status: ('A' for Active; 'I' for Inactive)
REMARK    1  A    between atoms: C_4  and  C_7
REMARK    2  A    between atoms: C_7  and  C_8
REMARK    3  A    between atoms: C_8  and  N_32
REMARK    4  A    between atoms: C_14  and  C_18
REMARK    5  A    between atoms: N_20  and  C_21
REMARK    6  A    between atoms: C_21  and  C_23
REMARK    7  A    between atoms: C_21  and  C_30
REMARK    8  A    between atoms: C_23  and  C_24
REMARK    9  A    between atoms: C_24  and  C_25
REMARK   10  A    between atoms: C_25  and  N_26
REMARK                            x       y       z     vdW  Elec       q    Type
REMARK                         _______ _______ _______ _____ _____    ______ ____
ROOT
ATOM      1  C   UNL     1       4.171  -0.963   1.399  0.00  0.00    -0.051 C 
ATOM      2  C   UNL     1       4.371   0.374   2.123  0.00  0.00    +0.005 C 
ATOM      3  C   UNL     1       4.846   0.077   3.547  0.00  0.00    +0.101 C 
ATOM      4  N   UNL     1       6.053  -0.727   3.539  0.00  0.00    -0.240 NA
ATOM      5  C   UNL     1       7.239  -0.020   3.013  0.00  0.00    +0.104 C 
ATOM      6  C   UNL     1       8.254  -1.171   2.799  0.00  0.00    +0.046 C 
ATOM      7  C   UNL     1       7.380  -2.438   2.682  0.00  0.00    +0.160 C 
ATOM      8  N   UNL     1       5.971  -1.958   2.759  0.00  0.00    -0.230 NA
ATOM      9  C   UNL     1       5.505  -1.709   1.387  0.00  0.00    +0.090 C 
ENDROOT
BRANCH   7  10
ATOM     10  C   UNL     1       7.674  -3.382   3.819  0.00  0.00    +0.232 C 
ATOM     11  O   UNL     1       6.798  -3.679   4.603  0.00  0.00    -0.274 OA
ATOM     12  N   UNL     1       8.912  -3.895   3.966  0.00  0.00    -0.310 N 
ATOM     13  H   UNL     1       9.613  -3.657   3.339  0.00  0.00    +0.149 HD
BRANCH  12  14
ATOM     14  C   UNL     1       9.198  -4.812   5.072  0.00  0.00    +0.088 C 
BRANCH  14  15
ATOM     15  C   UNL     1       9.543  -4.007   6.326  0.00  0.00    +0.131 C 
ATOM     16 CL   UNL     1       8.148  -2.953   6.765  0.00  0.00    -0.124 Cl
ENDBRANCH  14  15
BRANCH  14  17
ATOM     17  C   UNL     1      10.382  -5.707   4.699  0.00  0.00    +0.025 C 
BRANCH  17  18
ATOM     18  C   UNL     1       9.993  -6.603   3.520  0.00  0.00    +0.023 C 
BRANCH  18  19
ATOM     19  C   UNL     1      11.177  -7.497   3.147  0.00  0.00    +0.115 C 
BRANCH  19  20
ATOM     20  N   UNL     1      10.805  -8.354   2.019  0.00  0.00    -0.358 N 
ATOM     21  C   UNL     1      11.709  -9.245   1.509  0.00  0.00    +0.166 C 
ATOM     22  N   UNL     1      11.371 -10.024   0.483  0.00  0.00    -0.372 N 
ATOM     23  N   UNL     1      12.929  -9.332   2.038  0.00  0.00    -0.372 N 
ATOM     24  H   UNL     1       9.916  -8.291   1.634  0.00  0.00    +0.162 HD
ATOM     25  H   UNL     1      10.483  -9.960   0.098  0.00  0.00    +0.159 HD
ATOM     26  H   UNL     1      13.175  -8.764   2.785  0.00  0.00    +0.159 HD
ATOM     27  H   UNL     1      13.570  -9.963   1.676  0.00  0.00    +0.159 HD
ATOM     28  H   UNL     1      12.012 -10.655   0.121  0.00  0.00    +0.159 HD
ENDBRANCH  19  20
ENDBRANCH  18  19
ENDBRANCH  17  18
ENDBRANCH  14  17
ENDBRANCH  12  14
ENDBRANCH   7  10
BRANCH   1  29
ATOM     29  N   UNL     1       3.163  -1.764   2.106  0.00  0.00    +0.383 N 
ATOM     30  H   UNL     1       3.041  -2.646   1.631  0.00  0.00    -0.089 HD
ATOM     31  H   UNL     1       3.470  -1.931   3.053  0.00  0.00    -0.089 HD
ATOM     32  H   UNL     1       2.286  -1.265   2.119  0.00  0.00    -0.089 HD
ENDBRANCH   1  29
BRANCH   1  33
ATOM     33  C   UNL     1       3.711  -0.707  -0.038  0.00  0.00    +0.023 C 
BRANCH  33  37
ATOM     34  C   UNL     1      -0.017   1.378   0.010  0.00  0.00    +0.000 A 
ATOM     35  C   UNL     1       1.171   2.086   0.002  0.00  0.00    +0.000 A 
ATOM     36  C   UNL     1       2.377   1.411  -0.013  0.00  0.00    +0.003 A 
ATOM     37  C   UNL     1       2.396   0.029  -0.020  0.00  0.00    -0.049 A 
ATOM     38  C   UNL     1       1.208  -0.679  -0.012  0.00  0.00    +0.003 A 
ATOM     39  C   UNL     1       0.002  -0.004   0.002  0.00  0.00    +0.000 A 
ENDBRANCH  33  37
ENDBRANCH   1  33
TORSDOF 10
