REMARK  Name = CHEMBL146564
REMARK  0 active torsions:
REMARK  status: ('A' for Active; 'I' for Inactive)
REMARK                            x       y       z     vdW  Elec       q    Type
REMARK                         _______ _______ _______ _____ _____    ______ ____
ROOT
ATOM      1  C   UNL     1      -0.017   1.381   0.010  0.00  0.00    +0.001 A 
ATOM      2  C   UNL     1       1.149   2.126   0.003  0.00  0.00    +0.002 A 
ATOM      3  C   UNL     1       2.402   1.537  -0.011  0.00  0.00    +0.026 A 
ATOM      4  C   UNL     1       2.448   0.144  -0.017  0.00  0.00    +0.052 A 
ATOM      5  C   UNL     1       1.257  -0.616  -0.013  0.00  0.00    +0.008 A 
ATOM      6  C   UNL     1       0.002  -0.004   0.002  0.00  0.00    +0.010 A 
ATOM      7  C   UNL     1       1.656  -2.021  -0.031  0.00  0.00    +0.023 A 
ATOM      8  C   UNL     1       0.958  -3.237  -0.046  0.00  0.00    +0.060 A 
ATOM      9  C   UNL     1       1.662  -4.453  -0.073  0.00  0.00    +0.060 A 
ATOM     10  C   UNL     1       3.064  -4.454  -0.087  0.00  0.00    +0.023 A 
ATOM     11  C   UNL     1       4.083  -5.500  -0.130  0.00  0.00    +0.008 A 
ATOM     12  C   UNL     1       3.987  -6.892  -0.163  0.00  0.00    +0.010 A 
ATOM     13  C   UNL     1       5.178  -7.598  -0.199  0.00  0.00    +0.001 A 
ATOM     14  C   UNL     1       6.405  -6.959  -0.202  0.00  0.00    +0.002 A 
ATOM     15  C   UNL     1       6.520  -5.579  -0.170  0.00  0.00    +0.026 A 
ATOM     16  C   UNL     1       5.335  -4.845  -0.131  0.00  0.00    +0.052 A 
ATOM     17  N   UNL     1       5.126  -3.487  -0.084  0.00  0.00    -0.320 N 
ATOM     18  C   UNL     1       3.762  -3.234  -0.063  0.00  0.00    +0.077 A 
ATOM     19  C   UNL     1       3.062  -2.024  -0.036  0.00  0.00    +0.077 A 
ATOM     20  N   UNL     1       3.522  -0.715  -0.021  0.00  0.00    -0.320 N 
ATOM     21  C   UNL     1       4.931  -0.323   0.008  0.00  0.00    +0.183 C 
ATOM     22  C   UNL     1       5.438  -0.048  -1.403  0.00  0.00    +0.201 C 
ATOM     23  O   UNL     1       5.644  -1.289  -2.085  0.00  0.00    -0.373 OA
ATOM     24  C   UNL     1       6.630  -2.110  -1.451  0.00  0.00    +0.201 C 
ATOM     25  C   UNL     1       6.169  -2.462  -0.041  0.00  0.00    +0.183 C 
ATOM     26  N   UNL     1       5.761  -1.300   0.686  0.00  0.00    -0.273 NA
ATOM     27  C   UNL     1       0.638  -5.514  -0.082  0.00  0.00    +0.252 C 
ATOM     28  O   UNL     1       0.856  -6.709  -0.102  0.00  0.00    -0.270 OA
ATOM     29  N   UNL     1      -0.577  -4.937  -0.064  0.00  0.00    -0.248 N 
ATOM     30  C   UNL     1      -0.471  -3.596  -0.042  0.00  0.00    +0.252 C 
ATOM     31  O   UNL     1      -1.400  -2.812  -0.022  0.00  0.00    -0.270 OA
ATOM     32  H   UNL     1       6.555  -0.859   1.125  0.00  0.00    +0.126 HD
ATOM     33  H   UNL     1      -1.416  -5.423  -0.067  0.00  0.00    +0.158 HD
ENDROOT
TORSDOF 0
