REMARK  Name = CHEMBL319265
REMARK  2 active torsions:
REMARK  status: ('A' for Active; 'I' for Inactive)
REMARK    1  A    between atoms: C_1  and  N_2
REMARK    2  A    between atoms: N_27  and  C_30
REMARK                            x       y       z     vdW  Elec       q    Type
REMARK                         _______ _______ _______ _____ _____    ______ ____
ROOT
ATOM      1  C   UNL     1      -0.018   1.498   0.010  0.00  0.00    +0.105 C 
ATOM      2  N   UNL     1       0.002  -0.004   0.002  0.00  0.00    -0.302 NA
ATOM      3  C   UNL     1      -1.425  -0.412   0.256  0.00  0.00    +0.105 C 
ATOM      4  C   UNL     1      -2.213  -0.188  -1.030  0.00  0.00    +0.137 C 
ATOM      5  N   UNL     1      -2.831  -1.434  -1.481  0.00  0.00    -0.345 N 
ATOM      6  C   UNL     1      -2.165  -2.558  -1.864  0.00  0.00    +0.095 A 
ATOM      7  C   UNL     1      -3.045  -3.506  -2.275  0.00  0.00    +0.013 A 
ATOM      8  C   UNL     1      -4.396  -2.925  -2.065  0.00  0.00    +0.008 A 
ATOM      9  C   UNL     1      -4.190  -1.620  -1.599  0.00  0.00    +0.050 A 
ATOM     10  C   UNL     1      -5.288  -0.791  -1.383  0.00  0.00    +0.026 A 
ATOM     11  C   UNL     1      -6.562  -1.272  -1.579  0.00  0.00    +0.002 A 
ATOM     12  C   UNL     1      -6.768  -2.576  -1.981  0.00  0.00    +0.001 A 
ATOM     13  C   UNL     1      -5.694  -3.406  -2.209  0.00  0.00    +0.010 A 
ATOM     14  C   UNL     1      -2.844  -4.852  -2.835  0.00  0.00    +0.059 C 
ATOM     15  C   UNL     1      -1.859  -5.814  -2.670  0.00  0.00    +0.059 C 
ATOM     16  C   UNL     1      -0.696  -5.910  -1.773  0.00  0.00    +0.013 A 
ATOM     17  C   UNL     1      -0.161  -4.981  -0.932  0.00  0.00    +0.095 A 
ATOM     18  N   UNL     1       0.970  -5.468  -0.353  0.00  0.00    -0.345 N 
ATOM     19  C   UNL     1       1.211  -6.755  -0.786  0.00  0.00    +0.050 A 
ATOM     20  C   UNL     1       0.153  -7.118  -1.628  0.00  0.00    +0.008 A 
ATOM     21  C   UNL     1       0.075  -8.429  -2.083  0.00  0.00    +0.010 A 
ATOM     22  C   UNL     1       1.105  -9.312  -1.845  0.00  0.00    +0.001 A 
ATOM     23  C   UNL     1       2.201  -8.918  -1.092  0.00  0.00    +0.002 A 
ATOM     24  C   UNL     1       2.249  -7.649  -0.556  0.00  0.00    +0.026 A 
ATOM     25  C   UNL     1       1.821  -4.774   0.615  0.00  0.00    +0.137 C 
ATOM     26  C   UNL     1       2.107  -3.354   0.142  0.00  0.00    +0.105 C 
ATOM     27  N   UNL     1       2.002  -2.450   1.317  0.00  0.00    -0.302 NA
ATOM     28  C   UNL     1       2.049  -1.045   0.827  0.00  0.00    +0.099 C 
ATOM     29  C   UNL     1       0.748  -0.368   1.255  0.00  0.00    +0.099 C 
ATOM     30  C   UNL     1       3.204  -2.661   2.164  0.00  0.00    +0.105 C 
ATOM     31  C   UNL     1      -2.159  -6.855  -3.693  0.00  0.00    +0.252 C 
ATOM     32  O   UNL     1      -1.443  -7.764  -4.047  0.00  0.00    -0.270 OA
ATOM     33  N   UNL     1      -3.374  -6.630  -4.202  0.00  0.00    -0.248 N 
ATOM     34  C   UNL     1      -3.830  -5.449  -3.778  0.00  0.00    +0.252 C 
ATOM     35  O   UNL     1      -4.869  -4.947  -4.153  0.00  0.00    -0.270 OA
ATOM     36  H   UNL     1      -3.845  -7.238  -4.789  0.00  0.00    +0.158 HD
ENDROOT
TORSDOF 0
