REMARK  Name = CHEMBL81130
REMARK  4 active torsions:
REMARK  status: ('A' for Active; 'I' for Inactive)
REMARK    1  A    between atoms: C_1  and  O_2
REMARK    2  A    between atoms: O_2  and  C_3
REMARK    3  A    between atoms: C_6  and  C_9
REMARK    4  A    between atoms: C_15  and  C_16
REMARK                            x       y       z     vdW  Elec       q    Type
REMARK                         _______ _______ _______ _____ _____    ______ ____
ROOT
ATOM      1  C   UNL     1      -4.974  -2.624   0.047  0.00  0.00    +0.125 C 
ATOM      2  N   UNL     1      -6.104  -2.016  -0.191  0.00  0.00    -0.073 NA
ATOM      3  O   UNL     1      -7.074  -2.923  -0.664  0.00  0.00    -0.311 OA
ATOM      4  C   UNL     1      -6.552  -4.162  -0.736  0.00  0.00    +0.368 C 
ATOM      5  O   UNL     1      -7.121  -5.173  -1.105  0.00  0.00    -0.242 OA
ATOM      6  C   UNL     1      -5.160  -4.050  -0.287  0.00  0.00    +0.091 C 
ATOM      7  C   UNL     1      -4.219  -5.067  -0.194  0.00  0.00    +0.032 C 
ENDROOT
BRANCH   1  11
ATOM      8  C   UNL     1      -1.405  -0.824   1.497  0.00  0.00    +0.120 A 
ATOM      9  C   UNL     1      -1.702  -2.139   1.829  0.00  0.00    +0.046 A 
ATOM     10  C   UNL     1      -2.858  -2.726   1.360  0.00  0.00    +0.014 A 
ATOM     11  C   UNL     1      -3.731  -1.996   0.552  0.00  0.00    +0.005 A 
ATOM     12  C   UNL     1      -3.430  -0.675   0.221  0.00  0.00    +0.014 A 
ATOM     13  C   UNL     1      -2.274  -0.093   0.697  0.00  0.00    +0.046 A 
BRANCH   8  15
ATOM     14  C   UNL     1       0.583  -1.058   2.777  0.00  0.00    +0.277 C 
ATOM     15  O   UNL     1      -0.265  -0.249   1.960  0.00  0.00    -0.495 OA
ENDBRANCH   8  15
ENDBRANCH   1  11
BRANCH   7  16
ATOM     16  C   UNL     1      -4.608  -6.403  -0.387  0.00  0.00    +0.013 A 
ATOM     17  C   UNL     1      -3.901  -7.449  -0.985  0.00  0.00    +0.015 A 
ATOM     18  C   UNL     1      -4.550  -8.654  -1.027  0.00  0.00    +0.008 A 
ATOM     19  C   UNL     1      -5.800  -8.752  -0.501  0.00  0.00    +0.046 A 
ATOM     20  S   UNL     1      -6.129  -7.209   0.076  0.00  0.00    -0.097 S 
ENDBRANCH   7  16
TORSDOF 3
