REMARK  Name = CHEMBL48988
REMARK  11 active torsions:
REMARK  status: ('A' for Active; 'I' for Inactive)
REMARK    1  A    between atoms: C_3  and  C_34
REMARK    2  A    between atoms: C_4  and  C_8
REMARK    3  A    between atoms: C_5  and  O_7
REMARK    4  A    between atoms: C_8  and  C_10
REMARK    5  A    between atoms: C_11  and  O_33
REMARK    6  A    between atoms: C_13  and  C_17
REMARK    7  A    between atoms: C_17  and  O_19
REMARK    8  A    between atoms: O_19  and  C_20
REMARK    9  A    between atoms: C_24  and  O_25
REMARK   10  A    between atoms: O_25  and  C_26
REMARK   11  A    between atoms: C_29  and  O_32
REMARK                            x       y       z     vdW  Elec       q    Type
REMARK                         _______ _______ _______ _____ _____    ______ ____
ROOT
ATOM      1  C   UNL     1       3.346  -1.708   0.320  0.00  0.00    +0.110 A 
ATOM      2  C   UNL     1       4.563  -2.386   0.491  0.00  0.00    +0.132 A 
ATOM      3  C   UNL     1       4.581  -3.768   0.550  0.00  0.00    +0.061 A 
ATOM      4  C   UNL     1       3.391  -4.489   0.440  0.00  0.00    +0.066 A 
ATOM      5  C   UNL     1       2.179  -3.820   0.271  0.00  0.00    +0.066 A 
ATOM      6  C   UNL     1       2.151  -2.437   0.217  0.00  0.00    +0.194 A 
ATOM      7  O   UNL     1       0.971  -1.787   0.058  0.00  0.00    -0.287 OA
ENDROOT
BRANCH   1   8
ATOM      8  C   UNL     1       3.322  -0.236   0.256  0.00  0.00    +0.205 C 
ATOM      9  O   UNL     1       4.342   0.397   0.446  0.00  0.00    -0.286 OA
BRANCH   8  13
ATOM     10  C   UNL     1      -0.324   1.799  -0.590  0.00  0.00    +0.004 A 
ATOM     11  C   UNL     1       0.461   1.341  -1.634  0.00  0.00    +0.016 A 
ATOM     12  C   UNL     1       1.654   0.674  -1.372  0.00  0.00    +0.077 A 
ATOM     13  C   UNL     1       2.059   0.469  -0.037  0.00  0.00    +0.078 A 
ATOM     14  C   UNL     1       1.255   0.938   1.006  0.00  0.00    +0.128 A 
ATOM     15  C   UNL     1       0.067   1.601   0.720  0.00  0.00    +0.046 A 
BRANCH  12  16
ATOM     16  C   UNL     1       2.490   0.185  -2.486  0.00  0.00    +0.387 C 
ATOM     17  O   UNL     1       2.090   0.277  -3.638  0.00  0.00    -0.241 OA
ATOM     18  O   UNL     1       3.584  -0.312  -2.256  0.00  0.00    -0.241 OA
ENDBRANCH  12  16
BRANCH  14  19
ATOM     19  O   UNL     1       1.633   0.747   2.295  0.00  0.00    -0.506 OA
ATOM     20  H   UNL     1       2.110   1.494   2.680  0.00  0.00    +0.292 HD
ENDBRANCH  14  19
ENDBRANCH   8  13
ENDBRANCH   1   8
BRANCH   4  21
ATOM     21  C   UNL     1       3.415  -5.967   0.504  0.00  0.00    +0.340 C 
ATOM     22  O   UNL     1       4.469  -6.551   0.651  0.00  0.00    -0.245 OA
BRANCH  21  23
ATOM     23  O   UNL     1       2.268  -6.664   0.398  0.00  0.00    -0.454 OA
BRANCH  23  24
ATOM     24  C   UNL     1       2.365  -8.088   0.468  0.00  0.00    +0.217 C 
ATOM     25  C   UNL     1       2.162  -8.561   1.923  0.00  0.00    +0.048 C 
ATOM     26  C   UNL     1       1.365  -9.882   1.785  0.00  0.00    +0.007 C 
ATOM     27  C   UNL     1       0.400  -9.578   0.613  0.00  0.00    +0.048 C 
ATOM     28  C   UNL     1       1.245  -8.735  -0.365  0.00  0.00    +0.214 C 
BRANCH  28  29
ATOM     29  O   UNL     1       0.434  -7.722  -0.965  0.00  0.00    -0.485 OA
BRANCH  29  30
ATOM     30  C   UNL     1      -0.241  -8.061  -2.095  0.00  0.00    +0.121 A 
ATOM     31  C   UNL     1      -0.224  -9.373  -2.546  0.00  0.00    +0.049 A 
ATOM     32  C   UNL     1      -0.910  -9.717  -3.695  0.00  0.00    +0.049 A 
ATOM     33  C   UNL     1      -1.616  -8.752  -4.396  0.00  0.00    +0.117 A 
ATOM     34  C   UNL     1      -1.634  -7.441  -3.945  0.00  0.00    +0.049 A 
ATOM     35  C   UNL     1      -0.952  -7.097  -2.794  0.00  0.00    +0.049 A 
BRANCH  33  36
ATOM     36  O   UNL     1      -2.291  -9.091  -5.527  0.00  0.00    -0.507 OA
ATOM     37  H   UNL     1      -3.205  -9.365  -5.373  0.00  0.00    +0.292 HD
ENDBRANCH  33  36
ENDBRANCH  29  30
ENDBRANCH  28  29
ENDBRANCH  23  24
ENDBRANCH  21  23
ENDBRANCH   4  21
BRANCH   2  38
ATOM     38  O   UNL     1       5.720  -1.686   0.597  0.00  0.00    -0.506 OA
ATOM     39  H   UNL     1       5.954  -1.447   1.504  0.00  0.00    +0.292 HD
ENDBRANCH   2  38
TORSDOF 11
