REMARK  Name = CHEMBL360304
REMARK  9 active torsions:
REMARK  status: ('A' for Active; 'I' for Inactive)
REMARK    1  A    between atoms: C_1  and  N_2
REMARK    2  A    between atoms: N_2  and  C_3
REMARK    3  A    between atoms: N_2  and  C_4
REMARK    4  A    between atoms: C_4  and  C_5
REMARK    5  A    between atoms: C_5  and  C_6
REMARK    6  A    between atoms: C_6  and  N_7
REMARK    7  A    between atoms: C_14  and  C_16
REMARK    8  A    between atoms: C_17  and  C_23
REMARK    9  A    between atoms: N_25  and  C_32
REMARK                            x       y       z     vdW  Elec       q    Type
REMARK                         _______ _______ _______ _____ _____    ______ ____
ROOT
ATOM      1  C   UNL     1      -5.148  -0.853  -5.993  0.00  0.00    +0.077 C 
ATOM      2  C   UNL     1      -4.633  -1.998  -6.590  0.00  0.00    +0.060 C 
ATOM      3  C   UNL     1      -5.182  -2.024  -7.966  0.00  0.00    +0.252 C 
ATOM      4  O   UNL     1      -4.961  -2.877  -8.802  0.00  0.00    -0.270 OA
ATOM      5  N   UNL     1      -5.966  -0.946  -8.133  0.00  0.00    -0.248 N 
ATOM      6  C   UNL     1      -6.001  -0.209  -7.010  0.00  0.00    +0.253 C 
ATOM      7  O   UNL     1      -6.630   0.820  -6.857  0.00  0.00    -0.270 OA
ATOM      8  H   UNL     1      -6.444  -0.731  -8.949  0.00  0.00    +0.158 HD
ENDROOT
BRANCH   1  16
ATOM      9  N   UNL     1      -3.994  -0.089  -2.611  0.00  0.00    -0.263 N 
ATOM     10  C   UNL     1      -5.094   0.731  -2.615  0.00  0.00    +0.070 A 
ATOM     11  C   UNL     1      -5.649   1.598  -1.676  0.00  0.00    +0.028 A 
ATOM     12  C   UNL     1      -6.790   2.301  -1.988  0.00  0.00    +0.002 A 
ATOM     13  C   UNL     1      -7.394   2.155  -3.231  0.00  0.00    +0.001 A 
ATOM     14  C   UNL     1      -6.866   1.311  -4.165  0.00  0.00    +0.012 A 
ATOM     15  C   UNL     1      -5.709   0.587  -3.871  0.00  0.00    +0.028 A 
ATOM     16  C   UNL     1      -4.896  -0.380  -4.620  0.00  0.00    +0.106 A 
ATOM     17  N   UNL     1      -3.899  -0.744  -3.843  0.00  0.00    -0.170 NA
BRANCH   9  18
ATOM     18  C   UNL     1      -3.061  -0.249  -1.493  0.00  0.00    +0.142 C 
BRANCH  18  19
ATOM     19  C   UNL     1      -1.933   0.778  -1.618  0.00  0.00    +0.005 C 
BRANCH  19  20
ATOM     20  C   UNL     1      -0.959   0.611  -0.451  0.00  0.00    -0.078 C 
BRANCH  20  22
ATOM     21  C   UNL     1      -0.429   2.950  -0.425  0.00  0.00    -0.097 C 
ATOM     22  N   UNL     1       0.123   1.597  -0.571  0.00  0.00    +0.376 N 
ATOM     23  C   UNL     1       1.121   1.360   0.481  0.00  0.00    -0.097 C 
ATOM     24  H   UNL     1       0.560   1.508  -1.476  0.00  0.00    -0.083 HD
ENDBRANCH  20  22
ENDBRANCH  19  20
ENDBRANCH  18  19
ENDBRANCH   9  18
ENDBRANCH   1  16
BRANCH   2  25
ATOM     25  C   UNL     1      -3.729  -2.983  -5.981  0.00  0.00    +0.013 A 
ATOM     26  C   UNL     1      -4.061  -3.938  -5.062  0.00  0.00    +0.101 A 
ATOM     27  N   UNL     1      -2.956  -4.662  -4.734  0.00  0.00    -0.315 N 
ATOM     28  C   UNL     1      -1.856  -4.200  -5.433  0.00  0.00    +0.054 A 
ATOM     29  C   UNL     1      -2.287  -3.138  -6.246  0.00  0.00    +0.008 A 
ATOM     30  C   UNL     1      -1.380  -2.480  -7.072  0.00  0.00    +0.010 A 
ATOM     31  C   UNL     1      -0.060  -2.877  -7.091  0.00  0.00    +0.001 A 
ATOM     32  C   UNL     1       0.365  -3.928  -6.292  0.00  0.00    +0.002 A 
ATOM     33  C   UNL     1      -0.520  -4.584  -5.463  0.00  0.00    +0.027 A 
BRANCH  27  34
ATOM     34  C   UNL     1      -2.936  -5.718  -3.822  0.00  0.00    +0.054 A 
ATOM     35  C   UNL     1      -3.631  -6.879  -4.088  0.00  0.00    +0.027 A 
ATOM     36  C   UNL     1      -3.617  -7.939  -3.186  0.00  0.00    +0.003 A 
ATOM     37  C   UNL     1      -2.919  -7.859  -2.018  0.00  0.00    +0.008 A 
ATOM     38  C   UNL     1      -2.198  -6.694  -1.710  0.00  0.00    -0.016 A 
ATOM     39  C   UNL     1      -2.200  -5.610  -2.623  0.00  0.00    +0.006 A 
ATOM     40  C   UNL     1      -1.474  -4.449  -2.316  0.00  0.00    +0.010 A 
ATOM     41  C   UNL     1      -0.775  -4.379  -1.150  0.00  0.00    +0.001 A 
ATOM     42  C   UNL     1      -0.768  -5.446  -0.254  0.00  0.00    +0.001 A 
ATOM     43  C   UNL     1      -1.469  -6.583  -0.513  0.00  0.00    +0.008 A 
ENDBRANCH  27  34
ENDBRANCH   2  25
TORSDOF 7
