REMARK  Name = CHEMBL48988
REMARK  12 active torsions:
REMARK  status: ('A' for Active; 'I' for Inactive)
REMARK    1  A    between atoms: C_3  and  C_34
REMARK    2  A    between atoms: C_4  and  C_8
REMARK    3  A    between atoms: C_5  and  O_7
REMARK    4  A    between atoms: C_8  and  C_10
REMARK    5  A    between atoms: C_11  and  O_33
REMARK    6  A    between atoms: C_13  and  C_17
REMARK    7  A    between atoms: C_15  and  O_16
REMARK    8  A    between atoms: C_17  and  O_19
REMARK    9  A    between atoms: O_19  and  C_20
REMARK   10  A    between atoms: C_24  and  O_25
REMARK   11  A    between atoms: O_25  and  C_26
REMARK   12  A    between atoms: C_29  and  O_32
REMARK                            x       y       z     vdW  Elec       q    Type
REMARK                         _______ _______ _______ _____ _____    ______ ____
ROOT
ATOM      1  C   UNL     1       3.357  -1.045  -0.481  0.00  0.00    +0.105 A 
ATOM      2  C   UNL     1       2.153  -1.763  -0.545  0.00  0.00    +0.132 A 
ATOM      3  C   UNL     1       2.167  -3.144  -0.455  0.00  0.00    +0.061 A 
ATOM      4  C   UNL     1       3.377  -3.822  -0.301  0.00  0.00    +0.066 A 
ATOM      5  C   UNL     1       4.576  -3.113  -0.236  0.00  0.00    +0.061 A 
ATOM      6  C   UNL     1       4.571  -1.732  -0.332  0.00  0.00    +0.132 A 
ENDROOT
BRANCH   1   7
ATOM      7  C   UNL     1       3.346   0.425  -0.576  0.00  0.00    +0.204 C 
ATOM      8  O   UNL     1       4.377   1.052  -0.424  0.00  0.00    -0.286 OA
BRANCH   7  12
ATOM      9  C   UNL     1      -0.297   2.480  -1.383  0.00  0.00    +0.004 A 
ATOM     10  C   UNL     1       0.460   1.995  -2.435  0.00  0.00    +0.016 A 
ATOM     11  C   UNL     1       1.652   1.323  -2.186  0.00  0.00    +0.077 A 
ATOM     12  C   UNL     1       2.084   1.137  -0.856  0.00  0.00    +0.078 A 
ATOM     13  C   UNL     1       1.307   1.633   0.195  0.00  0.00    +0.128 A 
ATOM     14  C   UNL     1       0.119   2.303  -0.079  0.00  0.00    +0.046 A 
BRANCH  11  15
ATOM     15  C   UNL     1       2.461   0.805  -3.308  0.00  0.00    +0.387 C 
ATOM     16  O   UNL     1       2.037   0.879  -4.452  0.00  0.00    -0.241 OA
ATOM     17  O   UNL     1       3.554   0.301  -3.092  0.00  0.00    -0.241 OA
ENDBRANCH  11  15
BRANCH  13  18
ATOM     18  O   UNL     1       1.710   1.462   1.479  0.00  0.00    -0.506 OA
ATOM     19  H   UNL     1       2.202   2.212   1.840  0.00  0.00    +0.292 HD
ENDBRANCH  13  18
ENDBRANCH   7  12
ENDBRANCH   1   7
BRANCH   6  20
ATOM     20  O   UNL     1       5.738  -1.043  -0.275  0.00  0.00    -0.506 OA
ATOM     21  H   UNL     1       6.001  -0.787   0.620  0.00  0.00    +0.292 HD
ENDBRANCH   6  20
BRANCH   4  22
ATOM     22  C   UNL     1       3.387  -5.299  -0.205  0.00  0.00    +0.340 C 
ATOM     23  O   UNL     1       2.344  -5.919  -0.260  0.00  0.00    -0.245 OA
BRANCH  22  24
ATOM     24  O   UNL     1       4.554  -5.956  -0.056  0.00  0.00    -0.454 OA
BRANCH  24  25
ATOM     25  C   UNL     1       4.489  -7.381   0.030  0.00  0.00    +0.217 C 
ATOM     26  C   UNL     1       4.405  -7.818   1.507  0.00  0.00    +0.048 C 
ATOM     27  C   UNL     1       5.255  -9.111   1.569  0.00  0.00    +0.007 C 
ATOM     28  C   UNL     1       6.430  -8.794   0.611  0.00  0.00    +0.048 C 
ATOM     29  C   UNL     1       5.777  -8.002  -0.539  0.00  0.00    +0.214 C 
BRANCH  29  30
ATOM     30  O   UNL     1       5.460  -8.880  -1.621  0.00  0.00    -0.485 OA
BRANCH  30  31
ATOM     31  C   UNL     1       6.435  -9.102  -2.542  0.00  0.00    +0.121 A 
ATOM     32  C   UNL     1       7.707  -8.587  -2.344  0.00  0.00    +0.049 A 
ATOM     33  C   UNL     1       8.698  -8.812  -3.280  0.00  0.00    +0.049 A 
ATOM     34  C   UNL     1       8.420  -9.554  -4.418  0.00  0.00    +0.117 A 
ATOM     35  C   UNL     1       7.148 -10.070  -4.617  0.00  0.00    +0.049 A 
ATOM     36  C   UNL     1       6.159  -9.848  -3.679  0.00  0.00    +0.049 A 
BRANCH  34  37
ATOM     37  O   UNL     1       9.395  -9.775  -5.340  0.00  0.00    -0.507 OA
ATOM     38  H   UNL     1       9.910 -10.578  -5.183  0.00  0.00    +0.292 HD
ENDBRANCH  34  37
ENDBRANCH  30  31
ENDBRANCH  29  30
ENDBRANCH  24  25
ENDBRANCH  22  24
ENDBRANCH   4  22
BRANCH   2  39
ATOM     39  O   UNL     1       0.976  -1.105  -0.694  0.00  0.00    -0.506 OA
ATOM     40  H   UNL     1       0.675  -1.039  -1.611  0.00  0.00    +0.292 HD
ENDBRANCH   2  39
TORSDOF 12
