REMARK  Name = CHEMBL367162
REMARK  11 active torsions:
REMARK  status: ('A' for Active; 'I' for Inactive)
REMARK    1  A    between atoms: C_8  and  N_34
REMARK    2  A    between atoms: C_10  and  O_11
REMARK    3  A    between atoms: O_11  and  C_12
REMARK    4  A    between atoms: C_12  and  C_14
REMARK    5  A    between atoms: C_16  and  O_33
REMARK    6  A    between atoms: C_17  and  C_21
REMARK    7  A    between atoms: C_21  and  C_23
REMARK    8  A    between atoms: C_24  and  C_30
REMARK    9  A    between atoms: C_28  and  O_29
REMARK   10  A    between atoms: C_35  and  C_37
REMARK   11  A    between atoms: C_40  and  O_43
REMARK                            x       y       z     vdW  Elec       q    Type
REMARK                         _______ _______ _______ _____ _____    ______ ____
ROOT
ATOM      1  C   UNL     1       5.503   0.291  -0.522  0.00  0.00    +0.340 C 
ATOM      2  O   UNL     1       5.520   0.595   0.653  0.00  0.00    -0.245 OA
ENDROOT
BRANCH   1   3
ATOM      3  C   UNL     1       6.566   0.777  -1.429  0.00  0.00    +0.066 A 
ATOM      4  C   UNL     1       7.591   1.581  -0.929  0.00  0.00    +0.061 A 
ATOM      5  C   UNL     1       8.589   2.038  -1.773  0.00  0.00    +0.132 A 
ATOM      6  C   UNL     1       8.568   1.691  -3.132  0.00  0.00    +0.110 A 
ATOM      7  C   UNL     1       7.535   0.882  -3.630  0.00  0.00    +0.194 A 
ATOM      8  C   UNL     1       6.545   0.426  -2.778  0.00  0.00    +0.066 A 
ATOM      9  O   UNL     1       7.510   0.545  -4.944  0.00  0.00    -0.287 OA
BRANCH   6  10
ATOM     10  C   UNL     1       9.627   2.175  -4.035  0.00  0.00    +0.205 C 
ATOM     11  O   UNL     1      10.464   2.958  -3.626  0.00  0.00    -0.286 OA
BRANCH  10  12
ATOM     12  C   UNL     1       9.673   1.711  -5.435  0.00  0.00    +0.078 A 
ATOM     13  C   UNL     1       9.075   2.477  -6.457  0.00  0.00    +0.077 A 
ATOM     14  C   UNL     1       9.126   2.027  -7.773  0.00  0.00    +0.016 A 
ATOM     15  C   UNL     1       9.762   0.835  -8.076  0.00  0.00    +0.004 A 
ATOM     16  C   UNL     1      10.349   0.081  -7.080  0.00  0.00    +0.046 A 
ATOM     17  C   UNL     1      10.316   0.512  -5.759  0.00  0.00    +0.128 A 
BRANCH  13  18
ATOM     18  C   UNL     1       8.397   3.747  -6.133  0.00  0.00    +0.387 C 
ATOM     19  O   UNL     1       7.797   4.360  -7.005  0.00  0.00    -0.241 OA
ATOM     20  O   UNL     1       8.435   4.187  -4.993  0.00  0.00    -0.241 OA
ENDBRANCH  13  18
BRANCH  17  21
ATOM     21  O   UNL     1      10.900  -0.231  -4.786  0.00  0.00    -0.506 OA
ATOM     22  H   UNL     1      10.293  -0.831  -4.332  0.00  0.00    +0.292 HD
ENDBRANCH  17  21
ENDBRANCH  10  12
ENDBRANCH   6  10
BRANCH   5  23
ATOM     23  O   UNL     1       9.585   2.820  -1.286  0.00  0.00    -0.506 OA
ATOM     24  H   UNL     1      10.353   2.326  -0.969  0.00  0.00    +0.292 HD
ENDBRANCH   5  23
ENDBRANCH   1   3
BRANCH   1  25
ATOM     25  O   UNL     1       4.515  -0.490  -1.001  0.00  0.00    -0.451 OA
BRANCH  25  34
ATOM     26  C   UNL     1      -0.030   1.439   0.004  0.00  0.00    +0.000 A 
ATOM     27  C   UNL     1       1.167   2.131   0.004  0.00  0.00    +0.000 A 
ATOM     28  C   UNL     1       2.362   1.439  -0.019  0.00  0.00    +0.007 A 
ATOM     29  C   UNL     1       2.366   0.054  -0.042  0.00  0.00    -0.002 A 
ATOM     30  C   UNL     1       1.169  -0.637  -0.043  0.00  0.00    -0.039 A 
ATOM     31  C   UNL     1      -0.029   0.058  -0.020  0.00  0.00    +0.004 A 
ATOM     32  C   UNL     1       1.438  -2.126  -0.071  0.00  0.00    +0.061 C 
ATOM     33  C   UNL     1       2.906  -2.263  -0.528  0.00  0.00    +0.123 C 
ATOM     34  C   UNL     1       3.521  -0.923  -0.070  0.00  0.00    +0.228 C 
BRANCH  33  35
ATOM     35  N   UNL     1       2.988  -2.408  -1.984  0.00  0.00    -0.304 N 
ATOM     36  C   UNL     1       2.880  -3.627  -2.547  0.00  0.00    +0.244 C 
ATOM     37  O   UNL     1       2.715  -4.608  -1.847  0.00  0.00    -0.270 OA
ATOM     38  H   UNL     1       3.119  -1.625  -2.542  0.00  0.00    +0.149 HD
BRANCH  36  39
ATOM     39  C   UNL     1       2.962  -3.773  -4.013  0.00  0.00    +0.037 A 
ATOM     40  C   UNL     1       3.157  -2.648  -4.819  0.00  0.00    +0.016 A 
ATOM     41  C   UNL     1       3.234  -2.789  -6.187  0.00  0.00    +0.046 A 
ATOM     42  C   UNL     1       3.117  -4.047  -6.766  0.00  0.00    +0.117 A 
ATOM     43  C   UNL     1       2.923  -5.168  -5.968  0.00  0.00    +0.046 A 
ATOM     44  C   UNL     1       2.851  -5.037  -4.599  0.00  0.00    +0.016 A 
BRANCH  42  45
ATOM     45  O   UNL     1       3.192  -4.181  -8.114  0.00  0.00    -0.507 OA
ATOM     46  H   UNL     1       4.088  -4.328  -8.446  0.00  0.00    +0.292 HD
ENDBRANCH  42  45
ENDBRANCH  36  39
ENDBRANCH  33  35
ENDBRANCH  25  34
ENDBRANCH   1  25
TORSDOF 11
