REMARK  Name = CHEMBL184146
REMARK  8 active torsions:
REMARK  status: ('A' for Active; 'I' for Inactive)
REMARK    1  A    between atoms: C_1  and  N_2
REMARK    2  A    between atoms: N_5  and  C_8
REMARK    3  A    between atoms: C_8  and  C_9
REMARK    4  A    between atoms: C_9  and  C_10
REMARK    5  A    between atoms: C_10  and  N_11
REMARK    6  A    between atoms: C_13  and  C_20
REMARK    7  A    between atoms: C_21  and  N_27
REMARK    8  A    between atoms: N_27  and  C_28
REMARK                            x       y       z     vdW  Elec       q    Type
REMARK                         _______ _______ _______ _____ _____    ______ ____
ROOT
ATOM      1  N   UNL     1       1.099  -6.811   2.956  0.00  0.00    -0.346 N 
ATOM      2  C   UNL     1       2.375  -7.082   3.350  0.00  0.00    +0.095 A 
ATOM      3  C   UNL     1       2.377  -7.490   4.649  0.00  0.00    +0.014 A 
ATOM      4  C   UNL     1       0.974  -7.467   5.099  0.00  0.00    +0.008 A 
ATOM      5  C   UNL     1       0.221  -7.028   3.997  0.00  0.00    +0.050 A 
ATOM      6  C   UNL     1      -1.158  -6.899   4.121  0.00  0.00    +0.026 A 
ATOM      7  C   UNL     1      -1.772  -7.198   5.318  0.00  0.00    +0.002 A 
ATOM      8  C   UNL     1      -1.027  -7.627   6.407  0.00  0.00    +0.001 A 
ATOM      9  C   UNL     1       0.340  -7.770   6.301  0.00  0.00    +0.010 A 
ENDROOT
BRANCH   3  10
ATOM     10  C   UNL     1       3.553  -7.878   5.450  0.00  0.00    +0.072 C 
ATOM     11  C   UNL     1       4.499  -7.033   5.997  0.00  0.00    +0.107 C 
ATOM     12  C   UNL     1       5.466  -7.897   6.702  0.00  0.00    +0.265 C 
ATOM     13  O   UNL     1       6.446  -7.515   7.311  0.00  0.00    -0.268 OA
ATOM     14  N   UNL     1       5.082  -9.177   6.558  0.00  0.00    -0.247 N 
ATOM     15  C   UNL     1       3.953  -9.248   5.833  0.00  0.00    +0.253 C 
ATOM     16  O   UNL     1       3.363 -10.268   5.538  0.00  0.00    -0.270 OA
ATOM     17  H   UNL     1       5.552  -9.941   6.929  0.00  0.00    +0.158 HD
BRANCH  11  18
ATOM     18  N   UNL     1       4.533  -5.650   5.904  0.00  0.00    -0.310 N 
ATOM     19  H   UNL     1       3.783  -5.123   6.221  0.00  0.00    +0.152 HD
BRANCH  18  20
ATOM     20  C   UNL     1       5.647  -5.015   5.352  0.00  0.00    +0.031 A 
ATOM     21  C   UNL     1       6.654  -5.767   4.758  0.00  0.00    +0.023 A 
ATOM     22  C   UNL     1       7.754  -5.135   4.213  0.00  0.00    +0.002 A 
ATOM     23  C   UNL     1       7.855  -3.757   4.258  0.00  0.00    +0.000 A 
ATOM     24  C   UNL     1       6.855  -3.006   4.848  0.00  0.00    +0.002 A 
ATOM     25  C   UNL     1       5.749  -3.630   5.391  0.00  0.00    +0.023 A 
ENDBRANCH  18  20
ENDBRANCH  11  18
ENDBRANCH   3  10
BRANCH   1  26
ATOM     26  C   UNL     1       0.716  -6.348   1.620  0.00  0.00    +0.120 C 
BRANCH  26  27
ATOM     27  C   UNL     1       0.628  -4.820   1.615  0.00  0.00    +0.003 C 
BRANCH  27  28
ATOM     28  C   UNL     1       0.228  -4.337   0.220  0.00  0.00    -0.077 C 
BRANCH  28  33
ATOM     29  C   UNL     1       0.812   1.161  -0.866  0.00  0.00    +0.104 C 
ATOM     30  N   UNL     1       0.861  -0.306  -0.819  0.00  0.00    -0.309 NA
ATOM     31  C   UNL     1      -0.463  -0.886  -1.087  0.00  0.00    +0.065 C 
ATOM     32  C   UNL     1      -0.356  -2.413  -1.088  0.00  0.00    -0.063 C 
ATOM     33  N   UNL     1       0.143  -2.870   0.215  0.00  0.00    +0.381 N 
ATOM     34  C   UNL     1       1.476  -2.302   0.458  0.00  0.00    -0.063 C 
ATOM     35  C   UNL     1       1.385  -0.775   0.472  0.00  0.00    +0.065 C 
ATOM     36  H   UNL     1      -0.488  -2.568   0.942  0.00  0.00    -0.082 HD
ENDBRANCH  28  33
ENDBRANCH  27  28
ENDBRANCH  26  27
ENDBRANCH   1  26
TORSDOF 7
