REMARK  Name = CHEMBL327723
REMARK  5 active torsions:
REMARK  status: ('A' for Active; 'I' for Inactive)
REMARK    1  A    between atoms: C_1  and  N_2
REMARK    2  A    between atoms: C_4  and  C_11
REMARK    3  A    between atoms: C_12  and  C_18
REMARK    4  A    between atoms: C_29  and  C_32
REMARK    5  A    between atoms: C_32  and  N_33
REMARK                            x       y       z     vdW  Elec       q    Type
REMARK                         _______ _______ _______ _____ _____    ______ ____
ROOT
ATOM      1  C   UNL     1       2.399  -3.157  -2.264  0.00  0.00    +0.016 A 
ATOM      2  C   UNL     1       2.843  -2.149  -3.245  0.00  0.00    +0.008 A 
ATOM      3  C   UNL     1       2.201  -1.438  -4.256  0.00  0.00    +0.010 A 
ATOM      4  C   UNL     1       2.917  -0.542  -5.020  0.00  0.00    +0.001 A 
ATOM      5  C   UNL     1       4.271  -0.347  -4.785  0.00  0.00    +0.002 A 
ATOM      6  C   UNL     1       4.918  -1.045  -3.789  0.00  0.00    +0.026 A 
ATOM      7  C   UNL     1       4.214  -1.954  -3.007  0.00  0.00    +0.050 A 
ATOM      8  N   UNL     1       4.573  -2.782  -1.964  0.00  0.00    -0.343 N 
ATOM      9  C   UNL     1       3.498  -3.482  -1.527  0.00  0.00    +0.028 A 
ATOM     10  C   UNL     1       3.529  -4.484  -0.382  0.00  0.00    +0.054 C 
ATOM     11  C   UNL     1       4.420  -5.651  -0.827  0.00  0.00    +0.008 C 
ATOM     12  C   UNL     1       5.882  -5.302  -0.680  0.00  0.00    -0.027 C 
ATOM     13  C   UNL     1       6.435  -4.309  -1.673  0.00  0.00    +0.023 C 
ATOM     14  C   UNL     1       5.933  -2.897  -1.390  0.00  0.00    +0.122 C 
ENDROOT
BRANCH   1  16
ATOM     15  C   UNL     1       0.026  -3.193  -1.300  0.00  0.00    +0.059 C 
ATOM     16  C   UNL     1       1.039  -3.699  -2.107  0.00  0.00    +0.059 C 
ATOM     17  C   UNL     1       0.475  -4.889  -2.776  0.00  0.00    +0.252 C 
ATOM     18  O   UNL     1       1.061  -5.604  -3.564  0.00  0.00    -0.270 OA
ATOM     19  N   UNL     1      -0.796  -5.049  -2.368  0.00  0.00    -0.248 N 
ATOM     20  C   UNL     1      -1.133  -4.090  -1.489  0.00  0.00    +0.252 C 
ATOM     21  O   UNL     1      -2.213  -3.977  -0.944  0.00  0.00    -0.270 OA
ATOM     22  H   UNL     1      -1.385  -5.760  -2.663  0.00  0.00    +0.158 HD
BRANCH  15  26
ATOM     23  C   UNL     1       0.147   1.571   0.224  0.00  0.00    +0.149 C 
ATOM     24  N   UNL     1       0.151   0.107   0.267  0.00  0.00    -0.349 N 
ATOM     25  C   UNL     1       0.064  -0.703  -0.823  0.00  0.00    +0.095 A 
ATOM     26  C   UNL     1       0.096  -2.008  -0.429  0.00  0.00    +0.013 A 
ATOM     27  C   UNL     1       0.214  -2.000   1.040  0.00  0.00    +0.008 A 
ATOM     28  C   UNL     1       0.249  -0.647   1.418  0.00  0.00    +0.049 A 
ATOM     29  C   UNL     1       0.364  -0.318   2.764  0.00  0.00    +0.026 A 
ATOM     30  C   UNL     1       0.445  -1.316   3.712  0.00  0.00    +0.002 A 
ATOM     31  C   UNL     1       0.414  -2.651   3.337  0.00  0.00    +0.001 A 
ATOM     32  C   UNL     1       0.291  -2.998   2.009  0.00  0.00    +0.010 A 
ENDBRANCH  15  26
ENDBRANCH   1  16
BRANCH  12  33
ATOM     33  C   UNL     1       6.694  -6.594  -0.797  0.00  0.00    -0.083 C 
BRANCH  33  34
ATOM     34  N   UNL     1       6.387  -7.469   0.342  0.00  0.00    +0.378 N 
ATOM     35  H   UNL     1       6.995  -8.274   0.321  0.00  0.00    -0.090 HD
ATOM     36  H   UNL     1       6.528  -6.963   1.203  0.00  0.00    -0.090 HD
ATOM     37  H   UNL     1       5.426  -7.773   0.284  0.00  0.00    -0.090 HD
ENDBRANCH  33  34
ENDBRANCH  12  33
TORSDOF 4
