REMARK  Name = CHEMBL26872
REMARK  0 active torsions:
REMARK  status: ('A' for Active; 'I' for Inactive)
REMARK                            x       y       z     vdW  Elec       q    Type
REMARK                         _______ _______ _______ _____ _____    ______ ____
ROOT
ATOM      1  C   UNL     1      -0.017   1.382   0.010  0.00  0.00    +0.001 A 
ATOM      2  C   UNL     1       1.149   2.128   0.003  0.00  0.00    +0.002 A 
ATOM      3  C   UNL     1       2.403   1.539  -0.010  0.00  0.00    +0.026 A 
ATOM      4  C   UNL     1       2.443   0.146  -0.016  0.00  0.00    +0.051 A 
ATOM      5  C   UNL     1       1.259  -0.609  -0.013  0.00  0.00    +0.008 A 
ATOM      6  C   UNL     1       0.002  -0.004   0.002  0.00  0.00    +0.010 A 
ATOM      7  C   UNL     1       1.671  -2.014  -0.033  0.00  0.00    +0.015 A 
ATOM      8  C   UNL     1       0.933  -3.192  -0.048  0.00  0.00    -0.008 A 
ATOM      9  C   UNL     1       1.580  -4.417  -0.075  0.00  0.00    +0.052 A 
ATOM     10  C   UNL     1       2.993  -4.447  -0.086  0.00  0.00    +0.022 A 
ATOM     11  C   UNL     1       3.935  -5.562  -0.125  0.00  0.00    +0.008 A 
ATOM     12  C   UNL     1       3.749  -6.946  -0.154  0.00  0.00    +0.010 A 
ATOM     13  C   UNL     1       4.894  -7.723  -0.191  0.00  0.00    +0.001 A 
ATOM     14  C   UNL     1       6.160  -7.161  -0.198  0.00  0.00    +0.002 A 
ATOM     15  C   UNL     1       6.360  -5.791  -0.167  0.00  0.00    +0.026 A 
ATOM     16  C   UNL     1       5.220  -4.990  -0.128  0.00  0.00    +0.051 A 
ATOM     17  N   UNL     1       5.094  -3.613  -0.079  0.00  0.00    -0.328 N 
ATOM     18  C   UNL     1       3.749  -3.266  -0.062  0.00  0.00    +0.076 A 
ATOM     19  C   UNL     1       3.081  -2.028  -0.036  0.00  0.00    +0.076 A 
ATOM     20  N   UNL     1       3.526  -0.717  -0.019  0.00  0.00    -0.328 N 
ATOM     21  C   UNL     1       4.891  -0.218   0.012  0.00  0.00    +0.193 C 
ATOM     22  S   UNL     1       6.024  -1.258   0.926  0.00  0.00    -0.118 S 
ATOM     23  C   UNL     1       6.260  -2.745  -0.040  0.00  0.00    +0.193 C 
ATOM     24  C   UNL     1       0.565  -5.481  -0.090  0.00  0.00    +0.245 C 
ATOM     25  O   UNL     1       0.807  -6.673  -0.115  0.00  0.00    -0.270 OA
ATOM     26  N   UNL     1      -0.670  -4.948  -0.070  0.00  0.00    -0.307 N 
ATOM     27  C   UNL     1      -0.547  -3.486  -0.043  0.00  0.00    +0.141 C 
ATOM     28  H   UNL     1      -1.502  -5.447  -0.074  0.00  0.00    +0.149 HD
ENDROOT
TORSDOF 0
