REMARK  Name = CHEMBL304549
REMARK  12 active torsions:
REMARK  status: ('A' for Active; 'I' for Inactive)
REMARK    1  A    between atoms: C_3  and  C_40
REMARK    2  A    between atoms: C_4  and  C_8
REMARK    3  A    between atoms: C_5  and  O_7
REMARK    4  A    between atoms: C_8  and  C_10
REMARK    5  A    between atoms: C_11  and  O_39
REMARK    6  A    between atoms: C_13  and  C_17
REMARK    7  A    between atoms: C_15  and  O_16
REMARK    8  A    between atoms: C_17  and  O_19
REMARK    9  A    between atoms: O_19  and  C_20
REMARK   10  A    between atoms: C_27  and  N_29
REMARK   11  A    between atoms: C_30  and  C_32
REMARK   12  A    between atoms: C_35  and  O_38
REMARK                            x       y       z     vdW  Elec       q    Type
REMARK                         _______ _______ _______ _____ _____    ______ ____
ROOT
ATOM      1  C   UNL     1       3.661  -2.174   0.539  0.00  0.00    +0.105 A 
ATOM      2  C   UNL     1       2.434  -2.855   0.502  0.00  0.00    +0.132 A 
ATOM      3  C   UNL     1       2.409  -4.236   0.583  0.00  0.00    +0.061 A 
ATOM      4  C   UNL     1       3.600  -4.952   0.700  0.00  0.00    +0.066 A 
ATOM      5  C   UNL     1       4.822  -4.280   0.737  0.00  0.00    +0.061 A 
ATOM      6  C   UNL     1       4.857  -2.899   0.650  0.00  0.00    +0.132 A 
ENDROOT
BRANCH   1   7
ATOM      7  C   UNL     1       3.693  -0.704   0.454  0.00  0.00    +0.204 C 
ATOM      8  O   UNL     1       4.746  -0.110   0.585  0.00  0.00    -0.286 OA
BRANCH   7  12
ATOM      9  C   UNL     1       0.096   1.467  -0.251  0.00  0.00    +0.004 A 
ATOM     10  C   UNL     1       0.815   0.970  -1.325  0.00  0.00    +0.016 A 
ATOM     11  C   UNL     1       1.991   0.259  -1.109  0.00  0.00    +0.077 A 
ATOM     12  C   UNL     1       2.447   0.049   0.209  0.00  0.00    +0.078 A 
ATOM     13  C   UNL     1       1.709   0.558   1.282  0.00  0.00    +0.128 A 
ATOM     14  C   UNL     1       0.536   1.265   1.041  0.00  0.00    +0.046 A 
BRANCH  11  15
ATOM     15  C   UNL     1       2.758  -0.272  -2.253  0.00  0.00    +0.387 C 
ATOM     16  O   UNL     1       2.310  -0.175  -3.387  0.00  0.00    -0.241 OA
ATOM     17  O   UNL     1       3.841  -0.809  -2.067  0.00  0.00    -0.241 OA
ENDBRANCH  11  15
BRANCH  13  18
ATOM     18  O   UNL     1       2.136   0.362   2.554  0.00  0.00    -0.506 OA
ATOM     19  H   UNL     1       2.659   1.094   2.910  0.00  0.00    +0.292 HD
ENDBRANCH  13  18
ENDBRANCH   7  12
ENDBRANCH   1   7
BRANCH   6  20
ATOM     20  O   UNL     1       6.046  -2.246   0.680  0.00  0.00    -0.506 OA
ATOM     21  H   UNL     1       6.340  -2.005   1.569  0.00  0.00    +0.292 HD
ENDBRANCH   6  20
BRANCH   4  22
ATOM     22  C   UNL     1       3.568  -6.429   0.786  0.00  0.00    +0.340 C 
ATOM     23  O   UNL     1       2.506  -7.016   0.754  0.00  0.00    -0.245 OA
BRANCH  22  24
ATOM     24  O   UNL     1       4.717  -7.122   0.899  0.00  0.00    -0.456 OA
BRANCH  24  25
ATOM     25  C   UNL     1       4.612  -8.545   0.977  0.00  0.00    +0.197 C 
ATOM     26  C   UNL     1       4.448  -8.953   2.456  0.00  0.00    +0.046 C 
ATOM     27  C   UNL     1       3.839 -10.328   2.507  0.00  0.00    +0.004 C 
ATOM     28  C   UNL     1       4.901 -11.439   2.615  0.00  0.00    +0.000 C 
ATOM     29  C   UNL     1       6.120 -11.191   1.706  0.00  0.00    +0.002 C 
ATOM     30  C   UNL     1       5.729 -10.681   0.346  0.00  0.00    +0.026 C 
ATOM     31  C   UNL     1       5.791  -9.139   0.367  0.00  0.00    +0.114 C 
BRANCH  31  32
ATOM     32  N   UNL     1       5.910  -8.652  -1.010  0.00  0.00    -0.305 N 
ATOM     33  C   UNL     1       7.114  -8.626  -1.614  0.00  0.00    +0.244 C 
ATOM     34  O   UNL     1       8.102  -9.006  -1.017  0.00  0.00    -0.270 OA
ATOM     35  H   UNL     1       5.121  -8.349  -1.486  0.00  0.00    +0.149 HD
BRANCH  33  36
ATOM     36  C   UNL     1       7.233  -8.135  -3.001  0.00  0.00    +0.037 A 
ATOM     37  C   UNL     1       6.099  -7.692  -3.687  0.00  0.00    +0.016 A 
ATOM     38  C   UNL     1       6.214  -7.234  -4.981  0.00  0.00    +0.046 A 
ATOM     39  C   UNL     1       7.456  -7.213  -5.605  0.00  0.00    +0.117 A 
ATOM     40  C   UNL     1       8.586  -7.653  -4.926  0.00  0.00    +0.046 A 
ATOM     41  C   UNL     1       8.480  -8.107  -3.630  0.00  0.00    +0.016 A 
BRANCH  39  42
ATOM     42  O   UNL     1       7.566  -6.763  -6.880  0.00  0.00    -0.507 OA
ATOM     43  H   UNL     1       7.735  -5.813  -6.948  0.00  0.00    +0.292 HD
ENDBRANCH  39  42
ENDBRANCH  33  36
ENDBRANCH  31  32
ENDBRANCH  24  25
ENDBRANCH  22  24
ENDBRANCH   4  22
BRANCH   2  44
ATOM     44  O   UNL     1       1.275  -2.159   0.389  0.00  0.00    -0.506 OA
ATOM     45  H   UNL     1       0.952  -2.078  -0.519  0.00  0.00    +0.292 HD
ENDBRANCH   2  44
TORSDOF 12
