REMARK  Name = CHEMBL263910
REMARK  11 active torsions:
REMARK  status: ('A' for Active; 'I' for Inactive)
REMARK    1  A    between atoms: C_3  and  C_43
REMARK    2  A    between atoms: C_4  and  C_8
REMARK    3  A    between atoms: C_5  and  O_7
REMARK    4  A    between atoms: C_8  and  C_10
REMARK    5  A    between atoms: C_11  and  O_42
REMARK    6  A    between atoms: C_13  and  C_17
REMARK    7  A    between atoms: C_17  and  O_19
REMARK    8  A    between atoms: O_19  and  C_20
REMARK    9  A    between atoms: C_22  and  N_32
REMARK   10  A    between atoms: C_33  and  C_35
REMARK   11  A    between atoms: C_38  and  O_41
REMARK                            x       y       z     vdW  Elec       q    Type
REMARK                         _______ _______ _______ _____ _____    ______ ____
ROOT
ATOM      1  C   UNL     1       3.512  -6.393   0.802  0.00  0.00    +0.340 C 
ATOM      2  O   UNL     1       4.540  -7.035   0.886  0.00  0.00    -0.245 OA
ENDROOT
BRANCH   1   6
ATOM      3  C   UNL     1       3.670  -2.144   0.500  0.00  0.00    +0.110 A 
ATOM      4  C   UNL     1       4.856  -2.888   0.597  0.00  0.00    +0.132 A 
ATOM      5  C   UNL     1       4.801  -4.266   0.695  0.00  0.00    +0.061 A 
ATOM      6  C   UNL     1       3.567  -4.918   0.698  0.00  0.00    +0.066 A 
ATOM      7  C   UNL     1       2.385  -4.184   0.602  0.00  0.00    +0.066 A 
ATOM      8  C   UNL     1       2.432  -2.804   0.510  0.00  0.00    +0.194 A 
ATOM      9  O   UNL     1       1.281  -2.090   0.423  0.00  0.00    -0.287 OA
BRANCH   3  10
ATOM     10  C   UNL     1       3.724  -0.675   0.396  0.00  0.00    +0.205 C 
ATOM     11  O   UNL     1       4.791  -0.098   0.491  0.00  0.00    -0.286 OA
BRANCH  10  15
ATOM     12  C   UNL     1       0.147   1.548  -0.239  0.00  0.00    +0.004 A 
ATOM     13  C   UNL     1       0.825   1.021  -1.325  0.00  0.00    +0.016 A 
ATOM     14  C   UNL     1       1.994   0.293  -1.132  0.00  0.00    +0.077 A 
ATOM     15  C   UNL     1       2.485   0.095   0.175  0.00  0.00    +0.078 A 
ATOM     16  C   UNL     1       1.788   0.634   1.261  0.00  0.00    +0.128 A 
ATOM     17  C   UNL     1       0.622   1.359   1.044  0.00  0.00    +0.046 A 
BRANCH  14  18
ATOM     18  C   UNL     1       2.717  -0.270  -2.289  0.00  0.00    +0.387 C 
ATOM     19  O   UNL     1       2.238  -0.184  -3.411  0.00  0.00    -0.241 OA
ATOM     20  O   UNL     1       3.796  -0.823  -2.127  0.00  0.00    -0.241 OA
ENDBRANCH  14  18
BRANCH  16  21
ATOM     21  O   UNL     1       2.249   0.451   2.523  0.00  0.00    -0.506 OA
ATOM     22  H   UNL     1       2.795   1.178   2.852  0.00  0.00    +0.292 HD
ENDBRANCH  16  21
ENDBRANCH  10  15
ENDBRANCH   3  10
BRANCH   4  23
ATOM     23  O   UNL     1       6.056  -2.255   0.594  0.00  0.00    -0.506 OA
ATOM     24  H   UNL     1       6.373  -2.007   1.473  0.00  0.00    +0.292 HD
ENDBRANCH   4  23
ENDBRANCH   1   6
BRANCH   1  25
ATOM     25  O   UNL     1       2.323  -7.025   0.805  0.00  0.00    -0.456 OA
BRANCH  25  26
ATOM     26  C   UNL     1       2.345  -8.450   0.909  0.00  0.00    +0.200 C 
ATOM     27  C   UNL     1       2.248  -8.876   2.398  0.00  0.00    +0.117 C 
ATOM     28  C   UNL     1       1.101  -9.969   2.360  0.00  0.00    +0.017 C 
ATOM     29  C   UNL     1       0.116  -9.149   1.423  0.00  0.00    +0.013 C 
ATOM     30  C   UNL     1       1.116  -9.050   0.196  0.00  0.00    +0.035 C 
ATOM     31  C   UNL     1       1.265 -10.547  -0.035  0.00  0.00    -0.001 C 
ATOM     32  C   UNL     1       1.727 -10.947   1.413  0.00  0.00    -0.003 C 
ATOM     33  C   UNL     1       2.018 -12.383   1.341  0.00  0.00    +0.004 C 
ATOM     34  C   UNL     1       2.596 -12.547  -0.106  0.00  0.00    +0.001 C 
ATOM     35  C   UNL     1       2.445 -11.146  -0.789  0.00  0.00    +0.004 C 
BRANCH  27  36
ATOM     36  N   UNL     1       3.512  -9.455   2.859  0.00  0.00    -0.305 N 
ATOM     37  C   UNL     1       4.488  -8.654   3.331  0.00  0.00    +0.244 C 
ATOM     38  O   UNL     1       4.319  -7.451   3.375  0.00  0.00    -0.270 OA
ATOM     39  H   UNL     1       3.647 -10.415   2.823  0.00  0.00    +0.149 HD
BRANCH  37  40
ATOM     40  C   UNL     1       5.762  -9.238   3.795  0.00  0.00    +0.037 A 
ATOM     41  C   UNL     1       5.960 -10.620   3.739  0.00  0.00    +0.016 A 
ATOM     42  C   UNL     1       7.150 -11.161   4.172  0.00  0.00    +0.046 A 
ATOM     43  C   UNL     1       8.153 -10.334   4.664  0.00  0.00    +0.117 A 
ATOM     44  C   UNL     1       7.960  -8.959   4.721  0.00  0.00    +0.046 A 
ATOM     45  C   UNL     1       6.775  -8.410   4.285  0.00  0.00    +0.016 A 
BRANCH  43  46
ATOM     46  O   UNL     1       9.324 -10.871   5.091  0.00  0.00    -0.507 OA
ATOM     47  H   UNL     1       9.997 -10.946   4.401  0.00  0.00    +0.292 HD
ENDBRANCH  43  46
ENDBRANCH  37  40
ENDBRANCH  27  36
ENDBRANCH  25  26
ENDBRANCH   1  25
TORSDOF 11
