REMARK  Name = CHEMBL103421
REMARK  4 active torsions:
REMARK  status: ('A' for Active; 'I' for Inactive)
REMARK    1  A    between atoms: C_1  and  C_2
REMARK    2  A    between atoms: C_2  and  N_3
REMARK    3  A    between atoms: N_31  and  C_37
REMARK    4  A    between atoms: C_37  and  C_38
REMARK                            x       y       z     vdW  Elec       q    Type
REMARK                         _______ _______ _______ _____ _____    ______ ____
ROOT
ATOM      1  N   UNL     1       0.689  -0.477  -1.206  0.00  0.00    +0.382 N 
ATOM      2  C   UNL     1       0.542  -1.926  -1.333  0.00  0.00    -0.057 C 
ATOM      3  C   UNL     1       1.453  -2.694  -0.359  0.00  0.00    +0.103 C 
ATOM      4  N   UNL     1       1.090  -4.114  -0.362  0.00  0.00    -0.348 N 
ATOM      5  C   UNL     1       1.360  -4.962  -1.398  0.00  0.00    +0.095 A 
ATOM      6  C   UNL     1       0.927  -6.212  -1.108  0.00  0.00    +0.013 A 
ATOM      7  C   UNL     1       0.334  -6.146   0.247  0.00  0.00    +0.008 A 
ATOM      8  C   UNL     1       0.448  -4.795   0.647  0.00  0.00    +0.050 A 
ATOM      9  C   UNL     1      -0.076  -4.422   1.884  0.00  0.00    +0.026 A 
ATOM     10  C   UNL     1      -0.654  -5.344   2.723  0.00  0.00    +0.002 A 
ATOM     11  C   UNL     1      -0.731  -6.677   2.337  0.00  0.00    +0.001 A 
ATOM     12  C   UNL     1      -0.237  -7.081   1.113  0.00  0.00    +0.010 A 
ATOM     13  C   UNL     1       1.001  -7.452  -1.910  0.00  0.00    +0.059 C 
ATOM     14  C   UNL     1       1.898  -7.960  -2.843  0.00  0.00    +0.059 C 
ATOM     15  C   UNL     1       3.204  -7.510  -3.369  0.00  0.00    +0.013 A 
ATOM     16  C   UNL     1       3.780  -6.285  -3.268  0.00  0.00    +0.095 A 
ATOM     17  N   UNL     1       4.978  -6.269  -3.943  0.00  0.00    -0.344 N 
ATOM     18  C   UNL     1       5.212  -7.500  -4.499  0.00  0.00    +0.050 A 
ATOM     19  C   UNL     1       4.148  -8.351  -4.130  0.00  0.00    +0.008 A 
ATOM     20  C   UNL     1       4.194  -9.704  -4.475  0.00  0.00    +0.010 A 
ATOM     21  C   UNL     1       5.207 -10.200  -5.263  0.00  0.00    +0.001 A 
ATOM     22  C   UNL     1       6.218  -9.344  -5.687  0.00  0.00    +0.002 A 
ATOM     23  C   UNL     1       6.220  -8.025  -5.312  0.00  0.00    +0.026 A 
ATOM     24  C   UNL     1       5.831  -5.088  -4.005  0.00  0.00    +0.150 C 
ATOM     25  C   UNL     1       5.209  -4.053  -4.953  0.00  0.00    +0.181 C 
ATOM     26  O   UNL     1       6.206  -3.165  -5.451  0.00  0.00    -0.380 OA
ATOM     27  C   UNL     1       5.821  -1.796  -5.585  0.00  0.00    +0.141 C 
ATOM     28  C   UNL     1       6.957  -0.909  -5.066  0.00  0.00    -0.050 C 
ATOM     29  N   UNL     1       6.620   0.509  -5.022  0.00  0.00    +0.382 N 
ATOM     30  C   UNL     1       5.893   0.856  -3.799  0.00  0.00    -0.050 C 
ATOM     31  C   UNL     1       4.381   0.789  -3.992  0.00  0.00    +0.141 C 
ATOM     32  O   UNL     1       3.730   0.817  -2.713  0.00  0.00    -0.383 OA
ATOM     33  C   UNL     1       2.723  -0.186  -2.556  0.00  0.00    +0.141 C 
ATOM     34  C   UNL     1       2.096  -0.074  -1.163  0.00  0.00    -0.050 C 
ATOM     35  C   UNL     1       1.256  -9.198  -3.370  0.00  0.00    +0.252 C 
ATOM     36  O   UNL     1       1.615  -9.856  -4.324  0.00  0.00    -0.270 OA
ATOM     37  N   UNL     1       0.176  -9.483  -2.638  0.00  0.00    -0.248 N 
ATOM     38  C   UNL     1      -0.058  -8.493  -1.775  0.00  0.00    +0.252 C 
ATOM     39  O   UNL     1      -1.011  -8.454  -1.022  0.00  0.00    -0.270 OA
ATOM     40  H   UNL     1      -0.358 -10.286  -2.725  0.00  0.00    +0.158 HD
ATOM     41  H   UNL     1       7.509   1.027  -5.002  0.00  0.00    -0.082 HD
ATOM     42  H   UNL     1       0.255  -0.035  -2.012  0.00  0.00    -0.082 HD
ENDROOT
BRANCH   1  44
ATOM     43  C   UNL     1      -0.019   1.526   0.010  0.00  0.00    -0.017 C 
ATOM     44  C   UNL     1       0.002  -0.004   0.002  0.00  0.00    -0.082 C 
ENDBRANCH   1  44
BRANCH  29  45
ATOM     45  C   UNL     1       5.908   0.934  -6.226  0.00  0.00    -0.082 C 
ATOM     46  C   UNL     1       6.832   0.804  -7.438  0.00  0.00    -0.017 C 
ENDBRANCH  29  45
TORSDOF 2
