REMARK  Name = CHEMBL103055
REMARK  2 active torsions:
REMARK  status: ('A' for Active; 'I' for Inactive)
REMARK    1  A    between atoms: C_1  and  C_2
REMARK    2  A    between atoms: C_2  and  N_3
REMARK                            x       y       z     vdW  Elec       q    Type
REMARK                         _______ _______ _______ _____ _____    ______ ____
ROOT
ATOM      1  N   UNL     1       0.727  -0.501   1.217  0.00  0.00    -0.298 NA
ATOM      2  C   UNL     1       2.187  -0.332   0.879  0.00  0.00    +0.112 C 
ATOM      3  C   UNL     1       2.506  -1.001  -0.447  0.00  0.00    +0.175 C 
ATOM      4  O   UNL     1       3.812  -1.592  -0.398  0.00  0.00    -0.377 OA
ATOM      5  C   UNL     1       3.859  -2.918  -0.948  0.00  0.00    +0.181 C 
ATOM      6  C   UNL     1       5.319  -3.328  -1.125  0.00  0.00    +0.150 C 
ATOM      7  N   UNL     1       5.450  -4.746  -1.456  0.00  0.00    -0.344 N 
ATOM      8  C   UNL     1       4.660  -5.769  -1.027  0.00  0.00    +0.095 A 
ATOM      9  C   UNL     1       5.080  -6.945  -1.550  0.00  0.00    +0.013 A 
ATOM     10  C   UNL     1       6.240  -6.613  -2.423  0.00  0.00    +0.008 A 
ATOM     11  C   UNL     1       6.444  -5.237  -2.285  0.00  0.00    +0.050 A 
ATOM     12  C   UNL     1       7.529  -4.640  -2.921  0.00  0.00    +0.026 A 
ATOM     13  C   UNL     1       8.354  -5.393  -3.725  0.00  0.00    +0.002 A 
ATOM     14  C   UNL     1       8.109  -6.742  -3.925  0.00  0.00    +0.001 A 
ATOM     15  C   UNL     1       7.046  -7.350  -3.286  0.00  0.00    +0.010 A 
ATOM     16  C   UNL     1       4.603  -8.330  -1.386  0.00  0.00    +0.059 C 
ATOM     17  C   UNL     1       3.378  -8.909  -1.087  0.00  0.00    +0.059 C 
ATOM     18  C   UNL     1       2.013  -8.412  -0.832  0.00  0.00    +0.013 A 
ATOM     19  C   UNL     1       1.548  -7.196  -0.449  0.00  0.00    +0.095 A 
ATOM     20  N   UNL     1       0.203  -7.241  -0.253  0.00  0.00    -0.344 N 
ATOM     21  C   UNL     1      -0.269  -8.511  -0.542  0.00  0.00    +0.050 A 
ATOM     22  C   UNL     1       0.816  -9.285  -0.964  0.00  0.00    +0.008 A 
ATOM     23  C   UNL     1       0.599 -10.580  -1.422  0.00  0.00    +0.010 A 
ATOM     24  C   UNL     1      -0.661 -11.137  -1.348  0.00  0.00    +0.001 A 
ATOM     25  C   UNL     1      -1.719 -10.393  -0.853  0.00  0.00    +0.002 A 
ATOM     26  C   UNL     1      -1.534  -9.086  -0.460  0.00  0.00    +0.026 A 
ATOM     27  C   UNL     1      -0.686  -6.170   0.191  0.00  0.00    +0.150 C 
ATOM     28  C   UNL     1      -0.012  -4.798   0.156  0.00  0.00    +0.181 C 
ATOM     29  O   UNL     1      -0.902  -3.851   0.768  0.00  0.00    -0.377 OA
ATOM     30  C   UNL     1      -0.626  -2.475   0.439  0.00  0.00    +0.175 C 
ATOM     31  C   UNL     1       0.518  -1.980   1.306  0.00  0.00    +0.112 C 
ATOM     32  C   UNL     1       3.653 -10.375  -0.971  0.00  0.00    +0.252 C 
ATOM     33  O   UNL     1       2.882 -11.226  -0.574  0.00  0.00    -0.270 OA
ATOM     34  N   UNL     1       4.906 -10.622  -1.347  0.00  0.00    -0.248 N 
ATOM     35  C   UNL     1       5.552  -9.472  -1.545  0.00  0.00    +0.252 C 
ATOM     36  O   UNL     1       6.742  -9.392  -1.777  0.00  0.00    -0.270 OA
ATOM     37  H   UNL     1       5.293 -11.505  -1.462  0.00  0.00    +0.158 HD
ENDROOT
BRANCH   1  39
ATOM     38  C   UNL     1      -0.019   1.526   0.010  0.00  0.00    +0.020 C 
ATOM     39  C   UNL     1       0.002  -0.004   0.002  0.00  0.00    +0.081 C 
ENDBRANCH   1  39
TORSDOF 1
