REMARK  Name = CHEMBL178945
REMARK  9 active torsions:
REMARK  status: ('A' for Active; 'I' for Inactive)
REMARK    1  A    between atoms: C_1  and  N_2
REMARK    2  A    between atoms: N_2  and  C_3
REMARK    3  A    between atoms: N_2  and  C_4
REMARK    4  A    between atoms: C_4  and  C_5
REMARK    5  A    between atoms: C_5  and  C_6
REMARK    6  A    between atoms: C_6  and  N_7
REMARK    7  A    between atoms: C_14  and  C_16
REMARK    8  A    between atoms: C_17  and  C_23
REMARK    9  A    between atoms: N_25  and  C_32
REMARK                            x       y       z     vdW  Elec       q    Type
REMARK                         _______ _______ _______ _____ _____    ______ ____
ROOT
ATOM      1  C   UNL     1      -2.595  -0.891   7.461  0.00  0.00    +0.077 C 
ATOM      2  C   UNL     1      -2.942  -2.219   7.693  0.00  0.00    +0.060 C 
ATOM      3  C   UNL     1      -4.049  -2.186   8.677  0.00  0.00    +0.252 C 
ATOM      4  O   UNL     1      -4.623  -3.154   9.131  0.00  0.00    -0.270 OA
ATOM      5  N   UNL     1      -4.310  -0.903   8.983  0.00  0.00    -0.248 N 
ATOM      6  C   UNL     1      -3.488  -0.080   8.310  0.00  0.00    +0.253 C 
ATOM      7  O   UNL     1      -3.484   1.133   8.385  0.00  0.00    -0.270 OA
ATOM      8  H   UNL     1      -4.993  -0.612   9.607  0.00  0.00    +0.158 HD
ENDROOT
BRANCH   1  16
ATOM      9  N   UNL     1      -0.029  -0.268   4.934  0.00  0.00    -0.263 N 
ATOM     10  C   UNL     1       0.020   0.959   5.547  0.00  0.00    +0.070 A 
ATOM     11  C   UNL     1       0.773   2.110   5.331  0.00  0.00    +0.028 A 
ATOM     12  C   UNL     1       0.586   3.210   6.138  0.00  0.00    +0.002 A 
ATOM     13  C   UNL     1      -0.348   3.182   7.166  0.00  0.00    +0.001 A 
ATOM     14  C   UNL     1      -1.097   2.063   7.394  0.00  0.00    +0.012 A 
ATOM     15  C   UNL     1      -0.924   0.936   6.589  0.00  0.00    +0.028 A 
ATOM     16  C   UNL     1      -1.543  -0.396   6.556  0.00  0.00    +0.106 A 
ATOM     17  N   UNL     1      -0.990  -1.064   5.567  0.00  0.00    -0.170 NA
BRANCH   9  18
ATOM     18  C   UNL     1       0.792  -0.679   3.793  0.00  0.00    +0.142 C 
BRANCH  18  19
ATOM     19  C   UNL     1       0.070  -0.324   2.491  0.00  0.00    +0.005 C 
BRANCH  19  20
ATOM     20  C   UNL     1       0.928  -0.752   1.299  0.00  0.00    -0.078 C 
BRANCH  20  22
ATOM     21  C   UNL     1       0.116   1.049  -0.062  0.00  0.00    -0.097 C 
ATOM     22  N   UNL     1       0.234  -0.411   0.049  0.00  0.00    +0.376 N 
ATOM     23  C   UNL     1       1.000  -0.929  -1.092  0.00  0.00    -0.097 C 
ATOM     24  H   UNL     1      -0.686  -0.824   0.052  0.00  0.00    -0.083 HD
ENDBRANCH  20  22
ENDBRANCH  19  20
ENDBRANCH  18  19
ENDBRANCH   9  18
ENDBRANCH   1  16
BRANCH   2  25
ATOM     25  C   UNL     1      -2.336  -3.410   7.084  0.00  0.00    +0.014 A 
ATOM     26  C   UNL     1      -1.121  -3.957   7.392  0.00  0.00    +0.101 A 
ATOM     27  N   UNL     1      -0.904  -5.054   6.619  0.00  0.00    -0.310 N 
ATOM     28  C   UNL     1      -1.976  -5.264   5.772  0.00  0.00    +0.055 A 
ATOM     29  C   UNL     1      -2.920  -4.254   6.026  0.00  0.00    +0.008 A 
ATOM     30  C   UNL     1      -4.115  -4.221   5.313  0.00  0.00    +0.010 A 
ATOM     31  C   UNL     1      -4.369  -5.184   4.361  0.00  0.00    +0.001 A 
ATOM     32  C   UNL     1      -3.440  -6.184   4.111  0.00  0.00    +0.002 A 
ATOM     33  C   UNL     1      -2.249  -6.224   4.805  0.00  0.00    +0.027 A 
BRANCH  27  34
ATOM     34  C   UNL     1       0.239  -5.853   6.672  0.00  0.00    +0.085 A 
ATOM     35  C   UNL     1       1.550  -5.481   6.638  0.00  0.00    +0.034 A 
ATOM     36  C   UNL     1       2.522  -6.460   6.705  0.00  0.00    +0.010 A 
ATOM     37  C   UNL     1       2.144  -7.758   6.802  0.00  0.00    +0.047 A 
ATOM     38  S   UNL     1       0.364  -7.629   6.810  0.00  0.00    -0.079 S 
ENDBRANCH  27  34
ENDBRANCH   2  25
TORSDOF 7
