REMARK  Name = CHEMBL175956
REMARK  3 active torsions:
REMARK  status: ('A' for Active; 'I' for Inactive)
REMARK    1  A    between atoms: C_7  and  C_11
REMARK    2  A    between atoms: C_12  and  C_18
REMARK    3  A    between atoms: N_20  and  C_27
REMARK                            x       y       z     vdW  Elec       q    Type
REMARK                         _______ _______ _______ _____ _____    ______ ____
ROOT
ATOM      1  C   UNL     1       0.719  -3.187  -0.021  0.00  0.00    +0.075 C 
ATOM      2  C   UNL     1       0.438  -4.031   1.056  0.00  0.00    +0.060 C 
ATOM      3  C   UNL     1      -0.517  -5.035   0.548  0.00  0.00    +0.252 C 
ATOM      4  O   UNL     1      -0.999  -5.945   1.194  0.00  0.00    -0.270 OA
ATOM      5  N   UNL     1      -0.766  -4.777  -0.746  0.00  0.00    -0.248 N 
ATOM      6  C   UNL     1      -0.079  -3.697  -1.156  0.00  0.00    +0.253 C 
ATOM      7  O   UNL     1      -0.107  -3.221  -2.274  0.00  0.00    -0.270 OA
ATOM      8  H   UNL     1      -1.363  -5.296  -1.308  0.00  0.00    +0.158 HD
ENDROOT
BRANCH   1  15
ATOM      9  C   UNL     1      -0.016   1.357   0.009  0.00  0.00    +0.001 A 
ATOM     10  C   UNL     1       1.161   2.104   0.002  0.00  0.00    +0.002 A 
ATOM     11  C   UNL     1       2.383   1.510  -0.013  0.00  0.00    +0.030 A 
ATOM     12  C   UNL     1       2.473   0.102  -0.021  0.00  0.00    +0.093 A 
ATOM     13  C   UNL     1       1.231  -0.680  -0.013  0.00  0.00    +0.028 A 
ATOM     14  C   UNL     1       0.002  -0.004   0.002  0.00  0.00    +0.012 A 
ATOM     15  C   UNL     1       1.614  -2.031  -0.024  0.00  0.00    +0.079 A 
ATOM     16  N   UNL     1       2.974  -2.064  -0.037  0.00  0.00    -0.276 N 
ATOM     17  H   UNL     1       3.514  -2.871  -0.047  0.00  0.00    +0.189 HD
ATOM     18  N   UNL     1       3.478  -0.759  -0.035  0.00  0.00    -0.173 NA
ENDBRANCH   1  15
BRANCH   2  19
ATOM     19  C   UNL     1       0.984  -3.938   2.418  0.00  0.00    +0.013 A 
ATOM     20  C   UNL     1       0.628  -3.038   3.381  0.00  0.00    +0.101 A 
ATOM     21  N   UNL     1       1.351  -3.266   4.512  0.00  0.00    -0.314 N 
ATOM     22  C   UNL     1       2.210  -4.331   4.324  0.00  0.00    +0.054 A 
ATOM     23  C   UNL     1       2.018  -4.803   3.015  0.00  0.00    +0.008 A 
ATOM     24  C   UNL     1       2.756  -5.888   2.548  0.00  0.00    +0.010 A 
ATOM     25  C   UNL     1       3.673  -6.497   3.378  0.00  0.00    +0.001 A 
ATOM     26  C   UNL     1       3.861  -6.035   4.672  0.00  0.00    +0.002 A 
ATOM     27  C   UNL     1       3.143  -4.957   5.144  0.00  0.00    +0.027 A 
BRANCH  21  28
ATOM     28  C   UNL     1       1.240  -2.526   5.696  0.00  0.00    +0.065 A 
ATOM     29  C   UNL     1       1.286  -1.134   5.666  0.00  0.00    +0.029 A 
ATOM     30  C   UNL     1       1.172  -0.447   6.863  0.00  0.00    +0.022 A 
ATOM     31  C   UNL     1       1.017  -1.159   8.039  0.00  0.00    +0.111 A 
ATOM     32  N   UNL     1       0.977  -2.477   8.032  0.00  0.00    -0.261 NA
ATOM     33  C   UNL     1       1.077  -3.170   6.915  0.00  0.00    +0.136 A 
ENDBRANCH  21  28
ENDBRANCH   2  19
TORSDOF 3
