REMARK  Name = CHEMBL120645
REMARK  6 active torsions:
REMARK  status: ('A' for Active; 'I' for Inactive)
REMARK    1  A    between atoms: C_1  and  C_2
REMARK    2  A    between atoms: C_2  and  C_3
REMARK    3  A    between atoms: C_2  and  C_4
REMARK    4  A    between atoms: CA_9  and  C_23
REMARK    5  A    between atoms: N_21  and  C_22
REMARK    6  A    between atoms: C_23  and  O_24
REMARK                            x       y       z     vdW  Elec       q    Type
REMARK                         _______ _______ _______ _____ _____    ______ ____
ROOT
ATOM      1  C   UNL     1       0.863   0.408   1.214  0.00  0.00    +0.145 C 
ATOM      2  C   UNL     1      -0.102   0.831   2.255  0.00  0.00    +0.233 C 
ATOM      3  O   UNL     1      -1.288   0.621   1.972  0.00  0.00    -0.274 OA
ATOM      4  N   UNL     1       0.089   1.400   3.439  0.00  0.00    -0.309 N 
ATOM      5  CA  UNL     1       1.345   1.761   4.084  0.00  0.00    +0.099 C 
ATOM      6  C   UNL     1       1.748   0.706   5.103  0.00  0.00    +0.034 C 
ATOM      7  C   UNL     1       2.410  -0.533   4.529  0.00  0.00    +0.041 C 
ATOM      8  C   UNL     1       2.840  -1.409   5.742  0.00  0.00    +0.110 C 
ATOM      9  N   UNL     1       1.602  -2.159   6.024  0.00  0.00    -0.343 N 
ATOM     10  C   UNL     1       0.915  -2.318   4.816  0.00  0.00    +0.032 A 
ATOM     11  C   UNL     1       1.396  -1.429   3.858  0.00  0.00    -0.002 A 
ATOM     12  C   UNL     1       0.953  -1.528   2.546  0.00  0.00    +0.019 A 
ATOM     13  C   UNL     1      -0.081  -2.375   2.223  0.00  0.00    +0.022 A 
ATOM     14  C   UNL     1      -0.644  -3.179   3.201  0.00  0.00    +0.004 A 
ATOM     15  C   UNL     1      -0.147  -3.155   4.487  0.00  0.00    +0.023 A 
ATOM     16  N   UNL     1       1.643  -0.774   1.581  0.00  0.00    -0.387 NA
ATOM     17  C   UNL     1       1.914  -1.591   0.390  0.00  0.00    +0.107 C 
ATOM     18  H   UNL     1      -0.747   1.609   3.955  0.00  0.00    +0.149 HD
ATOM     19  H   UNL     1       1.319  -2.481   6.891  0.00  0.00    +0.146 HD
ATOM     20  H   UNL     1       2.534  -0.480   1.972  0.00  0.00    +0.127 HD
ENDROOT
BRANCH   1  22
ATOM     21  C   UNL     1      -0.867   1.252  -0.389  0.00  0.00    +0.009 C 
ATOM     22  C   UNL     1       0.082   0.094  -0.074  0.00  0.00    +0.011 C 
ATOM     23  C   UNL     1       1.063  -0.091  -1.233  0.00  0.00    +0.009 C 
ENDBRANCH   1  22
BRANCH   5  24
ATOM     24  C   UNL     1       2.479   2.105   3.137  0.00  0.00    +0.178 C 
BRANCH  24  25
ATOM     25  O   UNL     1       2.149   3.289   2.409  0.00  0.00    -0.393 OA
ATOM     26  H   UNL     1       2.832   3.569   1.783  0.00  0.00    +0.209 HD
ENDBRANCH  24  25
ENDBRANCH   5  24
TORSDOF 3
