REMARK  Name = CHEMBL319265
REMARK  2 active torsions:
REMARK  status: ('A' for Active; 'I' for Inactive)
REMARK    1  A    between atoms: C_1  and  N_2
REMARK    2  A    between atoms: N_27  and  C_30
REMARK                            x       y       z     vdW  Elec       q    Type
REMARK                         _______ _______ _______ _____ _____    ______ ____
ROOT
ATOM      1  C   UNL     1      -0.018   1.467   0.010  0.00  0.00    -0.096 C 
ATOM      2  N   UNL     1       0.002  -0.004   0.002  0.00  0.00    +0.380 N 
ATOM      3  C   UNL     1      -1.375  -0.512   0.017  0.00  0.00    -0.057 C 
ATOM      4  C   UNL     1      -2.021  -0.229  -1.343  0.00  0.00    +0.103 C 
ATOM      5  N   UNL     1      -2.873  -1.363  -1.720  0.00  0.00    -0.348 N 
ATOM      6  C   UNL     1      -2.449  -2.632  -1.960  0.00  0.00    +0.095 A 
ATOM      7  C   UNL     1      -3.493  -3.426  -2.306  0.00  0.00    +0.013 A 
ATOM      8  C   UNL     1      -4.700  -2.558  -2.234  0.00  0.00    +0.008 A 
ATOM      9  C   UNL     1      -4.238  -1.278  -1.894  0.00  0.00    +0.050 A 
ATOM     10  C   UNL     1      -5.135  -0.215  -1.811  0.00  0.00    +0.026 A 
ATOM     11  C   UNL     1      -6.478  -0.439  -2.028  0.00  0.00    +0.002 A 
ATOM     12  C   UNL     1      -6.940  -1.712  -2.315  0.00  0.00    +0.001 A 
ATOM     13  C   UNL     1      -6.064  -2.777  -2.405  0.00  0.00    +0.010 A 
ATOM     14  C   UNL     1      -3.537  -4.846  -2.701  0.00  0.00    +0.059 C 
ATOM     15  C   UNL     1      -2.764  -5.947  -2.366  0.00  0.00    +0.059 C 
ATOM     16  C   UNL     1      -1.674  -6.134  -1.396  0.00  0.00    +0.013 A 
ATOM     17  C   UNL     1      -1.046  -5.205  -0.621  0.00  0.00    +0.095 A 
ATOM     18  N   UNL     1      -0.038  -5.779   0.088  0.00  0.00    -0.345 N 
ATOM     19  C   UNL     1       0.012  -7.133  -0.179  0.00  0.00    +0.050 A 
ATOM     20  C   UNL     1      -1.038  -7.432  -1.059  0.00  0.00    +0.008 A 
ATOM     21  C   UNL     1      -1.295  -8.764  -1.376  0.00  0.00    +0.010 A 
ATOM     22  C   UNL     1      -0.427  -9.750  -0.949  0.00  0.00    +0.001 A 
ATOM     23  C   UNL     1       0.668  -9.438  -0.159  0.00  0.00    +0.002 A 
ATOM     24  C   UNL     1       0.884  -8.134   0.237  0.00  0.00    +0.026 A 
ATOM     25  C   UNL     1       0.862  -5.095   1.023  0.00  0.00    +0.137 C 
ATOM     26  C   UNL     1       1.405  -3.818   0.383  0.00  0.00    +0.105 C 
ATOM     27  N   UNL     1       1.506  -2.785   1.446  0.00  0.00    -0.305 NA
ATOM     28  C   UNL     1       1.790  -1.485   0.780  0.00  0.00    +0.065 C 
ATOM     29  C   UNL     1       0.716  -0.481   1.198  0.00  0.00    -0.064 C 
ATOM     30  C   UNL     1       2.696  -3.117   2.277  0.00  0.00    +0.104 C 
ATOM     31  C   UNL     1      -3.225  -7.039  -3.270  0.00  0.00    +0.252 C 
ATOM     32  O   UNL     1      -2.692  -8.108  -3.469  0.00  0.00    -0.270 OA
ATOM     33  N   UNL     1      -4.351  -6.649  -3.877  0.00  0.00    -0.248 N 
ATOM     34  C   UNL     1      -4.591  -5.359  -3.626  0.00  0.00    +0.252 C 
ATOM     35  O   UNL     1      -5.507  -4.720  -4.105  0.00  0.00    -0.270 OA
ATOM     36  H   UNL     1      -4.914  -7.223  -4.415  0.00  0.00    +0.158 HD
ATOM     37  H   UNL     1       0.473  -0.327  -0.828  0.00  0.00    -0.082 HD
ENDROOT
TORSDOF 0
