REMARK  Name = CHEMBL271403
REMARK  6 active torsions:
REMARK  status: ('A' for Active; 'I' for Inactive)
REMARK    1  A    between atoms: C_1  and  C_2
REMARK    2  A    between atoms: C_2  and  C_3
REMARK    3  A    between atoms: C_2  and  C_4
REMARK    4  A    between atoms: CA_9  and  C_25
REMARK    5  A    between atoms: N_23  and  C_24
REMARK    6  A    between atoms: C_25  and  O_26
REMARK                            x       y       z     vdW  Elec       q    Type
REMARK                         _______ _______ _______ _____ _____    ______ ____
ROOT
ATOM      1  C   UNL     1      -1.441  -0.536   0.013  0.00  0.00    +0.162 C 
ATOM      2  C   UNL     1      -2.156  -0.025  -1.204  0.00  0.00    +0.234 C 
ATOM      3  O   UNL     1      -1.499   0.282  -2.197  0.00  0.00    -0.274 OA
ATOM      4  N   UNL     1      -3.462   0.117  -1.244  0.00  0.00    -0.308 N 
ATOM      5  CA  UNL     1      -4.608  -0.376  -0.507  0.00  0.00    +0.103 C 
ATOM      6  C   UNL     1      -4.785  -1.887  -0.789  0.00  0.00    +0.062 C 
ATOM      7  C   UNL     1      -4.562  -2.674   0.497  0.00  0.00    -0.016 A 
ATOM      8  C   UNL     1      -5.529  -3.206   1.279  0.00  0.00    +0.117 A 
ATOM      9  N   UNL     1      -4.974  -3.909   2.332  0.00  0.00    -0.238 N 
ATOM     10  C   UNL     1      -3.658  -3.726   2.202  0.00  0.00    +0.083 A 
ATOM     11  C   UNL     1      -3.269  -2.987   1.112  0.00  0.00    +0.027 A 
ATOM     12  C   UNL     1      -1.899  -2.790   0.998  0.00  0.00    +0.040 A 
ATOM     13  C   UNL     1      -1.060  -3.405   1.938  0.00  0.00    +0.024 A 
ATOM     14  C   UNL     1      -1.515  -4.166   3.002  0.00  0.00    +0.013 A 
ATOM     15  C   UNL     1      -2.891  -4.344   3.163  0.00  0.00    +0.021 A 
ATOM     16  C   UNL     1      -3.902  -4.978   3.994  0.00  0.00    +0.143 A 
ATOM     17  N   UNL     1      -5.089  -4.708   3.479  0.00  0.00    -0.174 NA
ATOM     18  N   UNL     1      -1.405  -1.976   0.030  0.00  0.00    -0.321 N 
ATOM     19  C   UNL     1      -0.763  -2.641  -1.116  0.00  0.00    +0.130 C 
ATOM     20  H   UNL     1      -3.736   0.728  -1.982  0.00  0.00    +0.149 HD
ENDROOT
BRANCH   1  22
ATOM     21  C   UNL     1      -0.019   1.526   0.010  0.00  0.00    +0.009 C 
ATOM     22  C   UNL     1       0.002  -0.004   0.002  0.00  0.00    +0.012 C 
ATOM     23  C   UNL     1       0.742  -0.511   1.242  0.00  0.00    +0.009 C 
ENDBRANCH   1  22
BRANCH   5  24
ATOM     24  C   UNL     1      -4.514  -0.083   0.984  0.00  0.00    +0.178 C 
BRANCH  24  25
ATOM     25  O   UNL     1      -4.553   1.330   1.195  0.00  0.00    -0.393 OA
ATOM     26  H   UNL     1      -4.497   1.590   2.124  0.00  0.00    +0.209 HD
ENDBRANCH  24  25
ENDBRANCH   5  24
TORSDOF 3
