REMARK  Name = CHEMBL6453
REMARK  15 active torsions:
REMARK  status: ('A' for Active; 'I' for Inactive)
REMARK    1  A    between atoms: C_1  and  C_2
REMARK    2  A    between atoms: C_2  and  C_3
REMARK    3  A    between atoms: C_3  and  C_4
REMARK    4  A    between atoms: C_4  and  C_5
REMARK    5  A    between atoms: C_5  and  C_6
REMARK    6  A    between atoms: C_6  and  C_7
REMARK    7  A    between atoms: C_7  and  C_8
REMARK    8  A    between atoms: C_8  and  C_9
REMARK    9  A    between atoms: C_10  and  C_11
REMARK   10  A    between atoms: CA_18  and  C_30
REMARK   11  A    between atoms: C_23  and  C_27
REMARK   12  A    between atoms: N_25  and  C_26
REMARK   13  A    between atoms: C_27  and  C_28
REMARK   14  A    between atoms: C_27  and  C_29
REMARK   15  A    between atoms: C_30  and  O_31
REMARK                            x       y       z     vdW  Elec       q    Type
REMARK                         _______ _______ _______ _____ _____    ______ ____
ROOT
ATOM      1  C   UNL     1       4.389  -7.698  -6.635  0.00  0.00    +0.025 A 
ATOM      2  C   UNL     1       4.825  -6.748  -7.558  0.00  0.00    +0.018 A 
ATOM      3  C   UNL     1       5.339  -7.163  -8.768  0.00  0.00    +0.024 A 
ATOM      4  C   UNL     1       5.416  -8.507  -9.073  0.00  0.00    +0.033 A 
ATOM      5  C   UNL     1       4.933  -9.464  -8.168  0.00  0.00    -0.023 A 
ATOM      6  C   UNL     1       4.441  -9.051  -6.945  0.00  0.00    +0.022 A 
ATOM      7  C   UNL     1       4.897 -10.915  -8.528  0.00  0.00    +0.061 C 
ATOM      8  CA  UNL     1       6.263 -11.590  -8.455  0.00  0.00    +0.103 C 
ATOM      9  N   UNL     1       7.303 -10.595  -8.192  0.00  0.00    -0.308 N 
ATOM     10  C   UNL     1       7.953  -9.953  -9.194  0.00  0.00    +0.234 C 
ATOM     11  O   UNL     1       9.133  -9.681  -9.032  0.00  0.00    -0.274 OA
ATOM     12  C   UNL     1       7.300  -9.478 -10.437  0.00  0.00    +0.162 C 
ATOM     13  N   UNL     1       5.974  -8.945 -10.257  0.00  0.00    -0.321 N 
ATOM     14  C   UNL     1       5.140  -8.845 -11.463  0.00  0.00    +0.130 C 
ATOM     15  H   UNL     1       7.561 -10.401  -7.268  0.00  0.00    +0.149 HD
ENDROOT
BRANCH  12  16
ATOM     16  C   UNL     1       8.176  -8.364 -11.031  0.00  0.00    +0.012 C 
ATOM     17  C   UNL     1       8.435  -7.296  -9.967  0.00  0.00    +0.009 C 
ATOM     18  C   UNL     1       9.508  -8.956 -11.496  0.00  0.00    +0.009 C 
ENDBRANCH  12  16
BRANCH   1  20
ATOM     19  C   UNL     1       3.463  -6.934  -4.324  0.00  0.00    -0.097 C 
ATOM     20  C   UNL     1       3.880  -7.278  -5.365  0.00  0.00    -0.066 C 
BRANCH  19  21
ATOM     21  C   UNL     1       2.939  -6.502  -3.018  0.00  0.00    +0.089 C 
BRANCH  21  22
ATOM     22  C   UNL     1       2.990  -4.975  -2.927  0.00  0.00    +0.013 C 
BRANCH  22  23
ATOM     23  C   UNL     1       2.446  -4.526  -1.570  0.00  0.00    +0.001 C 
BRANCH  23  24
ATOM     24  C   UNL     1       2.497  -2.999  -1.480  0.00  0.00    +0.000 C 
BRANCH  24  25
ATOM     25  C   UNL     1       1.953  -2.550  -0.122  0.00  0.00    -0.000 C 
BRANCH  25  26
ATOM     26  C   UNL     1       2.003  -1.024  -0.032  0.00  0.00    -0.000 C 
BRANCH  26  28
ATOM     27  C   UNL     1       1.510   0.952   1.416  0.00  0.00    +0.004 C 
ATOM     28  C   UNL     1       1.459  -0.575   1.326  0.00  0.00    -0.003 C 
ENDBRANCH  26  28
ENDBRANCH  25  26
ENDBRANCH  24  25
ENDBRANCH  23  24
ENDBRANCH  22  23
ENDBRANCH  21  22
ENDBRANCH  19  21
ENDBRANCH   1  20
BRANCH   8  29
ATOM     29  C   UNL     1       6.524 -12.368  -9.739  0.00  0.00    +0.178 C 
BRANCH  29  30
ATOM     30  O   UNL     1       7.786 -13.032  -9.645  0.00  0.00    -0.393 OA
ATOM     31  H   UNL     1       8.018 -13.548 -10.429  0.00  0.00    +0.209 HD
ENDBRANCH  29  30
ENDBRANCH   8  29
TORSDOF 11
