REMARK  Name = CHEMBL89384
REMARK  12 active torsions:
REMARK  status: ('A' for Active; 'I' for Inactive)
REMARK    1  A    between atoms: C_3  and  C_36
REMARK    2  A    between atoms: C_4  and  C_8
REMARK    3  A    between atoms: C_5  and  O_7
REMARK    4  A    between atoms: C_8  and  C_10
REMARK    5  A    between atoms: C_11  and  O_35
REMARK    6  A    between atoms: C_13  and  C_17
REMARK    7  A    between atoms: C_15  and  O_16
REMARK    8  A    between atoms: C_17  and  O_19
REMARK    9  A    between atoms: O_19  and  C_20
REMARK   10  A    between atoms: C_24  and  N_25
REMARK   11  A    between atoms: C_26  and  C_28
REMARK   12  A    between atoms: C_31  and  O_34
REMARK                            x       y       z     vdW  Elec       q    Type
REMARK                         _______ _______ _______ _____ _____    ______ ____
ROOT
ATOM      1  C   UNL     1       3.695  -2.184   0.211  0.00  0.00    +0.105 A 
ATOM      2  C   UNL     1       2.478  -2.882   0.198  0.00  0.00    +0.132 A 
ATOM      3  C   UNL     1       2.476  -4.266   0.189  0.00  0.00    +0.061 A 
ATOM      4  C   UNL     1       3.683  -4.967   0.193  0.00  0.00    +0.066 A 
ATOM      5  C   UNL     1       4.895  -4.277   0.206  0.00  0.00    +0.061 A 
ATOM      6  C   UNL     1       4.905  -2.893   0.209  0.00  0.00    +0.132 A 
ENDROOT
BRANCH   1   7
ATOM      7  C   UNL     1       3.701  -0.710   0.220  0.00  0.00    +0.204 C 
ATOM      8  O   UNL     1       4.752  -0.107   0.331  0.00  0.00    -0.286 OA
BRANCH   7  12
ATOM      9  C   UNL     1       0.043   1.435  -0.139  0.00  0.00    +0.004 A 
ATOM     10  C   UNL     1       0.704   1.019  -1.280  0.00  0.00    +0.012 A 
ATOM     11  C   UNL     1       1.901   0.317  -1.177  0.00  0.00    +0.037 A 
ATOM     12  C   UNL     1       2.435   0.033   0.096  0.00  0.00    +0.075 A 
ATOM     13  C   UNL     1       1.752   0.462   1.241  0.00  0.00    +0.128 A 
ATOM     14  C   UNL     1       0.560   1.161   1.113  0.00  0.00    +0.046 A 
BRANCH  11  15
ATOM     15  C   UNL     1       2.608  -0.129  -2.397  0.00  0.00    +0.207 A 
ATOM     16  N   UNL     1       2.177  -0.019  -3.655  0.00  0.00    -0.106 NA
ATOM     17  N   UNL     1       3.082  -0.525  -4.420  0.00  0.00    -0.021 NA
ATOM     18  N   UNL     1       4.061  -0.948  -3.699  0.00  0.00    -0.021 NA
ATOM     19  N   UNL     1       3.805  -0.715  -2.457  0.00  0.00    -0.106 NA
ENDBRANCH  11  15
BRANCH  13  20
ATOM     20  O   UNL     1       2.255   0.195   2.472  0.00  0.00    -0.506 OA
ATOM     21  H   UNL     1       2.787   0.911   2.844  0.00  0.00    +0.292 HD
ENDBRANCH  13  20
ENDBRANCH   7  12
ENDBRANCH   1   7
BRANCH   6  22
ATOM     22  O   UNL     1       6.085  -2.222   0.217  0.00  0.00    -0.506 OA
ATOM     23  H   UNL     1       6.425  -2.034   1.102  0.00  0.00    +0.292 HD
ENDBRANCH   6  22
BRANCH   4  24
ATOM     24  C   UNL     1       3.676  -6.447   0.184  0.00  0.00    +0.340 C 
ATOM     25  O   UNL     1       2.622  -7.049   0.173  0.00  0.00    -0.245 OA
BRANCH  24  26
ATOM     26  O   UNL     1       4.840  -7.125   0.188  0.00  0.00    -0.456 OA
BRANCH  26  27
ATOM     27  C   UNL     1       4.759  -8.552   0.178  0.00  0.00    +0.197 C 
ATOM     28  C   UNL     1       4.870  -9.092  -1.269  0.00  0.00    +0.046 C 
ATOM     29  C   UNL     1       5.369 -10.542  -1.055  0.00  0.00    +0.006 C 
ATOM     30  C   UNL     1       6.361 -10.432   0.121  0.00  0.00    +0.026 C 
ATOM     31  C   UNL     1       5.973  -9.166   0.906  0.00  0.00    +0.114 C 
BRANCH  31  32
ATOM     32  N   UNL     1       7.088  -8.216   0.910  0.00  0.00    -0.305 N 
ATOM     33  C   UNL     1       8.033  -8.291   1.869  0.00  0.00    +0.244 C 
ATOM     34  O   UNL     1       7.959  -9.146   2.730  0.00  0.00    -0.270 OA
ATOM     35  H   UNL     1       7.147  -7.534   0.223  0.00  0.00    +0.149 HD
BRANCH  33  36
ATOM     36  C   UNL     1       9.157  -7.334   1.873  0.00  0.00    +0.037 A 
ATOM     37  C   UNL     1       9.241  -6.347   0.887  0.00  0.00    +0.016 A 
ATOM     38  C   UNL     1      10.290  -5.456   0.895  0.00  0.00    +0.046 A 
ATOM     39  C   UNL     1      11.267  -5.538   1.881  0.00  0.00    +0.117 A 
ATOM     40  C   UNL     1      11.187  -6.519   2.864  0.00  0.00    +0.046 A 
ATOM     41  C   UNL     1      10.137  -7.410   2.866  0.00  0.00    +0.016 A 
BRANCH  39  42
ATOM     42  O   UNL     1      12.300  -4.659   1.885  0.00  0.00    -0.507 OA
ATOM     43  H   UNL     1      12.131  -3.855   2.396  0.00  0.00    +0.292 HD
ENDBRANCH  39  42
ENDBRANCH  33  36
ENDBRANCH  31  32
ENDBRANCH  26  27
ENDBRANCH  24  26
ENDBRANCH   4  24
BRANCH   2  44
ATOM     44  O   UNL     1       1.304  -2.202   0.195  0.00  0.00    -0.506 OA
ATOM     45  H   UNL     1       0.929  -2.068  -0.686  0.00  0.00    +0.292 HD
ENDBRANCH   2  44
TORSDOF 12
