REMARK  Name = CHEMBL315357
REMARK  2 active torsions:
REMARK  status: ('A' for Active; 'I' for Inactive)
REMARK    1  A    between atoms: C_12  and  C_33
REMARK    2  A    between atoms: C_33  and  N_34
REMARK                            x       y       z     vdW  Elec       q    Type
REMARK                         _______ _______ _______ _____ _____    ______ ____
ROOT
ATOM      1  C   UNL     1       0.117   1.446   0.248  0.00  0.00    +0.001 A 
ATOM      2  C   UNL     1       1.286   2.179   0.107  0.00  0.00    +0.002 A 
ATOM      3  C   UNL     1       2.509   1.546   0.038  0.00  0.00    +0.026 A 
ATOM      4  C   UNL     1       2.569   0.158   0.110  0.00  0.00    +0.050 A 
ATOM      5  C   UNL     1       1.391  -0.583   0.286  0.00  0.00    +0.008 A 
ATOM      6  C   UNL     1       0.163   0.072   0.334  0.00  0.00    +0.010 A 
ATOM      7  C   UNL     1       1.810  -1.999   0.412  0.00  0.00    +0.013 A 
ATOM      8  C   UNL     1       3.163  -1.998   0.291  0.00  0.00    +0.095 A 
ATOM      9  N   UNL     1       3.613  -0.742   0.020  0.00  0.00    -0.346 N 
ATOM     10  C   UNL     1       4.974  -0.354  -0.353  0.00  0.00    +0.124 C 
ATOM     11  C   UNL     1       5.907  -1.560  -0.300  0.00  0.00    +0.051 C 
ATOM     12  C   UNL     1       5.746  -2.386  -1.578  0.00  0.00    +0.104 C 
ATOM     13  O   UNL     1       5.984  -3.760  -1.262  0.00  0.00    -0.377 OA
ATOM     14  C   UNL     1       5.636  -4.669  -2.308  0.00  0.00    +0.181 C 
ATOM     15  C   UNL     1       5.258  -6.013  -1.686  0.00  0.00    +0.150 C 
ATOM     16  N   UNL     1       3.863  -5.990  -1.246  0.00  0.00    -0.344 N 
ATOM     17  C   UNL     1       3.167  -4.907  -0.811  0.00  0.00    +0.095 A 
ATOM     18  C   UNL     1       1.929  -5.279  -0.387  0.00  0.00    +0.013 A 
ATOM     19  C   UNL     1       1.795  -6.711  -0.734  0.00  0.00    +0.008 A 
ATOM     20  C   UNL     1       3.053  -7.107  -1.217  0.00  0.00    +0.050 A 
ATOM     21  C   UNL     1       3.288  -8.440  -1.541  0.00  0.00    +0.026 A 
ATOM     22  C   UNL     1       2.265  -9.358  -1.448  0.00  0.00    +0.002 A 
ATOM     23  C   UNL     1       1.000  -8.953  -1.053  0.00  0.00    +0.001 A 
ATOM     24  C   UNL     1       0.756  -7.635  -0.720  0.00  0.00    +0.010 A 
ATOM     25  C   UNL     1       0.925  -4.471   0.330  0.00  0.00    +0.059 C 
ATOM     26  C   UNL     1       0.880  -3.119   0.637  0.00  0.00    +0.059 C 
ATOM     27  C   UNL     1      -0.401  -2.913   1.375  0.00  0.00    +0.252 C 
ATOM     28  O   UNL     1      -0.800  -1.868   1.845  0.00  0.00    -0.270 OA
ATOM     29  N   UNL     1      -1.045  -4.080   1.460  0.00  0.00    -0.248 N 
ATOM     30  C   UNL     1      -0.303  -5.057   0.928  0.00  0.00    +0.252 C 
ATOM     31  O   UNL     1      -0.593  -6.233   1.005  0.00  0.00    -0.270 OA
ATOM     32  H   UNL     1      -1.932  -4.200   1.835  0.00  0.00    +0.158 HD
ENDROOT
BRANCH  12  33
ATOM     33  C   UNL     1       6.756  -1.919  -2.627  0.00  0.00    -0.047 C 
BRANCH  33  34
ATOM     34  N   UNL     1       6.435  -0.546  -3.039  0.00  0.00    +0.384 N 
ATOM     35  C   UNL     1       5.140  -0.533  -3.734  0.00  0.00    -0.050 C 
ATOM     36  C   UNL     1       4.808   0.899  -4.161  0.00  0.00    +0.141 C 
ATOM     37  O   UNL     1       5.857   1.397  -4.996  0.00  0.00    -0.383 OA
ATOM     38  C   UNL     1       7.143   1.382  -4.372  0.00  0.00    +0.141 C 
ATOM     39  C   UNL     1       7.480  -0.049  -3.944  0.00  0.00    -0.050 C 
ATOM     40  H   UNL     1       6.386   0.047  -2.224  0.00  0.00    -0.082 HD
ENDBRANCH  33  34
ENDBRANCH  12  33
TORSDOF 2
