REMARK  Name = CHEMBL295806
REMARK  11 active torsions:
REMARK  status: ('A' for Active; 'I' for Inactive)
REMARK    1  A    between atoms: C_3  and  C_34
REMARK    2  A    between atoms: C_4  and  C_8
REMARK    3  A    between atoms: C_5  and  O_7
REMARK    4  A    between atoms: C_8  and  C_10
REMARK    5  A    between atoms: C_11  and  O_33
REMARK    6  A    between atoms: C_13  and  C_17
REMARK    7  A    between atoms: C_17  and  O_19
REMARK    8  A    between atoms: O_19  and  C_20
REMARK    9  A    between atoms: C_24  and  C_25
REMARK   10  A    between atoms: C_25  and  C_26
REMARK   11  A    between atoms: C_29  and  O_32
REMARK                            x       y       z     vdW  Elec       q    Type
REMARK                         _______ _______ _______ _____ _____    ______ ____
ROOT
ATOM      1  C   UNL     1       3.670  -2.144   0.500  0.00  0.00    +0.110 A 
ATOM      2  C   UNL     1       4.856  -2.888   0.597  0.00  0.00    +0.132 A 
ATOM      3  C   UNL     1       4.801  -4.266   0.695  0.00  0.00    +0.061 A 
ATOM      4  C   UNL     1       3.567  -4.918   0.698  0.00  0.00    +0.066 A 
ATOM      5  C   UNL     1       2.385  -4.184   0.602  0.00  0.00    +0.066 A 
ATOM      6  C   UNL     1       2.432  -2.804   0.510  0.00  0.00    +0.194 A 
ATOM      7  O   UNL     1       1.281  -2.090   0.423  0.00  0.00    -0.287 OA
ENDROOT
BRANCH   1   8
ATOM      8  C   UNL     1       3.724  -0.675   0.396  0.00  0.00    +0.205 C 
ATOM      9  O   UNL     1       4.791  -0.098   0.491  0.00  0.00    -0.286 OA
BRANCH   8  13
ATOM     10  C   UNL     1       0.147   1.548  -0.239  0.00  0.00    +0.004 A 
ATOM     11  C   UNL     1       0.825   1.021  -1.325  0.00  0.00    +0.016 A 
ATOM     12  C   UNL     1       1.994   0.293  -1.132  0.00  0.00    +0.077 A 
ATOM     13  C   UNL     1       2.485   0.095   0.175  0.00  0.00    +0.078 A 
ATOM     14  C   UNL     1       1.788   0.634   1.261  0.00  0.00    +0.128 A 
ATOM     15  C   UNL     1       0.622   1.359   1.044  0.00  0.00    +0.046 A 
BRANCH  12  16
ATOM     16  C   UNL     1       2.717  -0.270  -2.289  0.00  0.00    +0.387 C 
ATOM     17  O   UNL     1       2.238  -0.184  -3.411  0.00  0.00    -0.241 OA
ATOM     18  O   UNL     1       3.796  -0.823  -2.127  0.00  0.00    -0.241 OA
ENDBRANCH  12  16
BRANCH  14  19
ATOM     19  O   UNL     1       2.249   0.451   2.523  0.00  0.00    -0.506 OA
ATOM     20  H   UNL     1       2.795   1.178   2.852  0.00  0.00    +0.292 HD
ENDBRANCH  14  19
ENDBRANCH   8  13
ENDBRANCH   1   8
BRANCH   4  21
ATOM     21  C   UNL     1       3.512  -6.393   0.802  0.00  0.00    +0.340 C 
ATOM     22  O   UNL     1       4.540  -7.035   0.886  0.00  0.00    -0.245 OA
BRANCH  21  23
ATOM     23  O   UNL     1       2.323  -7.025   0.805  0.00  0.00    -0.458 OA
BRANCH  23  24
ATOM     24  C   UNL     1       2.345  -8.450   0.909  0.00  0.00    +0.180 C 
ATOM     25  C   UNL     1       2.229  -8.874   2.388  0.00  0.00    +0.045 C 
ATOM     26  C   UNL     1       0.718  -9.153   2.586  0.00  0.00    +0.004 C 
ATOM     27  C   UNL     1       0.315  -9.818   1.246  0.00  0.00    +0.007 C 
ATOM     28  C   UNL     1       1.128  -9.050   0.183  0.00  0.00    +0.034 C 
BRANCH  28  29
ATOM     29  C   UNL     1       1.593 -10.009  -0.914  0.00  0.00    +0.042 C 
BRANCH  29  30
ATOM     30  C   UNL     1       0.399 -10.494  -1.696  0.00  0.00    -0.047 A 
ATOM     31  C   UNL     1      -0.270 -11.636  -1.296  0.00  0.00    +0.007 A 
ATOM     32  C   UNL     1      -1.364 -12.083  -2.011  0.00  0.00    +0.045 A 
ATOM     33  C   UNL     1      -1.791 -11.386  -3.131  0.00  0.00    +0.117 A 
ATOM     34  C   UNL     1      -1.118 -10.240  -3.531  0.00  0.00    +0.045 A 
ATOM     35  C   UNL     1      -0.028  -9.794  -2.809  0.00  0.00    +0.007 A 
BRANCH  33  36
ATOM     36  O   UNL     1      -2.867 -11.824  -3.837  0.00  0.00    -0.507 OA
ATOM     37  H   UNL     1      -3.711 -11.461  -3.534  0.00  0.00    +0.292 HD
ENDBRANCH  33  36
ENDBRANCH  29  30
ENDBRANCH  28  29
ENDBRANCH  23  24
ENDBRANCH  21  23
ENDBRANCH   4  21
BRANCH   2  38
ATOM     38  O   UNL     1       6.056  -2.255   0.594  0.00  0.00    -0.506 OA
ATOM     39  H   UNL     1       6.373  -2.007   1.473  0.00  0.00    +0.292 HD
ENDBRANCH   2  38
TORSDOF 11
