REMARK  Name = CHEMBL59677
REMARK  11 active torsions:
REMARK  status: ('A' for Active; 'I' for Inactive)
REMARK    1  A    between atoms: C_3  and  C_38
REMARK    2  A    between atoms: C_4  and  C_8
REMARK    3  A    between atoms: C_5  and  O_7
REMARK    4  A    between atoms: C_8  and  C_10
REMARK    5  A    between atoms: C_11  and  O_37
REMARK    6  A    between atoms: C_13  and  C_17
REMARK    7  A    between atoms: C_15  and  O_16
REMARK    8  A    between atoms: N_19  and  C_20
REMARK    9  A    between atoms: C_25  and  N_27
REMARK   10  A    between atoms: C_28  and  C_30
REMARK   11  A    between atoms: C_33  and  O_36
REMARK                            x       y       z     vdW  Elec       q    Type
REMARK                         _______ _______ _______ _____ _____    ______ ____
ROOT
ATOM      1  C   UNL     1       3.661  -2.174   0.539  0.00  0.00    +0.105 A 
ATOM      2  C   UNL     1       2.434  -2.854   0.503  0.00  0.00    +0.132 A 
ATOM      3  C   UNL     1       2.409  -4.236   0.584  0.00  0.00    +0.059 A 
ATOM      4  C   UNL     1       3.600  -4.952   0.701  0.00  0.00    +0.044 A 
ATOM      5  C   UNL     1       4.822  -4.280   0.738  0.00  0.00    +0.059 A 
ATOM      6  C   UNL     1       4.857  -2.899   0.651  0.00  0.00    +0.132 A 
ENDROOT
BRANCH   4   7
ATOM      7  C   UNL     1       3.568  -6.429   0.787  0.00  0.00    +0.245 C 
ATOM      8  O   UNL     1       2.505  -7.017   0.756  0.00  0.00    -0.270 OA
ATOM      9  N   UNL     1       4.718  -7.123   0.901  0.00  0.00    -0.309 N 
ATOM     10  H   UNL     1       5.567  -6.654   0.926  0.00  0.00    +0.149 HD
BRANCH   9  11
ATOM     11  C   UNL     1       4.686  -8.585   0.986  0.00  0.00    +0.075 C 
ATOM     12  C   UNL     1       4.529  -9.033   2.455  0.00  0.00    -0.058 C 
ATOM     13  N   UNL     1       5.373 -10.251   2.568  0.00  0.00    +0.381 N 
ATOM     14  C   UNL     1       6.579  -9.935   1.759  0.00  0.00    -0.058 C 
ATOM     15  C   UNL     1       6.033  -9.178   0.526  0.00  0.00    +0.075 C 
ATOM     16  H   UNL     1       5.627 -10.416   3.530  0.00  0.00    -0.086 HD
ATOM     17  H   UNL     1       4.891 -11.051   2.185  0.00  0.00    -0.086 HD
BRANCH  15  18
ATOM     18  N   UNL     1       5.827 -10.104  -0.591  0.00  0.00    -0.309 N 
ATOM     19  C   UNL     1       6.827 -10.344  -1.462  0.00  0.00    +0.244 C 
ATOM     20  O   UNL     1       7.901  -9.792  -1.320  0.00  0.00    -0.270 OA
ATOM     21  H   UNL     1       4.970 -10.544  -0.703  0.00  0.00    +0.149 HD
BRANCH  19  22
ATOM     22  C   UNL     1       6.619 -11.276  -2.587  0.00  0.00    +0.037 A 
ATOM     23  C   UNL     1       5.383 -11.907  -2.754  0.00  0.00    +0.016 A 
ATOM     24  C   UNL     1       5.193 -12.777  -3.805  0.00  0.00    +0.046 A 
ATOM     25  C   UNL     1       6.228 -13.027  -4.698  0.00  0.00    +0.117 A 
ATOM     26  C   UNL     1       7.458 -12.401  -4.535  0.00  0.00    +0.046 A 
ATOM     27  C   UNL     1       7.655 -11.526  -3.490  0.00  0.00    +0.016 A 
BRANCH  25  28
ATOM     28  O   UNL     1       6.037 -13.885  -5.732  0.00  0.00    -0.507 OA
ATOM     29  H   UNL     1       5.707 -13.463  -6.538  0.00  0.00    +0.292 HD
ENDBRANCH  25  28
ENDBRANCH  19  22
ENDBRANCH  15  18
ENDBRANCH   9  11
ENDBRANCH   4   7
BRANCH   1  30
ATOM     30  C   UNL     1       3.693  -0.703   0.454  0.00  0.00    +0.204 C 
ATOM     31  O   UNL     1       4.746  -0.110   0.586  0.00  0.00    -0.286 OA
BRANCH  30  35
ATOM     32  C   UNL     1       0.096   1.467  -0.251  0.00  0.00    +0.004 A 
ATOM     33  C   UNL     1       0.815   0.970  -1.325  0.00  0.00    +0.016 A 
ATOM     34  C   UNL     1       1.991   0.259  -1.109  0.00  0.00    +0.077 A 
ATOM     35  C   UNL     1       2.447   0.049   0.209  0.00  0.00    +0.078 A 
ATOM     36  C   UNL     1       1.709   0.558   1.282  0.00  0.00    +0.128 A 
ATOM     37  C   UNL     1       0.536   1.265   1.041  0.00  0.00    +0.046 A 
BRANCH  34  38
ATOM     38  C   UNL     1       2.758  -0.272  -2.253  0.00  0.00    +0.387 C 
ATOM     39  O   UNL     1       2.311  -0.176  -3.387  0.00  0.00    -0.241 OA
ATOM     40  O   UNL     1       3.841  -0.809  -2.067  0.00  0.00    -0.241 OA
ENDBRANCH  34  38
BRANCH  36  41
ATOM     41  O   UNL     1       2.136   0.363   2.554  0.00  0.00    -0.506 OA
ATOM     42  H   UNL     1       2.659   1.095   2.910  0.00  0.00    +0.292 HD
ENDBRANCH  36  41
ENDBRANCH  30  35
ENDBRANCH   1  30
BRANCH   6  43
ATOM     43  O   UNL     1       6.046  -2.246   0.682  0.00  0.00    -0.506 OA
ATOM     44  H   UNL     1       6.340  -2.005   1.571  0.00  0.00    +0.292 HD
ENDBRANCH   6  43
BRANCH   2  45
ATOM     45  O   UNL     1       1.275  -2.159   0.390  0.00  0.00    -0.506 OA
ATOM     46  H   UNL     1       0.952  -2.079  -0.518  0.00  0.00    +0.292 HD
ENDBRANCH   2  45
TORSDOF 11
