REMARK  Name = CHEMBL475609
REMARK  9 active torsions:
REMARK  status: ('A' for Active; 'I' for Inactive)
REMARK    1  A    between atoms: C_1  and  O_2
REMARK    2  A    between atoms: O_2  and  C_3
REMARK    3  A    between atoms: C_5  and  N_11
REMARK    4  A    between atoms: C_7  and  O_9
REMARK    5  A    between atoms: O_9  and  C_10
REMARK    6  A    between atoms: N_11  and  C_12
REMARK    7  A    between atoms: C_13  and  C_31
REMARK    8  A    between atoms: N_21  and  C_22
REMARK    9  A    between atoms: C_28  and  N_30
REMARK                            x       y       z     vdW  Elec       q    Type
REMARK                         _______ _______ _______ _____ _____    ______ ____
ROOT
ATOM      1  C   UNL     1      -3.713  -4.784   0.071  0.00  0.00    +0.142 A 
ATOM      2  C   UNL     1      -3.679  -6.185   0.166  0.00  0.00    +0.121 A 
ATOM      3  C   UNL     1      -4.963  -6.888   0.244  0.00  0.00    +0.179 A 
ATOM      4  N   UNL     1      -5.327  -8.147   0.339  0.00  0.00    -0.129 NA
ATOM      5  N   UNL     1      -6.611  -8.225   0.374  0.00  0.00    -0.137 NA
ATOM      6  C   UNL     1      -7.141  -7.033   0.306  0.00  0.00    +0.232 A 
ATOM      7  N   UNL     1      -6.116  -6.135   0.220  0.00  0.00    -0.253 N 
ATOM      8  C   UNL     1      -6.037  -4.776   0.126  0.00  0.00    +0.204 A 
ATOM      9  N   UNL     1      -4.886  -4.147   0.061  0.00  0.00    -0.200 NA
ATOM     10  N   UNL     1      -7.193  -4.046   0.103  0.00  0.00    -0.313 N 
ATOM     11  H   UNL     1      -8.052  -4.495   0.154  0.00  0.00    +0.149 HD
ENDROOT
BRANCH  10  12
ATOM     12  C   UNL     1      -7.135  -2.586   0.002  0.00  0.00    +0.059 C 
ATOM     13  C   UNL     1      -7.024  -2.180  -1.469  0.00  0.00    +0.020 C 
ATOM     14  C   UNL     1      -8.244  -2.696  -2.234  0.00  0.00    +0.002 C 
ATOM     15  C   UNL     1      -9.515  -2.093  -1.634  0.00  0.00    -0.001 C 
ATOM     16  C   UNL     1      -9.627  -2.498  -0.163  0.00  0.00    -0.014 C 
ATOM     17  C   UNL     1      -8.407  -1.982   0.602  0.00  0.00    -0.055 C 
BRANCH  17  18
ATOM     18  N   UNL     1      -8.514  -2.371   2.015  0.00  0.00    +0.381 N 
ATOM     19  H   UNL     1      -7.709  -2.031   2.519  0.00  0.00    -0.090 HD
ATOM     20  H   UNL     1      -9.352  -1.973   2.411  0.00  0.00    -0.090 HD
ATOM     21  H   UNL     1      -8.554  -3.377   2.084  0.00  0.00    -0.090 HD
ENDBRANCH  17  18
ENDBRANCH  10  12
BRANCH   2  22
ATOM     22  C   UNL     1      -2.412  -6.914   0.185  0.00  0.00    +0.248 C 
ATOM     23  O   UNL     1      -1.359  -6.304   0.219  0.00  0.00    -0.270 OA
ATOM     24  N   UNL     1      -2.410  -8.262   0.165  0.00  0.00    -0.325 N 
ATOM     25  H   UNL     1      -3.249  -8.748   0.138  0.00  0.00    +0.145 HD
ATOM     26  H   UNL     1      -1.569  -8.746   0.178  0.00  0.00    +0.145 HD
ENDBRANCH   2  22
BRANCH   1  27
ATOM     27  N   UNL     1      -2.538  -4.068  -0.004  0.00  0.00    -0.298 N 
ATOM     28  H   UNL     1      -1.906  -4.246  -0.719  0.00  0.00    +0.154 HD
BRANCH  27  31
ATOM     29  C   UNL     1      -0.752  -1.453   1.872  0.00  0.00    +0.125 A 
ATOM     30  C   UNL     1      -1.032  -2.428   0.927  0.00  0.00    +0.069 A 
ATOM     31  C   UNL     1      -2.255  -3.085   0.948  0.00  0.00    +0.039 A 
ATOM     32  C   UNL     1      -3.198  -2.764   1.916  0.00  0.00    +0.069 A 
ATOM     33  C   UNL     1      -2.917  -1.789   2.860  0.00  0.00    +0.125 A 
ATOM     34  C   UNL     1      -1.692  -1.137   2.842  0.00  0.00    +0.091 A 
BRANCH  29  36
ATOM     35  C   UNL     1       0.667   0.179   2.859  0.00  0.00    +0.277 C 
ATOM     36  O   UNL     1       0.445  -0.810   1.852  0.00  0.00    -0.495 OA
ENDBRANCH  29  36
BRANCH  33  37
ATOM     37  O   UNL     1      -3.839  -1.475   3.808  0.00  0.00    -0.495 OA
ATOM     38  C   UNL     1      -3.483  -0.460   4.749  0.00  0.00    +0.277 C 
ENDBRANCH  33  37
ENDBRANCH  27  31
ENDBRANCH   1  27
TORSDOF 7
