REMARK  Name = CHEMBL283903
REMARK  0 active torsions:
REMARK  status: ('A' for Active; 'I' for Inactive)
REMARK                            x       y       z     vdW  Elec       q    Type
REMARK                         _______ _______ _______ _____ _____    ______ ____
ROOT
ATOM      1  C   UNL     1      -0.017   1.381   0.010  0.00  0.00    +0.001 A 
ATOM      2  C   UNL     1       1.149   2.128   0.003  0.00  0.00    +0.002 A 
ATOM      3  C   UNL     1       2.404   1.540  -0.016  0.00  0.00    +0.026 A 
ATOM      4  C   UNL     1       2.444   0.147  -0.026  0.00  0.00    +0.051 A 
ATOM      5  C   UNL     1       1.260  -0.610  -0.014  0.00  0.00    +0.008 A 
ATOM      6  C   UNL     1       0.002  -0.004   0.002  0.00  0.00    +0.010 A 
ATOM      7  C   UNL     1       1.673  -2.012  -0.021  0.00  0.00    +0.023 A 
ATOM      8  C   UNL     1       0.931  -3.200  -0.000  0.00  0.00    +0.060 A 
ATOM      9  C   UNL     1       1.600  -4.431  -0.007  0.00  0.00    +0.060 A 
ATOM     10  C   UNL     1       3.001  -4.455  -0.033  0.00  0.00    +0.023 A 
ATOM     11  C   UNL     1       3.953  -5.564  -0.039  0.00  0.00    +0.008 A 
ATOM     12  C   UNL     1       3.776  -6.949  -0.027  0.00  0.00    +0.010 A 
ATOM     13  C   UNL     1       4.928  -7.718  -0.040  0.00  0.00    +0.001 A 
ATOM     14  C   UNL     1       6.189  -7.147  -0.061  0.00  0.00    +0.002 A 
ATOM     15  C   UNL     1       6.378  -5.774  -0.071  0.00  0.00    +0.026 A 
ATOM     16  C   UNL     1       5.231  -4.982  -0.062  0.00  0.00    +0.051 A 
ATOM     17  N   UNL     1       5.097  -3.604  -0.078  0.00  0.00    -0.328 N 
ATOM     18  C   UNL     1       3.755  -3.262  -0.058  0.00  0.00    +0.076 A 
ATOM     19  C   UNL     1       3.084  -2.027  -0.049  0.00  0.00    +0.076 A 
ATOM     20  N   UNL     1       3.527  -0.715  -0.056  0.00  0.00    -0.328 N 
ATOM     21  C   UNL     1       4.890  -0.210  -0.107  0.00  0.00    +0.193 C 
ATOM     22  S   UNL     1       6.006  -1.231  -1.062  0.00  0.00    -0.118 S 
ATOM     23  C   UNL     1       6.262  -2.735  -0.128  0.00  0.00    +0.193 C 
ATOM     24  C   UNL     1       0.551  -5.465   0.020  0.00  0.00    +0.252 C 
ATOM     25  O   UNL     1       0.738  -6.666   0.023  0.00  0.00    -0.270 OA
ATOM     26  N   UNL     1      -0.648  -4.856   0.042  0.00  0.00    -0.248 N 
ATOM     27  C   UNL     1      -0.507  -3.518   0.031  0.00  0.00    +0.252 C 
ATOM     28  O   UNL     1      -1.413  -2.708   0.045  0.00  0.00    -0.270 OA
ATOM     29  H   UNL     1      -1.500  -5.319   0.062  0.00  0.00    +0.158 HD
ENDROOT
TORSDOF 0
