REMARK  Name = CHEMBL54209
REMARK  4 active torsions:
REMARK  status: ('A' for Active; 'I' for Inactive)
REMARK    1  A    between atoms: C_1  and  C_2
REMARK    2  A    between atoms: C_6  and  C_8
REMARK    3  A    between atoms: C_9  and  C_15
REMARK    4  A    between atoms: N_17  and  C_24
REMARK                            x       y       z     vdW  Elec       q    Type
REMARK                         _______ _______ _______ _____ _____    ______ ____
ROOT
ATOM      1  C   UNL     1       0.051  -2.846   2.456  0.00  0.00    +0.057 C 
ATOM      2  C   UNL     1       1.072  -3.657   2.933  0.00  0.00    +0.059 C 
ATOM      3  C   UNL     1       0.604  -4.176   4.242  0.00  0.00    +0.252 C 
ATOM      4  O   UNL     1       1.223  -4.924   4.971  0.00  0.00    -0.270 OA
ATOM      5  N   UNL     1      -0.621  -3.679   4.483  0.00  0.00    -0.248 N 
ATOM      6  C   UNL     1      -1.012  -2.880   3.476  0.00  0.00    +0.252 C 
ATOM      7  O   UNL     1      -2.070  -2.285   3.415  0.00  0.00    -0.270 OA
ATOM      8  H   UNL     1      -1.148  -3.867   5.276  0.00  0.00    +0.158 HD
ENDROOT
BRANCH   2   9
ATOM      9  C   UNL     1       2.354  -3.942   2.277  0.00  0.00    +0.013 A 
ATOM     10  C   UNL     1       3.431  -3.104   2.184  0.00  0.00    +0.095 A 
ATOM     11  N   UNL     1       4.432  -3.720   1.505  0.00  0.00    -0.349 N 
ATOM     12  C   UNL     1       4.046  -4.990   1.125  0.00  0.00    +0.049 A 
ATOM     13  C   UNL     1       2.737  -5.191   1.593  0.00  0.00    +0.008 A 
ATOM     14  C   UNL     1       2.089  -6.401   1.356  0.00  0.00    +0.010 A 
ATOM     15  C   UNL     1       2.740  -7.400   0.665  0.00  0.00    +0.001 A 
ATOM     16  C   UNL     1       4.034  -7.204   0.205  0.00  0.00    +0.002 A 
ATOM     17  C   UNL     1       4.684  -6.008   0.425  0.00  0.00    +0.026 A 
ATOM     18  C   UNL     1       5.737  -3.121   1.215  0.00  0.00    +0.149 C 
ENDBRANCH   2   9
BRANCH   1  24
ATOM     19  C   UNL     1      -0.018   1.503   0.010  0.00  0.00    +0.044 C 
ATOM     20  C   UNL     1       0.002  -0.004   0.002  0.00  0.00    -0.050 A 
ATOM     21  C   UNL     1       0.006  -0.688  -1.202  0.00  0.00    +0.003 A 
ATOM     22  C   UNL     1       0.024  -2.071  -1.219  0.00  0.00    +0.001 A 
ATOM     23  C   UNL     1       0.039  -2.779  -0.035  0.00  0.00    +0.009 A 
ATOM     24  C   UNL     1       0.036  -2.095   1.184  0.00  0.00    -0.012 A 
ATOM     25  C   UNL     1       0.023  -0.698   1.193  0.00  0.00    +0.012 A 
ENDBRANCH   1  24
TORSDOF 2
