REMARK  Name = CHEMBL523155
REMARK  13 active torsions:
REMARK  status: ('A' for Active; 'I' for Inactive)
REMARK    1  A    between atoms: C_1  and  C_2
REMARK    2  A    between atoms: C_5  and  C_8
REMARK    3  A    between atoms: C_9  and  C_10
REMARK    4  A    between atoms: C_13  and  O_16
REMARK    5  A    between atoms: O_16  and  C_17
REMARK    6  A    between atoms: C_17  and  C_18
REMARK    7  A    between atoms: C_18  and  O_20
REMARK    8  A    between atoms: O_20  and  C_21
REMARK    9  A    between atoms: C_21  and  C_22
REMARK   10  A    between atoms: C_22  and  C_31
REMARK   11  A    between atoms: C_25  and  C_26
REMARK   12  A    between atoms: C_25  and  C_27
REMARK   13  A    between atoms: C_31  and  O_32
REMARK                            x       y       z     vdW  Elec       q    Type
REMARK                         _______ _______ _______ _____ _____    ______ ____
ROOT
ATOM      1  C   UNL     1       0.156 -11.596   1.212  0.00  0.00    +0.349 C 
ENDROOT
BRANCH   1   2
ATOM      2  C   UNL     1       0.175 -13.089   1.006  0.00  0.00    +0.345 C 
ATOM      3  O   UNL     1       0.181 -13.545  -0.113  0.00  0.00    -0.247 OA
BRANCH   2   4
ATOM      4  O   UNL     1       0.186 -13.912   2.066  0.00  0.00    -0.458 OA
BRANCH   4   5
ATOM      5  C   UNL     1       0.204 -15.316   1.797  0.00  0.00    +0.282 C 
BRANCH   5   6
ATOM      6  C   UNL     1       0.214 -16.088   3.118  0.00  0.00    +0.174 C 
ATOM      7  C   UNL     1       0.318 -17.605   2.853  0.00  0.00    +0.096 C 
ATOM      8  C   UNL     1       1.343 -18.066   3.878  0.00  0.00    +0.039 C 
ATOM      9  C   UNL     1       1.806 -19.300   4.062  0.00  0.00    -0.066 C 
ATOM     10  C   UNL     1       1.308 -20.428   3.196  0.00  0.00    +0.039 C 
ATOM     11  C   UNL     1       2.828 -19.569   5.136  0.00  0.00    +0.039 C 
ATOM     12  C   UNL     1       1.713 -16.847   4.625  0.00  0.00    +0.336 C 
ATOM     13  O   UNL     1       2.220 -16.818   5.729  0.00  0.00    -0.245 OA
ATOM     14  O   UNL     1       1.394 -15.770   3.875  0.00  0.00    -0.449 OA
BRANCH   6  15
ATOM     15  C   UNL     1      -1.043 -15.770   3.930  0.00  0.00    +0.207 C 
BRANCH  15  16
ATOM     16  O   UNL     1      -1.157 -14.356   4.096  0.00  0.00    -0.391 OA
ATOM     17  H   UNL     1      -1.934 -14.081   4.603  0.00  0.00    +0.210 HD
ENDBRANCH  15  16
ENDBRANCH   6  15
ENDBRANCH   5   6
ENDBRANCH   4   5
ENDBRANCH   2   4
ENDBRANCH   1   2
BRANCH   1  18
ATOM     18  O   UNL     1       0.147 -10.941  -0.058  0.00  0.00    -0.481 OA
BRANCH  18  22
ATOM     19  C   UNL     1       0.093  -6.811  -0.035  0.00  0.00    +0.025 A 
ATOM     20  C   UNL     1       0.102  -7.505  -1.249  0.00  0.00    +0.020 A 
ATOM     21  C   UNL     1       0.120  -8.883  -1.251  0.00  0.00    +0.047 A 
ATOM     22  C   UNL     1       0.130  -9.582  -0.051  0.00  0.00    +0.121 A 
ATOM     23  C   UNL     1       0.121  -8.897   1.157  0.00  0.00    +0.047 A 
ATOM     24  C   UNL     1       0.108  -7.519   1.170  0.00  0.00    +0.020 A 
BRANCH  19  26
ATOM     25  C   UNL     1       0.059  -4.205  -0.021  0.00  0.00    -0.061 C 
ATOM     26  C   UNL     1       0.074  -5.379  -0.028  0.00  0.00    -0.061 C 
BRANCH  25  31
ATOM     27  C   UNL     1      -0.018   1.503   0.010  0.00  0.00    +0.044 C 
ATOM     28  C   UNL     1       0.002  -0.004   0.002  0.00  0.00    -0.050 A 
ATOM     29  C   UNL     1       0.006  -0.686  -1.202  0.00  0.00    +0.004 A 
ATOM     30  C   UNL     1       0.024  -2.065  -1.218  0.00  0.00    +0.017 A 
ATOM     31  C   UNL     1       0.040  -2.773  -0.013  0.00  0.00    +0.025 A 
ATOM     32  C   UNL     1       0.036  -2.078   1.199  0.00  0.00    +0.017 A 
ATOM     33  C   UNL     1       0.023  -0.699   1.198  0.00  0.00    +0.004 A 
ENDBRANCH  25  31
ENDBRANCH  19  26
ENDBRANCH  18  22
ENDBRANCH   1  18
TORSDOF 10
