REMARK  Name = CHEMBL175845
REMARK  8 active torsions:
REMARK  status: ('A' for Active; 'I' for Inactive)
REMARK    1  A    between atoms: C_1  and  N_2
REMARK    2  A    between atoms: N_5  and  C_8
REMARK    3  A    between atoms: C_8  and  C_9
REMARK    4  A    between atoms: C_9  and  C_10
REMARK    5  A    between atoms: C_10  and  N_11
REMARK    6  A    between atoms: C_18  and  C_20
REMARK    7  A    between atoms: C_21  and  C_27
REMARK    8  A    between atoms: N_29  and  C_36
REMARK                            x       y       z     vdW  Elec       q    Type
REMARK                         _______ _______ _______ _____ _____    ______ ____
ROOT
ATOM      1  C   UNL     1       0.006  -7.460   7.369  0.00  0.00    +0.077 C 
ATOM      2  C   UNL     1      -1.253  -7.903   7.758  0.00  0.00    +0.060 C 
ATOM      3  C   UNL     1      -1.176  -8.118   9.221  0.00  0.00    +0.252 C 
ATOM      4  O   UNL     1      -2.083  -8.507   9.930  0.00  0.00    -0.270 OA
ATOM      5  N   UNL     1       0.065  -7.811   9.633  0.00  0.00    -0.248 N 
ATOM      6  C   UNL     1       0.824  -7.420   8.596  0.00  0.00    +0.253 C 
ATOM      7  O   UNL     1       1.990  -7.084   8.659  0.00  0.00    -0.270 OA
ATOM      8  H   UNL     1       0.372  -7.867  10.552  0.00  0.00    +0.158 HD
ENDROOT
BRANCH   1  16
ATOM      9  N   UNL     1       0.424  -6.543   3.856  0.00  0.00    -0.263 N 
ATOM     10  C   UNL     1       1.755  -6.653   4.172  0.00  0.00    +0.070 A 
ATOM     11  C   UNL     1       2.932  -6.486   3.447  0.00  0.00    +0.028 A 
ATOM     12  C   UNL     1       4.148  -6.673   4.064  0.00  0.00    +0.002 A 
ATOM     13  C   UNL     1       4.212  -7.028   5.406  0.00  0.00    +0.001 A 
ATOM     14  C   UNL     1       3.070  -7.197   6.135  0.00  0.00    +0.012 A 
ATOM     15  C   UNL     1       1.826  -7.012   5.530  0.00  0.00    +0.028 A 
ATOM     16  C   UNL     1       0.439  -7.109   6.004  0.00  0.00    +0.106 A 
ATOM     17  N   UNL     1      -0.346  -6.820   4.989  0.00  0.00    -0.170 NA
BRANCH   9  18
ATOM     18  C   UNL     1      -0.106  -6.185   2.538  0.00  0.00    +0.145 C 
BRANCH  18  19
ATOM     19  C   UNL     1      -0.256  -4.665   2.443  0.00  0.00    +0.039 C 
BRANCH  19  20
ATOM     20  C   UNL     1      -0.810  -4.292   1.067  0.00  0.00    +0.086 C 
BRANCH  20  25
ATOM     21  C   UNL     1      -0.734   1.176  -0.291  0.00  0.00    -0.096 C 
ATOM     22  N   UNL     1      -0.561  -0.282  -0.248  0.00  0.00    +0.379 N 
ATOM     23  C   UNL     1      -1.879  -0.931  -0.257  0.00  0.00    -0.064 C 
ATOM     24  C   UNL     1      -1.699  -2.451  -0.231  0.00  0.00    +0.066 C 
ATOM     25  N   UNL     1      -0.954  -2.833   0.977  0.00  0.00    -0.306 NA
ATOM     26  C   UNL     1       0.358  -2.171   1.011  0.00  0.00    +0.066 C 
ATOM     27  C   UNL     1       0.162  -0.654   0.975  0.00  0.00    -0.064 C 
ATOM     28  H   UNL     1      -0.034  -0.582  -1.054  0.00  0.00    -0.082 HD
ENDBRANCH  20  25
ENDBRANCH  19  20
ENDBRANCH  18  19
ENDBRANCH   9  18
ENDBRANCH   1  16
BRANCH   2  29
ATOM     29  C   UNL     1      -2.422  -8.114   6.893  0.00  0.00    +0.013 A 
ATOM     30  C   UNL     1      -2.622  -9.153   6.029  0.00  0.00    +0.101 A 
ATOM     31  N   UNL     1      -3.821  -9.004   5.404  0.00  0.00    -0.315 N 
ATOM     32  C   UNL     1      -4.450  -7.854   5.841  0.00  0.00    +0.054 A 
ATOM     33  C   UNL     1      -3.613  -7.250   6.793  0.00  0.00    +0.008 A 
ATOM     34  C   UNL     1      -4.001  -6.065   7.413  0.00  0.00    +0.010 A 
ATOM     35  C   UNL     1      -5.212  -5.491   7.090  0.00  0.00    +0.001 A 
ATOM     36  C   UNL     1      -6.041  -6.088   6.153  0.00  0.00    +0.002 A 
ATOM     37  C   UNL     1      -5.665  -7.257   5.525  0.00  0.00    +0.027 A 
BRANCH  31  38
ATOM     38  C   UNL     1      -4.342  -9.889   4.453  0.00  0.00    +0.047 A 
ATOM     39  C   UNL     1      -5.654 -10.359   4.590  0.00  0.00    +0.027 A 
ATOM     40  C   UNL     1      -6.186 -11.218   3.682  0.00  0.00    +0.010 A 
ATOM     41  C   UNL     1      -5.415 -11.646   2.586  0.00  0.00    -0.018 A 
ATOM     42  C   UNL     1      -5.939 -12.535   1.632  0.00  0.00    +0.008 A 
ATOM     43  C   UNL     1      -5.167 -12.930   0.583  0.00  0.00    +0.001 A 
ATOM     44  C   UNL     1      -3.861 -12.467   0.439  0.00  0.00    +0.001 A 
ATOM     45  C   UNL     1      -3.319 -11.606   1.343  0.00  0.00    +0.008 A 
ATOM     46  C   UNL     1      -4.087 -11.175   2.440  0.00  0.00    -0.016 A 
ATOM     47  C   UNL     1      -3.562 -10.283   3.389  0.00  0.00    +0.034 A 
ENDBRANCH  31  38
ENDBRANCH   2  29
TORSDOF 7
