REMARK  Name = CHEMBL283399
REMARK  0 active torsions:
REMARK  status: ('A' for Active; 'I' for Inactive)
REMARK                            x       y       z     vdW  Elec       q    Type
REMARK                         _______ _______ _______ _____ _____    ______ ____
ROOT
ATOM      1  C   UNL     1      -0.017   1.381   0.010  0.00  0.00    +0.001 A 
ATOM      2  C   UNL     1       1.149   2.128   0.003  0.00  0.00    +0.002 A 
ATOM      3  C   UNL     1       2.404   1.540  -0.006  0.00  0.00    +0.026 A 
ATOM      4  C   UNL     1       2.445   0.146  -0.009  0.00  0.00    +0.052 A 
ATOM      5  C   UNL     1       1.259  -0.611  -0.014  0.00  0.00    +0.008 A 
ATOM      6  C   UNL     1       0.002  -0.004   0.002  0.00  0.00    +0.010 A 
ATOM      7  C   UNL     1       1.670  -2.013  -0.056  0.00  0.00    +0.023 A 
ATOM      8  C   UNL     1       0.934  -3.205  -0.085  0.00  0.00    +0.060 A 
ATOM      9  C   UNL     1       1.606  -4.430  -0.189  0.00  0.00    +0.060 A 
ATOM     10  C   UNL     1       3.005  -4.447  -0.259  0.00  0.00    +0.023 A 
ATOM     11  C   UNL     1       3.962  -5.534  -0.458  0.00  0.00    +0.008 A 
ATOM     12  C   UNL     1       3.792  -6.909  -0.634  0.00  0.00    +0.010 A 
ATOM     13  C   UNL     1       4.944  -7.658  -0.804  0.00  0.00    +0.001 A 
ATOM     14  C   UNL     1       6.200  -7.077  -0.801  0.00  0.00    +0.002 A 
ATOM     15  C   UNL     1       6.385  -5.715  -0.624  0.00  0.00    +0.026 A 
ATOM     16  C   UNL     1       5.238  -4.943  -0.447  0.00  0.00    +0.052 A 
ATOM     17  N   UNL     1       5.097  -3.586  -0.225  0.00  0.00    -0.314 N 
ATOM     18  C   UNL     1       3.755  -3.256  -0.160  0.00  0.00    +0.077 A 
ATOM     19  C   UNL     1       3.080  -2.026  -0.064  0.00  0.00    +0.077 A 
ATOM     20  N   UNL     1       3.523  -0.718   0.011  0.00  0.00    -0.314 N 
ATOM     21  C   UNL     1       4.896  -0.230   0.158  0.00  0.00    +0.258 C 
ATOM     22  C   UNL     1       5.522  -0.023  -1.221  0.00  0.00    +0.208 C 
ATOM     23  O   UNL     1       5.636  -1.275  -1.895  0.00  0.00    -0.372 OA
ATOM     24  C   UNL     1       6.671  -2.121  -1.396  0.00  0.00    +0.208 C 
ATOM     25  C   UNL     1       6.257  -2.710  -0.049  0.00  0.00    +0.258 C 
ATOM     26  S   UNL     1       5.888  -1.389   1.125  0.00  0.00    +0.016 S 
ATOM     27  O   UNL     1       5.071  -1.923   2.157  0.00  0.00    -0.170 OA
ATOM     28  O   UNL     1       7.107  -0.749   1.475  0.00  0.00    -0.170 OA
ATOM     29  C   UNL     1       0.561  -5.469  -0.199  0.00  0.00    +0.252 C 
ATOM     30  O   UNL     1       0.751  -6.666  -0.277  0.00  0.00    -0.270 OA
ATOM     31  N   UNL     1      -0.639  -4.867  -0.109  0.00  0.00    -0.248 N 
ATOM     32  C   UNL     1      -0.502  -3.530  -0.037  0.00  0.00    +0.252 C 
ATOM     33  O   UNL     1      -1.410  -2.728   0.053  0.00  0.00    -0.270 OA
ATOM     34  H   UNL     1      -1.489  -5.335  -0.097  0.00  0.00    +0.158 HD
ENDROOT
TORSDOF 0
