REMARK  Name = CHEMBL105477
REMARK  2 active torsions:
REMARK  status: ('A' for Active; 'I' for Inactive)
REMARK    1  A    between atoms: C_1  and  N_2
REMARK    2  A    between atoms: N_27  and  C_33
REMARK                            x       y       z     vdW  Elec       q    Type
REMARK                         _______ _______ _______ _____ _____    ______ ____
ROOT
ATOM      1  C   UNL     1      -0.018   1.500   0.010  0.00  0.00    +0.105 C 
ATOM      2  N   UNL     1       0.002  -0.004   0.002  0.00  0.00    -0.301 NA
ATOM      3  C   UNL     1      -1.402  -0.417   0.356  0.00  0.00    +0.105 C 
ATOM      4  C   UNL     1      -2.319   0.181  -0.698  0.00  0.00    +0.137 C 
ATOM      5  N   UNL     1      -3.581  -0.532  -0.871  0.00  0.00    -0.345 N 
ATOM      6  C   UNL     1      -3.865  -1.845  -0.662  0.00  0.00    +0.095 A 
ATOM      7  C   UNL     1      -5.146  -2.115  -0.983  0.00  0.00    +0.013 A 
ATOM      8  C   UNL     1      -5.750  -0.808  -1.373  0.00  0.00    +0.008 A 
ATOM      9  C   UNL     1      -4.710   0.128  -1.320  0.00  0.00    +0.050 A 
ATOM     10  C   UNL     1      -4.945   1.442  -1.711  0.00  0.00    +0.026 A 
ATOM     11  C   UNL     1      -6.211   1.823  -2.106  0.00  0.00    +0.002 A 
ATOM     12  C   UNL     1      -7.259   0.914  -2.094  0.00  0.00    +0.001 A 
ATOM     13  C   UNL     1      -7.035  -0.395  -1.715  0.00  0.00    +0.010 A 
ATOM     14  C   UNL     1      -5.945  -3.353  -1.025  0.00  0.00    +0.059 C 
ATOM     15  C   UNL     1      -5.978  -4.554  -0.342  0.00  0.00    +0.059 C 
ATOM     16  C   UNL     1      -5.240  -5.151   0.794  0.00  0.00    +0.013 A 
ATOM     17  C   UNL     1      -4.041  -4.847   1.346  0.00  0.00    +0.095 A 
ATOM     18  N   UNL     1      -3.737  -5.724   2.339  0.00  0.00    -0.345 N 
ATOM     19  C   UNL     1      -4.755  -6.648   2.478  0.00  0.00    +0.050 A 
ATOM     20  C   UNL     1      -5.765  -6.311   1.570  0.00  0.00    +0.008 A 
ATOM     21  C   UNL     1      -6.968  -7.003   1.579  0.00  0.00    +0.010 A 
ATOM     22  C   UNL     1      -7.127  -8.103   2.398  0.00  0.00    +0.001 A 
ATOM     23  C   UNL     1      -6.091  -8.490   3.233  0.00  0.00    +0.002 A 
ATOM     24  C   UNL     1      -4.918  -7.771   3.283  0.00  0.00    +0.026 A 
ATOM     25  C   UNL     1      -2.536  -5.719   3.172  0.00  0.00    +0.137 C 
ATOM     26  C   UNL     1      -1.301  -5.271   2.392  0.00  0.00    +0.105 C 
ATOM     27  N   UNL     1      -0.108  -5.773   3.129  0.00  0.00    -0.301 NA
ATOM     28  C   UNL     1       0.860  -4.665   3.271  0.00  0.00    +0.112 C 
ATOM     29  C   UNL     1       1.100  -3.965   1.938  0.00  0.00    +0.175 C 
ATOM     30  O   UNL     1       0.908  -2.557   2.135  0.00  0.00    -0.377 OA
ATOM     31  C   UNL     1       1.365  -1.767   1.032  0.00  0.00    +0.175 C 
ATOM     32  C   UNL     1       0.832  -0.348   1.200  0.00  0.00    +0.112 C 
ATOM     33  C   UNL     1       0.527  -6.829   2.290  0.00  0.00    +0.105 C 
ATOM     34  C   UNL     1      -7.000  -5.385  -1.056  0.00  0.00    +0.252 C 
ATOM     35  O   UNL     1      -7.217  -6.567  -0.888  0.00  0.00    -0.270 OA
ATOM     36  N   UNL     1      -7.642  -4.638  -1.955  0.00  0.00    -0.248 N 
ATOM     37  C   UNL     1      -7.039  -3.456  -2.050  0.00  0.00    +0.252 C 
ATOM     38  O   UNL     1      -7.319  -2.616  -2.883  0.00  0.00    -0.270 OA
ATOM     39  H   UNL     1      -8.418  -4.915  -2.462  0.00  0.00    +0.158 HD
ENDROOT
TORSDOF 0
