REMARK  Name = CHEMBL489520
REMARK  15 active torsions:
REMARK  status: ('A' for Active; 'I' for Inactive)
REMARK    1  A    between atoms: C_1  and  C_2
REMARK    2  A    between atoms: C_5  and  C_8
REMARK    3  A    between atoms: C_9  and  C_10
REMARK    4  A    between atoms: C_13  and  O_16
REMARK    5  A    between atoms: O_16  and  C_17
REMARK    6  A    between atoms: C_17  and  C_18
REMARK    7  A    between atoms: C_18  and  C_19
REMARK    8  A    between atoms: C_19  and  C_20
REMARK    9  A    between atoms: C_20  and  O_22
REMARK   10  A    between atoms: O_22  and  C_23
REMARK   11  A    between atoms: C_23  and  C_24
REMARK   12  A    between atoms: C_24  and  C_33
REMARK   13  A    between atoms: C_27  and  C_28
REMARK   14  A    between atoms: C_27  and  C_29
REMARK   15  A    between atoms: C_33  and  O_34
REMARK                            x       y       z     vdW  Elec       q    Type
REMARK                         _______ _______ _______ _____ _____    ______ ____
ROOT
ATOM      1  C   UNL     1       0.175 -13.112   1.003  0.00  0.00    +0.052 C 
ENDROOT
BRANCH   1   2
ATOM      2  C   UNL     1       0.156 -11.596   1.212  0.00  0.00    +0.229 C 
BRANCH   2   3
ATOM      3  O   UNL     1       0.147 -10.941  -0.058  0.00  0.00    -0.492 OA
BRANCH   3   7
ATOM      4  C   UNL     1       0.093  -6.811  -0.035  0.00  0.00    +0.025 A 
ATOM      5  C   UNL     1       0.102  -7.505  -1.249  0.00  0.00    +0.020 A 
ATOM      6  C   UNL     1       0.120  -8.883  -1.251  0.00  0.00    +0.047 A 
ATOM      7  C   UNL     1       0.130  -9.582  -0.051  0.00  0.00    +0.121 A 
ATOM      8  C   UNL     1       0.121  -8.897   1.157  0.00  0.00    +0.047 A 
ATOM      9  C   UNL     1       0.108  -7.519   1.170  0.00  0.00    +0.020 A 
BRANCH   4  11
ATOM     10  C   UNL     1       0.059  -4.205  -0.021  0.00  0.00    -0.061 C 
ATOM     11  C   UNL     1       0.074  -5.379  -0.028  0.00  0.00    -0.061 C 
BRANCH  10  16
ATOM     12  C   UNL     1      -0.018   1.503   0.010  0.00  0.00    +0.044 C 
ATOM     13  C   UNL     1       0.002  -0.004   0.002  0.00  0.00    -0.050 A 
ATOM     14  C   UNL     1       0.006  -0.686  -1.202  0.00  0.00    +0.004 A 
ATOM     15  C   UNL     1       0.024  -2.065  -1.218  0.00  0.00    +0.017 A 
ATOM     16  C   UNL     1       0.040  -2.773  -0.013  0.00  0.00    +0.025 A 
ATOM     17  C   UNL     1       0.036  -2.078   1.199  0.00  0.00    +0.017 A 
ATOM     18  C   UNL     1       0.023  -0.699   1.198  0.00  0.00    +0.004 A 
ENDBRANCH  10  16
ENDBRANCH   4  11
ENDBRANCH   3   7
ENDBRANCH   2   3
ENDBRANCH   1   2
BRANCH   1  19
ATOM     19  C   UNL     1       0.185 -13.814   2.362  0.00  0.00    +0.124 C 
BRANCH  19  20
ATOM     20  C   UNL     1       0.204 -15.307   2.156  0.00  0.00    +0.307 C 
ATOM     21  O   UNL     1       0.209 -15.762   1.037  0.00  0.00    -0.251 OA
BRANCH  20  22
ATOM     22  O   UNL     1       0.215 -16.130   3.216  0.00  0.00    -0.461 OA
BRANCH  22  23
ATOM     23  C   UNL     1       0.233 -17.533   2.947  0.00  0.00    +0.282 C 
BRANCH  23  24
ATOM     24  C   UNL     1       0.243 -18.306   4.268  0.00  0.00    +0.174 C 
ATOM     25  C   UNL     1       0.305 -19.825   4.003  0.00  0.00    +0.096 C 
ATOM     26  C   UNL     1      -1.135 -20.270   4.208  0.00  0.00    +0.039 C 
ATOM     27  C   UNL     1      -1.622 -21.505   4.112  0.00  0.00    -0.066 C 
ATOM     28  C   UNL     1      -0.707 -22.651   3.764  0.00  0.00    +0.039 C 
ATOM     29  C   UNL     1      -3.088 -21.758   4.351  0.00  0.00    +0.039 C 
ATOM     30  C   UNL     1      -1.876 -19.036   4.537  0.00  0.00    +0.336 C 
ATOM     31  O   UNL     1      -3.076 -18.880   4.433  0.00  0.00    -0.245 OA
ATOM     32  O   UNL     1      -0.994 -18.110   4.973  0.00  0.00    -0.449 OA
BRANCH  24  33
ATOM     33  C   UNL     1       1.425 -17.864   5.134  0.00  0.00    +0.207 C 
BRANCH  33  34
ATOM     34  O   UNL     1       1.325 -16.464   5.398  0.00  0.00    -0.391 OA
ATOM     35  H   UNL     1       2.044 -16.114   5.943  0.00  0.00    +0.210 HD
ENDBRANCH  33  34
ENDBRANCH  24  33
ENDBRANCH  23  24
ENDBRANCH  22  23
ENDBRANCH  20  22
ENDBRANCH  19  20
ENDBRANCH   1  19
TORSDOF 12
