REMARK  Name = CHEMBL283259
REMARK  0 active torsions:
REMARK  status: ('A' for Active; 'I' for Inactive)
REMARK                            x       y       z     vdW  Elec       q    Type
REMARK                         _______ _______ _______ _____ _____    ______ ____
ROOT
ATOM      1  C   UNL     1      -0.017   1.381   0.010  0.00  0.00    +0.001 A 
ATOM      2  C   UNL     1       1.149   2.128   0.003  0.00  0.00    +0.002 A 
ATOM      3  C   UNL     1       2.404   1.540  -0.016  0.00  0.00    +0.026 A 
ATOM      4  C   UNL     1       2.444   0.146  -0.030  0.00  0.00    +0.052 A 
ATOM      5  C   UNL     1       1.260  -0.611  -0.017  0.00  0.00    +0.008 A 
ATOM      6  C   UNL     1       0.002  -0.004   0.002  0.00  0.00    +0.010 A 
ATOM      7  C   UNL     1       1.672  -2.013  -0.024  0.00  0.00    +0.023 A 
ATOM      8  C   UNL     1       0.933  -3.203  -0.008  0.00  0.00    +0.060 A 
ATOM      9  C   UNL     1       1.605  -4.432  -0.006  0.00  0.00    +0.060 A 
ATOM     10  C   UNL     1       3.006  -4.455  -0.020  0.00  0.00    +0.023 A 
ATOM     11  C   UNL     1       3.963  -5.559  -0.003  0.00  0.00    +0.008 A 
ATOM     12  C   UNL     1       3.793  -6.944   0.026  0.00  0.00    +0.010 A 
ATOM     13  C   UNL     1       4.949  -7.709   0.039  0.00  0.00    +0.001 A 
ATOM     14  C   UNL     1       6.207  -7.132   0.024  0.00  0.00    +0.002 A 
ATOM     15  C   UNL     1       6.390  -5.758  -0.005  0.00  0.00    +0.026 A 
ATOM     16  C   UNL     1       5.240  -4.971  -0.021  0.00  0.00    +0.052 A 
ATOM     17  N   UNL     1       5.101  -3.594  -0.060  0.00  0.00    -0.318 N 
ATOM     18  C   UNL     1       3.756  -3.260  -0.048  0.00  0.00    +0.077 A 
ATOM     19  C   UNL     1       3.082  -2.027  -0.049  0.00  0.00    +0.077 A 
ATOM     20  N   UNL     1       3.528  -0.715  -0.065  0.00  0.00    -0.318 N 
ATOM     21  C   UNL     1       4.890  -0.216  -0.133  0.00  0.00    +0.291 C 
ATOM     22  S   UNL     1       5.998  -1.237  -1.095  0.00  0.00    +0.006 S 
ATOM     23  O   UNL     1       5.324  -1.608  -2.291  0.00  0.00    -0.171 OA
ATOM     24  O   UNL     1       7.242  -0.559  -1.197  0.00  0.00    -0.171 OA
ATOM     25  C   UNL     1       6.257  -2.718  -0.128  0.00  0.00    +0.291 C 
ATOM     26  C   UNL     1       0.558  -5.469   0.018  0.00  0.00    +0.252 C 
ATOM     27  O   UNL     1       0.748  -6.670   0.021  0.00  0.00    -0.270 OA
ATOM     28  N   UNL     1      -0.643  -4.863   0.037  0.00  0.00    -0.248 N 
ATOM     29  C   UNL     1      -0.505  -3.524   0.012  0.00  0.00    +0.252 C 
ATOM     30  O   UNL     1      -1.413  -2.717   0.007  0.00  0.00    -0.270 OA
ATOM     31  H   UNL     1      -1.494  -5.328   0.065  0.00  0.00    +0.158 HD
ENDROOT
TORSDOF 0
