REMARK  Name = CHEMBL263910
REMARK  11 active torsions:
REMARK  status: ('A' for Active; 'I' for Inactive)
REMARK    1  A    between atoms: C_3  and  C_43
REMARK    2  A    between atoms: C_4  and  C_8
REMARK    3  A    between atoms: C_5  and  O_7
REMARK    4  A    between atoms: C_8  and  C_10
REMARK    5  A    between atoms: C_11  and  O_42
REMARK    6  A    between atoms: C_13  and  C_17
REMARK    7  A    between atoms: C_17  and  O_19
REMARK    8  A    between atoms: O_19  and  C_20
REMARK    9  A    between atoms: C_22  and  N_32
REMARK   10  A    between atoms: C_33  and  C_35
REMARK   11  A    between atoms: C_38  and  O_41
REMARK                            x       y       z     vdW  Elec       q    Type
REMARK                         _______ _______ _______ _____ _____    ______ ____
ROOT
ATOM      1  C   UNL     1       3.327  -6.522   1.371  0.00  0.00    +0.340 C 
ATOM      2  O   UNL     1       4.352  -7.142   1.569  0.00  0.00    -0.245 OA
ENDROOT
BRANCH   1   6
ATOM      3  C   UNL     1       3.453  -2.288   0.893  0.00  0.00    +0.110 A 
ATOM      4  C   UNL     1       4.637  -3.006   1.122  0.00  0.00    +0.132 A 
ATOM      5  C   UNL     1       4.591  -4.381   1.277  0.00  0.00    +0.061 A 
ATOM      6  C   UNL     1       3.370  -5.053   1.205  0.00  0.00    +0.066 A 
ATOM      7  C   UNL     1       2.192  -4.343   0.977  0.00  0.00    +0.066 A 
ATOM      8  C   UNL     1       2.227  -2.967   0.828  0.00  0.00    +0.194 A 
ATOM      9  O   UNL     1       1.079  -2.277   0.612  0.00  0.00    -0.287 OA
BRANCH   3  10
ATOM     10  C   UNL     1       3.497  -0.825   0.727  0.00  0.00    +0.205 C 
ATOM     11  O   UNL     1       4.543  -0.226   0.887  0.00  0.00    -0.286 OA
BRANCH  10  15
ATOM     12  C   UNL     1      -0.042   1.308  -0.310  0.00  0.00    +0.004 A 
ATOM     13  C   UNL     1       0.734   0.746  -1.309  0.00  0.00    +0.016 A 
ATOM     14  C   UNL     1       1.893   0.047  -0.985  0.00  0.00    +0.077 A 
ATOM     15  C   UNL     1       2.271  -0.086   0.367  0.00  0.00    +0.078 A 
ATOM     16  C   UNL     1       1.476   0.487   1.364  0.00  0.00    +0.128 A 
ATOM     17  C   UNL     1       0.322   1.181   1.016  0.00  0.00    +0.046 A 
BRANCH  14  18
ATOM     18  C   UNL     1       2.721  -0.552  -2.050  0.00  0.00    +0.387 C 
ATOM     19  O   UNL     1       2.339  -0.523  -3.211  0.00  0.00    -0.241 OA
ATOM     20  O   UNL     1       3.789  -1.077  -1.771  0.00  0.00    -0.241 OA
ENDBRANCH  14  18
BRANCH  16  21
ATOM     21  O   UNL     1       1.828   0.366   2.669  0.00  0.00    -0.506 OA
ATOM     22  H   UNL     1       2.333   1.116   3.011  0.00  0.00    +0.292 HD
ENDBRANCH  16  21
ENDBRANCH  10  15
ENDBRANCH   3  10
BRANCH   4  23
ATOM     23  O   UNL     1       5.824  -2.354   1.191  0.00  0.00    -0.506 OA
ATOM     24  H   UNL     1       6.062  -2.063   2.082  0.00  0.00    +0.292 HD
ENDBRANCH   4  23
ENDBRANCH   1   6
BRANCH   1  25
ATOM     25  O   UNL     1       2.149  -7.173   1.302  0.00  0.00    -0.456 OA
BRANCH  25  26
ATOM     26  C   UNL     1       2.181  -8.592   1.471  0.00  0.00    +0.200 C 
ATOM     27  C   UNL     1       1.942  -8.963   2.952  0.00  0.00    +0.117 C 
ATOM     28  C   UNL     1       0.638  -9.818   2.938  0.00  0.00    +0.017 C 
ATOM     29  C   UNL     1      -0.147  -9.132   1.765  0.00  0.00    +0.013 C 
ATOM     30  C   UNL     1       1.002  -9.258   0.699  0.00  0.00    +0.035 C 
ATOM     31  C   UNL     1       1.299 -10.786   0.773  0.00  0.00    -0.001 C 
ATOM     32  C   UNL     1       1.056 -11.159   2.262  0.00  0.00    -0.003 C 
ATOM     33  C   UNL     1      -0.162 -12.104   2.279  0.00  0.00    +0.004 C 
ATOM     34  C   UNL     1      -0.192 -12.718   0.858  0.00  0.00    +0.001 C 
ATOM     35  C   UNL     1       0.219 -11.523  -0.043  0.00  0.00    +0.004 C 
BRANCH  27  36
ATOM     36  N   UNL     1       3.065  -9.749   3.470  0.00  0.00    -0.305 N 
ATOM     37  C   UNL     1       3.277  -9.827   4.798  0.00  0.00    +0.244 C 
ATOM     38  O   UNL     1       2.536  -9.246   5.567  0.00  0.00    -0.270 OA
ATOM     39  H   UNL     1       3.656 -10.213   2.856  0.00  0.00    +0.149 HD
BRANCH  37  40
ATOM     40  C   UNL     1       4.408 -10.619   5.319  0.00  0.00    +0.037 A 
ATOM     41  C   UNL     1       5.264 -11.283   4.437  0.00  0.00    +0.016 A 
ATOM     42  C   UNL     1       6.319 -12.020   4.927  0.00  0.00    +0.046 A 
ATOM     43  C   UNL     1       6.533 -12.104   6.298  0.00  0.00    +0.117 A 
ATOM     44  C   UNL     1       5.683 -11.445   7.179  0.00  0.00    +0.046 A 
ATOM     45  C   UNL     1       4.630 -10.701   6.697  0.00  0.00    +0.016 A 
BRANCH  43  46
ATOM     46  O   UNL     1       7.573 -12.832   6.777  0.00  0.00    -0.507 OA
ATOM     47  H   UNL     1       8.392 -12.328   6.880  0.00  0.00    +0.292 HD
ENDBRANCH  43  46
ENDBRANCH  37  40
ENDBRANCH  27  36
ENDBRANCH  25  26
ENDBRANCH   1  25
TORSDOF 11
