REMARK  Name = CHEMBL329274
REMARK  2 active torsions:
REMARK  status: ('A' for Active; 'I' for Inactive)
REMARK    1  A    between atoms: N_9  and  C_10
REMARK    2  A    between atoms: C_11  and  N_17
REMARK                            x       y       z     vdW  Elec       q    Type
REMARK                         _______ _______ _______ _____ _____    ______ ____
ROOT
ATOM      1  C   UNL     1       4.812  -0.549  -0.048  0.00  0.00    +0.140 C 
ATOM      2  C   UNL     1       5.656  -0.625  -1.106  0.00  0.00    +0.140 C 
ATOM      3  C   UNL     1       6.989  -0.179  -0.610  0.00  0.00    +0.289 C 
ATOM      4  O   UNL     1       8.011  -0.110  -1.275  0.00  0.00    -0.266 OA
ATOM      5  N   UNL     1       6.878   0.133   0.682  0.00  0.00    -0.135 NA
ATOM      6  C   UNL     1       5.624  -0.049   1.098  0.00  0.00    +0.289 C 
ATOM      7  O   UNL     1       5.210   0.156   2.229  0.00  0.00    -0.266 OA
ENDROOT
BRANCH   1  16
ATOM      8  C   UNL     1      -0.017   1.373   0.010  0.00  0.00    +0.001 A 
ATOM      9  C   UNL     1       1.171   2.091   0.002  0.00  0.00    +0.002 A 
ATOM     10  C   UNL     1       2.386   1.440  -0.013  0.00  0.00    +0.027 A 
ATOM     11  C   UNL     1       2.428   0.051  -0.021  0.00  0.00    +0.054 A 
ATOM     12  C   UNL     1       1.224  -0.678  -0.013  0.00  0.00    +0.000 A 
ATOM     13  C   UNL     1       0.002  -0.004   0.002  0.00  0.00    +0.010 A 
ATOM     14  C   UNL     1       1.606  -2.093  -0.025  0.00  0.00    +0.028 A 
ATOM     15  C   UNL     1       2.948  -2.138  -0.038  0.00  0.00    +0.092 A 
ATOM     16  N   UNL     1       3.458  -0.867  -0.036  0.00  0.00    -0.310 N 
ENDBRANCH   1  16
BRANCH   2  17
ATOM     17  N   UNL     1       5.341  -1.038  -2.397  0.00  0.00    -0.310 N 
ATOM     18  C   UNL     1       4.651  -0.294  -3.315  0.00  0.00    +0.092 A 
ATOM     19  C   UNL     1       4.519  -0.985  -4.459  0.00  0.00    +0.028 A 
ATOM     20  C   UNL     1       5.178  -2.278  -4.257  0.00  0.00    +0.000 A 
ATOM     21  C   UNL     1       5.683  -2.257  -2.944  0.00  0.00    +0.054 A 
ATOM     22  C   UNL     1       6.374  -3.362  -2.461  0.00  0.00    +0.027 A 
ATOM     23  C   UNL     1       6.561  -4.464  -3.268  0.00  0.00    +0.002 A 
ATOM     24  C   UNL     1       6.066  -4.484  -4.564  0.00  0.00    +0.001 A 
ATOM     25  C   UNL     1       5.372  -3.403  -5.061  0.00  0.00    +0.010 A 
ENDBRANCH   2  17
TORSDOF 2
