REMARK  Name = CHEMBL263910
REMARK  11 active torsions:
REMARK  status: ('A' for Active; 'I' for Inactive)
REMARK    1  A    between atoms: C_3  and  C_43
REMARK    2  A    between atoms: C_4  and  C_8
REMARK    3  A    between atoms: C_5  and  O_7
REMARK    4  A    between atoms: C_8  and  C_10
REMARK    5  A    between atoms: C_11  and  O_42
REMARK    6  A    between atoms: C_13  and  C_17
REMARK    7  A    between atoms: C_17  and  O_19
REMARK    8  A    between atoms: O_19  and  C_20
REMARK    9  A    between atoms: C_22  and  N_32
REMARK   10  A    between atoms: C_33  and  C_35
REMARK   11  A    between atoms: C_38  and  O_41
REMARK                            x       y       z     vdW  Elec       q    Type
REMARK                         _______ _______ _______ _____ _____    ______ ____
ROOT
ATOM      1  C   UNL     1       3.587  -6.384   0.518  0.00  0.00    +0.340 C 
ATOM      2  O   UNL     1       4.606  -7.044   0.524  0.00  0.00    -0.245 OA
ENDROOT
BRANCH   1   6
ATOM      3  C   UNL     1       3.802  -2.134   0.277  0.00  0.00    +0.110 A 
ATOM      4  C   UNL     1       4.979  -2.899   0.285  0.00  0.00    +0.132 A 
ATOM      5  C   UNL     1       4.904  -4.278   0.363  0.00  0.00    +0.061 A 
ATOM      6  C   UNL     1       3.661  -4.909   0.435  0.00  0.00    +0.066 A 
ATOM      7  C   UNL     1       2.489  -4.152   0.427  0.00  0.00    +0.066 A 
ATOM      8  C   UNL     1       2.555  -2.772   0.356  0.00  0.00    +0.194 A 
ATOM      9  O   UNL     1       1.415  -2.036   0.355  0.00  0.00    -0.287 OA
BRANCH   3  10
ATOM     10  C   UNL     1       3.877  -0.664   0.194  0.00  0.00    +0.205 C 
ATOM     11  O   UNL     1       4.957  -0.107   0.230  0.00  0.00    -0.286 OA
BRANCH  10  15
ATOM     12  C   UNL     1       0.307   1.631  -0.173  0.00  0.00    +0.004 A 
ATOM     13  C   UNL     1       0.905   1.112  -1.309  0.00  0.00    +0.016 A 
ATOM     14  C   UNL     1       2.071   0.361  -1.204  0.00  0.00    +0.077 A 
ATOM     15  C   UNL     1       2.640   0.131   0.066  0.00  0.00    +0.078 A 
ATOM     16  C   UNL     1       2.024   0.662   1.203  0.00  0.00    +0.128 A 
ATOM     17  C   UNL     1       0.859   1.410   1.073  0.00  0.00    +0.046 A 
BRANCH  14  18
ATOM     18  C   UNL     1       2.709  -0.193  -2.414  0.00  0.00    +0.387 C 
ATOM     19  O   UNL     1       2.161  -0.079  -3.501  0.00  0.00    -0.241 OA
ATOM     20  O   UNL     1       3.786  -0.767  -2.330  0.00  0.00    -0.241 OA
ENDBRANCH  14  18
BRANCH  16  21
ATOM     21  O   UNL     1       2.560   0.449   2.430  0.00  0.00    -0.506 OA
ATOM     22  H   UNL     1       3.139   1.160   2.736  0.00  0.00    +0.292 HD
ENDBRANCH  16  21
ENDBRANCH  10  15
ENDBRANCH   3  10
BRANCH   4  23
ATOM     23  O   UNL     1       6.187  -2.287   0.215  0.00  0.00    -0.506 OA
ATOM     24  H   UNL     1       6.564  -2.060   1.076  0.00  0.00    +0.292 HD
ENDBRANCH   4  23
ENDBRANCH   1   6
BRANCH   1  25
ATOM     25  O   UNL     1       2.388  -6.995   0.587  0.00  0.00    -0.456 OA
BRANCH  25  26
ATOM     26  C   UNL     1       2.390  -8.425   0.666  0.00  0.00    +0.200 C 
ATOM     27  C   UNL     1       2.353  -8.872   2.144  0.00  0.00    +0.117 C 
ATOM     28  C   UNL     1       1.206  -9.914   2.205  0.00  0.00    +0.017 C 
ATOM     29  C   UNL     1       0.168  -9.086   1.342  0.00  0.00    +0.013 C 
ATOM     30  C   UNL     1       1.069  -8.992   0.057  0.00  0.00    +0.035 C 
ATOM     31  C   UNL     1       1.349 -10.501  -0.185  0.00  0.00    -0.001 C 
ATOM     32  C   UNL     1       1.465 -11.088   1.242  0.00  0.00    -0.003 C 
ATOM     33  C   UNL     1       2.848 -11.717   1.362  0.00  0.00    +0.004 C 
ATOM     34  C   UNL     1       3.701 -11.143   0.214  0.00  0.00    +0.001 C 
ATOM     35  C   UNL     1       2.701 -10.702  -0.873  0.00  0.00    +0.004 C 
BRANCH  27  36
ATOM     36  N   UNL     1       3.632  -9.327   2.645  0.00  0.00    -0.305 N 
ATOM     37  C   UNL     1       3.860  -9.369   3.973  0.00  0.00    +0.244 C 
ATOM     38  O   UNL     1       2.990  -9.024   4.750  0.00  0.00    -0.270 OA
ATOM     39  H   UNL     1       4.326  -9.601   2.026  0.00  0.00    +0.149 HD
BRANCH  37  40
ATOM     40  C   UNL     1       5.164  -9.832   4.484  0.00  0.00    +0.037 A 
ATOM     41  C   UNL     1       6.167 -10.222   3.593  0.00  0.00    +0.016 A 
ATOM     42  C   UNL     1       7.383 -10.654   4.074  0.00  0.00    +0.046 A 
ATOM     43  C   UNL     1       7.614 -10.701   5.444  0.00  0.00    +0.117 A 
ATOM     44  C   UNL     1       6.619 -10.314   6.334  0.00  0.00    +0.046 A 
ATOM     45  C   UNL     1       5.402  -9.876   5.861  0.00  0.00    +0.016 A 
BRANCH  43  46
ATOM     46  O   UNL     1       8.813 -11.128   5.914  0.00  0.00    -0.507 OA
ATOM     47  H   UNL     1       9.464 -10.422   6.028  0.00  0.00    +0.292 HD
ENDBRANCH  43  46
ENDBRANCH  37  40
ENDBRANCH  27  36
ENDBRANCH  25  26
ENDBRANCH   1  25
TORSDOF 11
