REMARK  Name = CHEMBL161832
REMARK  7 active torsions:
REMARK  status: ('A' for Active; 'I' for Inactive)
REMARK    1  A    between atoms: C_4  and  C_7
REMARK    2  A    between atoms: C_8  and  C_23
REMARK    3  A    between atoms: N_15  and  C_16
REMARK    4  A    between atoms: C_16  and  C_17
REMARK    5  A    between atoms: C_17  and  C_18
REMARK    6  A    between atoms: C_18  and  S_19
REMARK    7  A    between atoms: S_19  and  C_20
REMARK                            x       y       z     vdW  Elec       q    Type
REMARK                         _______ _______ _______ _____ _____    ______ ____
ROOT
ATOM      1  C   UNL     1       3.692  -0.817  -0.141  0.00  0.00    +0.058 A 
ATOM      2  C   UNL     1       4.781  -0.544  -0.967  0.00  0.00    +0.020 A 
ATOM      3  C   UNL     1       5.899  -1.356  -0.454  0.00  0.00    +0.008 A 
ATOM      4  C   UNL     1       7.227  -1.518  -0.844  0.00  0.00    +0.010 A 
ATOM      5  C   UNL     1       8.045  -2.376  -0.141  0.00  0.00    +0.001 A 
ATOM      6  C   UNL     1       7.551  -3.075   0.950  0.00  0.00    +0.002 A 
ATOM      7  C   UNL     1       6.239  -2.924   1.347  0.00  0.00    +0.026 A 
ATOM      8  C   UNL     1       5.397  -2.063   0.651  0.00  0.00    +0.050 A 
ATOM      9  N   UNL     1       4.071  -1.714   0.816  0.00  0.00    -0.339 N 
ENDROOT
BRANCH   2  10
ATOM     10  C   UNL     1       4.809   0.366  -2.114  0.00  0.00    +0.052 C 
ATOM     11  C   UNL     1       5.124   1.698  -2.103  0.00  0.00    +0.081 C 
ATOM     12  C   UNL     1       5.019   2.169  -3.433  0.00  0.00    +0.244 C 
ATOM     13  O   UNL     1       5.231   3.313  -3.788  0.00  0.00    -0.270 OA
ATOM     14  N   UNL     1       4.651   1.165  -4.246  0.00  0.00    -0.249 N 
ATOM     15  C   UNL     1       4.507   0.031  -3.533  0.00  0.00    +0.251 C 
ATOM     16  O   UNL     1       4.189  -1.058  -3.965  0.00  0.00    -0.270 OA
ATOM     17  H   UNL     1       4.514   1.243  -5.203  0.00  0.00    +0.158 HD
ENDBRANCH   2  10
BRANCH   1  21
ATOM     18  C   UNL     1      -0.178   0.882  -0.529  0.00  0.00    +0.000 A 
ATOM     19  C   UNL     1       0.505   0.991   0.670  0.00  0.00    +0.001 A 
ATOM     20  C   UNL     1       1.762   0.442   0.804  0.00  0.00    +0.010 A 
ATOM     21  C   UNL     1       2.348  -0.227  -0.276  0.00  0.00    -0.001 A 
ATOM     22  C   UNL     1       1.651  -0.334  -1.484  0.00  0.00    +0.010 A 
ATOM     23  C   UNL     1       0.395   0.221  -1.602  0.00  0.00    +0.001 A 
ENDBRANCH   1  21
BRANCH   9  24
ATOM     24  C   UNL     1       3.194  -2.235   1.867  0.00  0.00    +0.123 C 
BRANCH  24  25
ATOM     25  C   UNL     1       2.445  -3.462   1.344  0.00  0.00    +0.033 C 
BRANCH  25  26
ATOM     26  C   UNL     1       1.462  -3.952   2.410  0.00  0.00    +0.079 C 
BRANCH  26  27
ATOM     27  S   UNL     1       0.574  -5.407   1.790  0.00  0.00    -0.093 S 
BRANCH  27  28
ATOM     28  C   UNL     1      -0.503  -5.845   3.114  0.00  0.00    +0.123 C 
ATOM     29  N   UNL     1      -1.672  -6.432   2.856  0.00  0.00    -0.382 N 
ATOM     30  N   UNL     1      -0.149  -5.590   4.373  0.00  0.00    -0.340 N 
ATOM     31  H   UNL     1      -1.930  -6.618   1.940  0.00  0.00    +0.158 HD
ATOM     32  H   UNL     1       0.701  -5.162   4.561  0.00  0.00    +0.144 HD
ATOM     33  H   UNL     1      -0.742  -5.830   5.102  0.00  0.00    +0.144 HD
ATOM     34  H   UNL     1      -2.265  -6.673   3.585  0.00  0.00    +0.158 HD
ENDBRANCH  27  28
ENDBRANCH  26  27
ENDBRANCH  25  26
ENDBRANCH  24  25
ENDBRANCH   9  24
TORSDOF 7
