REMARK  Name = CHEMBL439996
REMARK  14 active torsions:
REMARK  status: ('A' for Active; 'I' for Inactive)
REMARK    1  A    between atoms: C_3  and  C_32
REMARK    2  A    between atoms: C_4  and  C_8
REMARK    3  A    between atoms: C_5  and  O_7
REMARK    4  A    between atoms: C_8  and  C_10
REMARK    5  A    between atoms: C_11  and  O_31
REMARK    6  A    between atoms: C_13  and  C_17
REMARK    7  A    between atoms: C_15  and  O_16
REMARK    8  A    between atoms: C_17  and  O_19
REMARK    9  A    between atoms: O_19  and  C_20
REMARK   10  A    between atoms: C_20  and  C_21
REMARK   11  A    between atoms: C_21  and  C_22
REMARK   12  A    between atoms: C_22  and  C_23
REMARK   13  A    between atoms: C_23  and  C_24
REMARK   14  A    between atoms: C_27  and  O_30
REMARK                            x       y       z     vdW  Elec       q    Type
REMARK                         _______ _______ _______ _____ _____    ______ ____
ROOT
ATOM      1  C   UNL     1       3.661  -2.174   0.539  0.00  0.00    +0.105 A 
ATOM      2  C   UNL     1       2.434  -2.855   0.502  0.00  0.00    +0.132 A 
ATOM      3  C   UNL     1       2.409  -4.236   0.583  0.00  0.00    +0.061 A 
ATOM      4  C   UNL     1       3.600  -4.952   0.700  0.00  0.00    +0.066 A 
ATOM      5  C   UNL     1       4.822  -4.280   0.737  0.00  0.00    +0.061 A 
ATOM      6  C   UNL     1       4.857  -2.899   0.650  0.00  0.00    +0.132 A 
ENDROOT
BRANCH   1   7
ATOM      7  C   UNL     1       3.693  -0.704   0.454  0.00  0.00    +0.204 C 
ATOM      8  O   UNL     1       4.746  -0.110   0.585  0.00  0.00    -0.286 OA
BRANCH   7  12
ATOM      9  C   UNL     1       0.096   1.467  -0.251  0.00  0.00    +0.004 A 
ATOM     10  C   UNL     1       0.815   0.970  -1.325  0.00  0.00    +0.016 A 
ATOM     11  C   UNL     1       1.991   0.259  -1.109  0.00  0.00    +0.077 A 
ATOM     12  C   UNL     1       2.447   0.049   0.209  0.00  0.00    +0.078 A 
ATOM     13  C   UNL     1       1.709   0.558   1.282  0.00  0.00    +0.128 A 
ATOM     14  C   UNL     1       0.536   1.265   1.041  0.00  0.00    +0.046 A 
BRANCH  11  15
ATOM     15  C   UNL     1       2.758  -0.272  -2.253  0.00  0.00    +0.387 C 
ATOM     16  O   UNL     1       2.310  -0.175  -3.387  0.00  0.00    -0.241 OA
ATOM     17  O   UNL     1       3.841  -0.809  -2.067  0.00  0.00    -0.241 OA
ENDBRANCH  11  15
BRANCH  13  18
ATOM     18  O   UNL     1       2.136   0.362   2.554  0.00  0.00    -0.506 OA
ATOM     19  H   UNL     1       2.659   1.094   2.910  0.00  0.00    +0.292 HD
ENDBRANCH  13  18
ENDBRANCH   7  12
ENDBRANCH   1   7
BRANCH   6  20
ATOM     20  O   UNL     1       6.046  -2.246   0.680  0.00  0.00    -0.506 OA
ATOM     21  H   UNL     1       6.340  -2.005   1.569  0.00  0.00    +0.292 HD
ENDBRANCH   6  20
BRANCH   4  22
ATOM     22  C   UNL     1       3.568  -6.429   0.786  0.00  0.00    +0.339 C 
ATOM     23  O   UNL     1       2.506  -7.016   0.754  0.00  0.00    -0.245 OA
BRANCH  22  24
ATOM     24  O   UNL     1       4.717  -7.122   0.899  0.00  0.00    -0.461 OA
BRANCH  24  25
ATOM     25  C   UNL     1       4.612  -8.545   0.977  0.00  0.00    +0.232 C 
BRANCH  25  26
ATOM     26  C   UNL     1       6.010  -9.154   1.101  0.00  0.00    +0.041 C 
BRANCH  26  27
ATOM     27  C   UNL     1       5.897 -10.678   1.185  0.00  0.00    +0.008 C 
BRANCH  27  28
ATOM     28  C   UNL     1       7.295 -11.287   1.309  0.00  0.00    +0.035 C 
BRANCH  28  29
ATOM     29  C   UNL     1       7.183 -12.787   1.391  0.00  0.00    -0.047 A 
ATOM     30  C   UNL     1       7.052 -13.403   2.622  0.00  0.00    +0.007 A 
ATOM     31  C   UNL     1       6.950 -14.778   2.701  0.00  0.00    +0.045 A 
ATOM     32  C   UNL     1       6.979 -15.542   1.543  0.00  0.00    +0.117 A 
ATOM     33  C   UNL     1       7.111 -14.922   0.309  0.00  0.00    +0.045 A 
ATOM     34  C   UNL     1       7.207 -13.546   0.235  0.00  0.00    +0.007 A 
BRANCH  32  35
ATOM     35  O   UNL     1       6.880 -16.895   1.617  0.00  0.00    -0.507 OA
ATOM     36  H   UNL     1       5.972 -17.226   1.576  0.00  0.00    +0.292 HD
ENDBRANCH  32  35
ENDBRANCH  28  29
ENDBRANCH  27  28
ENDBRANCH  26  27
ENDBRANCH  25  26
ENDBRANCH  24  25
ENDBRANCH  22  24
ENDBRANCH   4  22
BRANCH   2  37
ATOM     37  O   UNL     1       1.275  -2.159   0.389  0.00  0.00    -0.506 OA
ATOM     38  H   UNL     1       0.952  -2.078  -0.519  0.00  0.00    +0.292 HD
ENDBRANCH   2  37
TORSDOF 14
