REMARK  Name = CHEMBL100084
REMARK  3 active torsions:
REMARK  status: ('A' for Active; 'I' for Inactive)
REMARK    1  A    between atoms: C_1  and  N_2
REMARK    2  A    between atoms: C_4  and  C_11
REMARK    3  A    between atoms: C_12  and  C_18
REMARK                            x       y       z     vdW  Elec       q    Type
REMARK                         _______ _______ _______ _____ _____    ______ ____
ROOT
ATOM      1  C   UNL     1       0.039  -3.248  -1.685  0.00  0.00    +0.059 C 
ATOM      2  C   UNL     1       1.116  -3.713  -2.429  0.00  0.00    +0.059 C 
ATOM      3  C   UNL     1       0.619  -4.884  -3.180  0.00  0.00    +0.252 C 
ATOM      4  O   UNL     1       1.273  -5.564  -3.946  0.00  0.00    -0.270 OA
ATOM      5  N   UNL     1      -0.676  -5.072  -2.875  0.00  0.00    -0.248 N 
ATOM      6  C   UNL     1      -1.091  -4.149  -1.992  0.00  0.00    +0.252 C 
ATOM      7  O   UNL     1      -2.210  -4.066  -1.526  0.00  0.00    -0.270 OA
ATOM      8  H   UNL     1      -1.232  -5.779  -3.239  0.00  0.00    +0.158 HD
ENDROOT
BRANCH   2   9
ATOM      9  C   UNL     1       2.477  -3.151  -2.463  0.00  0.00    +0.018 A 
ATOM     10  C   UNL     1       2.977  -2.105  -3.374  0.00  0.00    +0.008 A 
ATOM     11  C   UNL     1       2.398  -1.366  -4.404  0.00  0.00    +0.010 A 
ATOM     12  C   UNL     1       3.154  -0.436  -5.084  0.00  0.00    +0.001 A 
ATOM     13  C   UNL     1       4.484  -0.234  -4.747  0.00  0.00    +0.002 A 
ATOM     14  C   UNL     1       5.069  -0.957  -3.731  0.00  0.00    +0.026 A 
ATOM     15  C   UNL     1       4.324  -1.902  -3.031  0.00  0.00    +0.050 A 
ATOM     16  N   UNL     1       4.622  -2.755  -1.993  0.00  0.00    -0.341 N 
ATOM     17  C   UNL     1       3.517  -3.492  -1.658  0.00  0.00    +0.042 A 
ATOM     18  C   UNL     1       3.508  -4.523  -0.552  0.00  0.00    +0.135 C 
ATOM     19  N   UNL     1       4.905  -4.835  -0.206  0.00  0.00    -0.309 NA
ATOM     20  C   UNL     1       5.678  -3.608   0.029  0.00  0.00    +0.103 C 
ATOM     21  C   UNL     1       5.916  -2.889  -1.306  0.00  0.00    +0.137 C 
ATOM     22  H   UNL     1       4.951  -5.450   0.593  0.00  0.00    +0.122 HD
ENDBRANCH   2   9
BRANCH   1  26
ATOM     23  C   UNL     1      -0.018   1.461   0.010  0.00  0.00    +0.149 C 
ATOM     24  N   UNL     1       0.002  -0.004   0.002  0.00  0.00    -0.349 N 
ATOM     25  C   UNL     1       0.008  -0.776  -1.119  0.00  0.00    +0.095 A 
ATOM     26  C   UNL     1       0.027  -2.094  -0.770  0.00  0.00    +0.013 A 
ATOM     27  C   UNL     1       0.034  -2.137   0.703  0.00  0.00    +0.008 A 
ATOM     28  C   UNL     1       0.024  -0.798   1.130  0.00  0.00    +0.049 A 
ATOM     29  C   UNL     1       0.032  -0.516   2.492  0.00  0.00    +0.026 A 
ATOM     30  C   UNL     1       0.055  -1.546   3.407  0.00  0.00    +0.002 A 
ATOM     31  C   UNL     1       0.069  -2.868   2.985  0.00  0.00    +0.001 A 
ATOM     32  C   UNL     1       0.051  -3.168   1.640  0.00  0.00    +0.010 A 
ENDBRANCH   1  26
TORSDOF 2
