REMARK  Name = CHEMBL106384
REMARK  2 active torsions:
REMARK  status: ('A' for Active; 'I' for Inactive)
REMARK    1  A    between atoms: C_1  and  N_2
REMARK    2  A    between atoms: N_30  and  C_33
REMARK                            x       y       z     vdW  Elec       q    Type
REMARK                         _______ _______ _______ _____ _____    ______ ____
ROOT
ATOM      1  C   UNL     1      -0.018   1.463   0.010  0.00  0.00    -0.096 C 
ATOM      2  N   UNL     1       0.002  -0.004   0.002  0.00  0.00    +0.380 N 
ATOM      3  C   UNL     1      -1.374  -0.531  -0.018  0.00  0.00    -0.057 C 
ATOM      4  C   UNL     1      -2.164   0.093  -1.156  0.00  0.00    +0.103 C 
ATOM      5  N   UNL     1      -3.339  -0.677  -1.533  0.00  0.00    -0.348 N 
ATOM      6  C   UNL     1      -3.453  -2.022  -1.703  0.00  0.00    +0.095 A 
ATOM      7  C   UNL     1      -4.705  -2.357  -2.082  0.00  0.00    +0.013 A 
ATOM      8  C   UNL     1      -5.479  -1.080  -2.091  0.00  0.00    +0.008 A 
ATOM      9  C   UNL     1      -4.565  -0.074  -1.779  0.00  0.00    +0.050 A 
ATOM     10  C   UNL     1      -4.968   1.255  -1.779  0.00  0.00    +0.026 A 
ATOM     11  C   UNL     1      -6.281   1.564  -2.044  0.00  0.00    +0.002 A 
ATOM     12  C   UNL     1      -7.208   0.564  -2.302  0.00  0.00    +0.001 A 
ATOM     13  C   UNL     1      -6.813  -0.758  -2.310  0.00  0.00    +0.010 A 
ATOM     14  C   UNL     1      -5.343  -3.635  -2.456  0.00  0.00    +0.059 C 
ATOM     15  C   UNL     1      -5.169  -4.964  -2.124  0.00  0.00    +0.059 C 
ATOM     16  C   UNL     1      -4.287  -5.738  -1.218  0.00  0.00    +0.013 A 
ATOM     17  C   UNL     1      -3.074  -5.449  -0.690  0.00  0.00    +0.095 A 
ATOM     18  N   UNL     1      -2.605  -6.506   0.028  0.00  0.00    -0.344 N 
ATOM     19  C   UNL     1      -3.535  -7.532   0.011  0.00  0.00    +0.050 A 
ATOM     20  C   UNL     1      -4.642  -7.094  -0.721  0.00  0.00    +0.008 A 
ATOM     21  C   UNL     1      -5.775  -7.899  -0.814  0.00  0.00    +0.010 A 
ATOM     22  C   UNL     1      -5.758  -9.164  -0.265  0.00  0.00    +0.001 A 
ATOM     23  C   UNL     1      -4.630  -9.615   0.401  0.00  0.00    +0.002 A 
ATOM     24  C   UNL     1      -3.524  -8.813   0.547  0.00  0.00    +0.026 A 
ATOM     25  C   UNL     1      -1.330  -6.606   0.731  0.00  0.00    +0.150 C 
ATOM     26  C   UNL     1      -0.655  -5.265   0.960  0.00  0.00    +0.181 C 
ATOM     27  O   UNL     1       0.748  -5.462   1.133  0.00  0.00    -0.377 OA
ATOM     28  C   UNL     1       1.417  -4.469   1.904  0.00  0.00    +0.175 C 
ATOM     29  C   UNL     1       2.121  -3.475   0.988  0.00  0.00    +0.112 C 
ATOM     30  N   UNL     1       2.368  -2.212   1.717  0.00  0.00    -0.305 NA
ATOM     31  C   UNL     1       2.050  -1.084   0.802  0.00  0.00    +0.065 C 
ATOM     32  C   UNL     1       0.712  -0.476   1.192  0.00  0.00    -0.064 C 
ATOM     33  C   UNL     1       3.827  -2.147   2.008  0.00  0.00    +0.104 C 
ATOM     34  C   UNL     1      -6.128  -5.721  -2.992  0.00  0.00    +0.252 C 
ATOM     35  O   UNL     1      -6.200  -6.926  -3.103  0.00  0.00    -0.270 OA
ATOM     36  N   UNL     1      -6.896  -4.857  -3.657  0.00  0.00    -0.248 N 
ATOM     37  C   UNL     1      -6.457  -3.620  -3.450  0.00  0.00    +0.252 C 
ATOM     38  O   UNL     1      -6.888  -2.638  -4.020  0.00  0.00    -0.270 OA
ATOM     39  H   UNL     1      -7.653  -5.092  -4.210  0.00  0.00    +0.158 HD
ATOM     40  H   UNL     1       0.484  -0.325  -0.821  0.00  0.00    -0.082 HD
ENDROOT
TORSDOF 0
