REMARK  Name = CHEMBL419866
REMARK  2 active torsions:
REMARK  status: ('A' for Active; 'I' for Inactive)
REMARK    1  A    between atoms: C_12  and  C_33
REMARK    2  A    between atoms: C_33  and  N_34
REMARK                            x       y       z     vdW  Elec       q    Type
REMARK                         _______ _______ _______ _____ _____    ______ ____
ROOT
ATOM      1  C   UNL     1      -0.264   1.600  -1.214  0.00  0.00    +0.001 A 
ATOM      2  C   UNL     1       0.916   2.328  -1.194  0.00  0.00    +0.002 A 
ATOM      3  C   UNL     1       2.127   1.698  -1.002  0.00  0.00    +0.026 A 
ATOM      4  C   UNL     1       2.164   0.319  -0.826  0.00  0.00    +0.050 A 
ATOM      5  C   UNL     1       0.968  -0.415  -0.811  0.00  0.00    +0.008 A 
ATOM      6  C   UNL     1      -0.244   0.235  -1.028  0.00  0.00    +0.010 A 
ATOM      7  C   UNL     1       1.349  -1.817  -0.517  0.00  0.00    +0.013 A 
ATOM      8  C   UNL     1       2.701  -1.817  -0.396  0.00  0.00    +0.095 A 
ATOM      9  N   UNL     1       3.201  -0.580  -0.667  0.00  0.00    -0.346 N 
ATOM     10  C   UNL     1       4.609  -0.212  -0.818  0.00  0.00    +0.124 C 
ATOM     11  C   UNL     1       5.509  -1.406  -0.518  0.00  0.00    +0.051 C 
ATOM     12  C   UNL     1       5.572  -2.318  -1.744  0.00  0.00    +0.104 C 
ATOM     13  O   UNL     1       5.741  -3.666  -1.298  0.00  0.00    -0.377 OA
ATOM     14  C   UNL     1       5.577  -4.646  -2.325  0.00  0.00    +0.181 C 
ATOM     15  C   UNL     1       5.086  -5.947  -1.690  0.00  0.00    +0.150 C 
ATOM     16  N   UNL     1       3.635  -5.902  -1.507  0.00  0.00    -0.344 N 
ATOM     17  C   UNL     1       2.881  -4.795  -1.277  0.00  0.00    +0.095 A 
ATOM     18  C   UNL     1       1.584  -5.143  -1.056  0.00  0.00    +0.013 A 
ATOM     19  C   UNL     1       1.504  -6.596  -1.322  0.00  0.00    +0.008 A 
ATOM     20  C   UNL     1       2.825  -7.017  -1.546  0.00  0.00    +0.050 A 
ATOM     21  C   UNL     1       3.105  -8.369  -1.731  0.00  0.00    +0.026 A 
ATOM     22  C   UNL     1       2.075  -9.283  -1.759  0.00  0.00    +0.002 A 
ATOM     23  C   UNL     1       0.762  -8.859  -1.624  0.00  0.00    +0.001 A 
ATOM     24  C   UNL     1       0.473  -7.523  -1.431  0.00  0.00    +0.010 A 
ATOM     25  C   UNL     1       0.475  -4.293  -0.586  0.00  0.00    +0.059 C 
ATOM     26  C   UNL     1       0.386  -2.924  -0.385  0.00  0.00    +0.059 C 
ATOM     27  C   UNL     1      -1.004  -2.674   0.098  0.00  0.00    +0.252 C 
ATOM     28  O   UNL     1      -1.474  -1.601   0.417  0.00  0.00    -0.270 OA
ATOM     29  N   UNL     1      -1.662  -3.836   0.147  0.00  0.00    -0.248 N 
ATOM     30  C   UNL     1      -0.844  -4.844  -0.176  0.00  0.00    +0.252 C 
ATOM     31  O   UNL     1      -1.152  -6.012  -0.072  0.00  0.00    -0.270 OA
ATOM     32  H   UNL     1      -2.602  -3.935   0.366  0.00  0.00    +0.158 HD
ENDROOT
BRANCH  12  33
ATOM     33  C   UNL     1       6.756  -1.919  -2.627  0.00  0.00    -0.047 C 
BRANCH  33  34
ATOM     34  N   UNL     1       6.669  -2.628  -3.912  0.00  0.00    +0.381 N 
ATOM     35  C   UNL     1       5.493  -2.149  -4.682  0.00  0.00    -0.079 C 
ATOM     36  C   UNL     1       5.848  -2.527  -6.142  0.00  0.00    -0.020 C 
ATOM     37  C   UNL     1       7.370  -2.263  -6.207  0.00  0.00    -0.020 C 
ATOM     38  C   UNL     1       7.851  -2.318  -4.745  0.00  0.00    -0.079 C 
ATOM     39  H   UNL     1       6.603  -3.623  -3.757  0.00  0.00    -0.082 HD
ENDBRANCH  33  34
ENDBRANCH  12  33
TORSDOF 2
