REMARK  Name = CHEMBL263910
REMARK  12 active torsions:
REMARK  status: ('A' for Active; 'I' for Inactive)
REMARK    1  A    between atoms: C_3  and  C_43
REMARK    2  A    between atoms: C_4  and  C_8
REMARK    3  A    between atoms: C_5  and  O_7
REMARK    4  A    between atoms: C_8  and  C_10
REMARK    5  A    between atoms: C_11  and  O_42
REMARK    6  A    between atoms: C_13  and  C_17
REMARK    7  A    between atoms: C_15  and  O_16
REMARK    8  A    between atoms: C_17  and  O_19
REMARK    9  A    between atoms: O_19  and  C_20
REMARK   10  A    between atoms: C_22  and  N_32
REMARK   11  A    between atoms: C_33  and  C_35
REMARK   12  A    between atoms: C_38  and  O_41
REMARK                            x       y       z     vdW  Elec       q    Type
REMARK                         _______ _______ _______ _____ _____    ______ ____
ROOT
ATOM      1  C   UNL     1       3.689  -6.083   0.928  0.00  0.00    +0.340 C 
ATOM      2  O   UNL     1       2.588  -6.594   0.969  0.00  0.00    -0.245 OA
ENDROOT
BRANCH   1   6
ATOM      3  C   UNL     1       4.065  -1.856   0.526  0.00  0.00    +0.105 A 
ATOM      4  C   UNL     1       2.794  -2.448   0.573  0.00  0.00    +0.132 A 
ATOM      5  C   UNL     1       2.677  -3.821   0.704  0.00  0.00    +0.061 A 
ATOM      6  C   UNL     1       3.820  -4.616   0.789  0.00  0.00    +0.066 A 
ATOM      7  C   UNL     1       5.086  -4.032   0.743  0.00  0.00    +0.061 A 
ATOM      8  C   UNL     1       5.212  -2.660   0.606  0.00  0.00    +0.132 A 
BRANCH   3   9
ATOM      9  C   UNL     1       4.195  -0.395   0.388  0.00  0.00    +0.204 C 
ATOM     10  O   UNL     1       5.292   0.126   0.449  0.00  0.00    -0.286 OA
BRANCH   9  14
ATOM     11  C   UNL     1       0.728   2.003  -0.223  0.00  0.00    +0.004 A 
ATOM     12  C   UNL     1       1.357   1.422  -1.312  0.00  0.00    +0.016 A 
ATOM     13  C   UNL     1       2.490   0.637  -1.126  0.00  0.00    +0.077 A 
ATOM     14  C   UNL     1       2.994   0.436   0.176  0.00  0.00    +0.078 A 
ATOM     15  C   UNL     1       2.347   1.029   1.264  0.00  0.00    +0.128 A 
ATOM     16  C   UNL     1       1.215   1.810   1.054  0.00  0.00    +0.046 A 
BRANCH  13  17
ATOM     17  C   UNL     1       3.161   0.017  -2.286  0.00  0.00    +0.387 C 
ATOM     18  O   UNL     1       2.666   0.109  -3.400  0.00  0.00    -0.241 OA
ATOM     19  O   UNL     1       4.213  -0.589  -2.132  0.00  0.00    -0.241 OA
ENDBRANCH  13  17
BRANCH  15  20
ATOM     20  O   UNL     1       2.821   0.844   2.521  0.00  0.00    -0.506 OA
ATOM     21  H   UNL     1       3.410   1.547   2.827  0.00  0.00    +0.292 HD
ENDBRANCH  15  20
ENDBRANCH   9  14
ENDBRANCH   3   9
BRANCH   8  22
ATOM     22  O   UNL     1       6.444  -2.094   0.556  0.00  0.00    -0.506 OA
ATOM     23  H   UNL     1       6.799  -1.846   1.421  0.00  0.00    +0.292 HD
ENDBRANCH   8  22
BRANCH   4  24
ATOM     24  O   UNL     1       1.681  -1.676   0.492  0.00  0.00    -0.506 OA
ATOM     25  H   UNL     1       1.319  -1.602  -0.402  0.00  0.00    +0.292 HD
ENDBRANCH   4  24
ENDBRANCH   1   6
BRANCH   1  26
ATOM     26  O   UNL     1       4.792  -6.853   1.011  0.00  0.00    -0.456 OA
BRANCH  26  27
ATOM     27  C   UNL     1       4.591  -8.261   1.144  0.00  0.00    +0.200 C 
ATOM     28  C   UNL     1       4.603  -8.941  -0.244  0.00  0.00    +0.117 C 
ATOM     29  C   UNL     1       5.802  -9.936  -0.186  0.00  0.00    +0.017 C 
ATOM     30  C   UNL     1       6.795  -9.141   0.733  0.00  0.00    +0.013 C 
ATOM     31  C   UNL     1       5.783  -8.909   1.913  0.00  0.00    +0.035 C 
ATOM     32  C   UNL     1       5.321 -10.372   2.189  0.00  0.00    -0.001 C 
ATOM     33  C   UNL     1       5.335 -11.055   0.794  0.00  0.00    -0.003 C 
ATOM     34  C   UNL     1       6.436 -12.133   0.849  0.00  0.00    +0.004 C 
ATOM     35  C   UNL     1       6.580 -12.458   2.356  0.00  0.00    +0.001 C 
ATOM     36  C   UNL     1       6.412 -11.069   3.026  0.00  0.00    +0.004 C 
BRANCH  28  37
ATOM     37  N   UNL     1       3.348  -9.663  -0.469  0.00  0.00    -0.305 N 
ATOM     38  C   UNL     1       2.964  -9.971  -1.724  0.00  0.00    +0.244 C 
ATOM     39  O   UNL     1       3.659  -9.651  -2.669  0.00  0.00    -0.270 OA
ATOM     40  H   UNL     1       2.793  -9.919   0.284  0.00  0.00    +0.149 HD
BRANCH  38  41
ATOM     41  C   UNL     1       1.700 -10.698  -1.951  0.00  0.00    +0.037 A 
ATOM     42  C   UNL     1       0.897 -11.063  -0.868  0.00  0.00    +0.016 A 
ATOM     43  C   UNL     1      -0.282 -11.741  -1.084  0.00  0.00    +0.046 A 
ATOM     44  C   UNL     1      -0.673 -12.063  -2.378  0.00  0.00    +0.117 A 
ATOM     45  C   UNL     1       0.123 -11.702  -3.459  0.00  0.00    +0.046 A 
ATOM     46  C   UNL     1       1.300 -11.019  -3.251  0.00  0.00    +0.016 A 
BRANCH  44  47
ATOM     47  O   UNL     1      -1.835 -12.732  -2.587  0.00  0.00    -0.507 OA
ATOM     48  H   UNL     1      -2.604 -12.157  -2.709  0.00  0.00    +0.292 HD
ENDBRANCH  44  47
ENDBRANCH  38  41
ENDBRANCH  28  37
ENDBRANCH  26  27
ENDBRANCH   1  26
TORSDOF 12
