REMARK  Name = CHEMBL86680
REMARK  10 active torsions:
REMARK  status: ('A' for Active; 'I' for Inactive)
REMARK    1  A    between atoms: C_5  and  O_7
REMARK    2  A    between atoms: C_8  and  C_12
REMARK    3  A    between atoms: C_13  and  O_40
REMARK    4  A    between atoms: C_15  and  C_19
REMARK    5  A    between atoms: C_17  and  O_18
REMARK    6  A    between atoms: C_19  and  O_21
REMARK    7  A    between atoms: O_21  and  C_22
REMARK    8  A    between atoms: C_29  and  N_30
REMARK    9  A    between atoms: C_31  and  C_33
REMARK   10  A    between atoms: C_36  and  O_39
REMARK                            x       y       z     vdW  Elec       q    Type
REMARK                         _______ _______ _______ _____ _____    ______ ____
ROOT
ATOM      1  C   UNL     1       5.078  -3.497   4.655  0.00  0.00    +0.340 C 
ATOM      2  O   UNL     1       5.189  -2.950   5.734  0.00  0.00    -0.245 OA
ENDROOT
BRANCH   1   6
ATOM      3  C   UNL     1       4.171  -1.200   1.190  0.00  0.00    +0.080 A 
ATOM      4  C   UNL     1       4.297  -0.574   2.422  0.00  0.00    +0.128 A 
ATOM      5  C   UNL     1       4.592  -1.318   3.553  0.00  0.00    +0.061 A 
ATOM      6  C   UNL     1       4.763  -2.699   3.452  0.00  0.00    +0.066 A 
ATOM      7  C   UNL     1       4.636  -3.325   2.211  0.00  0.00    +0.061 A 
ATOM      8  C   UNL     1       4.335  -2.574   1.086  0.00  0.00    +0.128 A 
BRANCH   3  15
ATOM      9  C   UNL     1      -0.017   1.378   0.010  0.00  0.00    +0.004 A 
ATOM     10  C   UNL     1       1.165   2.093   0.002  0.00  0.00    +0.015 A 
ATOM     11  C   UNL     1       2.385   1.417  -0.013  0.00  0.00    +0.070 A 
ATOM     12  C   UNL     1       2.398   0.019  -0.021  0.00  0.00    +0.053 A 
ATOM     13  C   UNL     1       1.213  -0.687  -0.013  0.00  0.00    +0.125 A 
ATOM     14  C   UNL     1       0.002  -0.004   0.002  0.00  0.00    +0.046 A 
ATOM     15  C   UNL     1       3.850  -0.387  -0.037  0.00  0.00    +0.248 C 
ATOM     16  O   UNL     1       4.616   0.821  -0.038  0.00  0.00    -0.448 OA
ATOM     17  C   UNL     1       3.786   1.877  -0.024  0.00  0.00    +0.341 C 
ATOM     18  O   UNL     1       4.138   3.039  -0.021  0.00  0.00    -0.245 OA
BRANCH  13  19
ATOM     19  O   UNL     1       1.229  -2.046  -0.021  0.00  0.00    -0.506 OA
ATOM     20  H   UNL     1       1.242  -2.444   0.860  0.00  0.00    +0.292 HD
ENDBRANCH  13  19
ENDBRANCH   3  15
BRANCH   8  21
ATOM     21  O   UNL     1       4.205  -3.183  -0.122  0.00  0.00    -0.506 OA
ATOM     22  H   UNL     1       5.030  -3.246  -0.622  0.00  0.00    +0.292 HD
ENDBRANCH   8  21
BRANCH   4  23
ATOM     23  O   UNL     1       4.130   0.771   2.519  0.00  0.00    -0.506 OA
ATOM     24  H   UNL     1       3.219   1.043   2.695  0.00  0.00    +0.292 HD
ENDBRANCH   4  23
ENDBRANCH   1   6
BRANCH   1  25
ATOM     25  O   UNL     1       5.243  -4.830   4.555  0.00  0.00    -0.456 OA
BRANCH  25  26
ATOM     26  C   UNL     1       5.546  -5.538   5.759  0.00  0.00    +0.195 C 
ATOM     27  C   UNL     1       7.040  -5.549   5.950  0.00  0.00    +0.044 C 
ATOM     28  C   UNL     1       7.360  -5.532   7.464  0.00  0.00    -0.015 C 
ATOM     29  C   UNL     1       7.117  -6.840   8.067  0.00  0.00    -0.082 C 
ATOM     30  N   UNL     1       5.713  -7.279   7.983  0.00  0.00    +0.380 N 
ATOM     31  C   UNL     1       5.531  -7.921   6.702  0.00  0.00    -0.056 C 
ATOM     32  C   UNL     1       4.935  -6.950   5.669  0.00  0.00    +0.097 C 
ATOM     33  H   UNL     1       5.515  -7.934   8.725  0.00  0.00    -0.086 HD
ATOM     34  H   UNL     1       5.100  -6.481   8.057  0.00  0.00    -0.086 HD
BRANCH  32  35
ATOM     35  N   UNL     1       5.171  -7.483   4.325  0.00  0.00    -0.307 N 
ATOM     36  C   UNL     1       4.351  -8.427   3.821  0.00  0.00    +0.244 C 
ATOM     37  O   UNL     1       3.416  -8.836   4.482  0.00  0.00    -0.270 OA
ATOM     38  H   UNL     1       5.917  -7.157   3.798  0.00  0.00    +0.149 HD
BRANCH  36  39
ATOM     39  C   UNL     1       4.589  -8.964   2.466  0.00  0.00    +0.037 A 
ATOM     40  C   UNL     1       5.666  -8.499   1.708  0.00  0.00    +0.016 A 
ATOM     41  C   UNL     1       5.884  -9.003   0.445  0.00  0.00    +0.046 A 
ATOM     42  C   UNL     1       5.035  -9.972  -0.075  0.00  0.00    +0.117 A 
ATOM     43  C   UNL     1       3.962 -10.437   0.676  0.00  0.00    +0.046 A 
ATOM     44  C   UNL     1       3.740  -9.942   1.942  0.00  0.00    +0.016 A 
BRANCH  42  45
ATOM     45  O   UNL     1       5.253 -10.465  -1.321  0.00  0.00    -0.507 OA
ATOM     46  H   UNL     1       5.829 -11.241  -1.341  0.00  0.00    +0.292 HD
ENDBRANCH  42  45
ENDBRANCH  36  39
ENDBRANCH  32  35
ENDBRANCH  25  26
ENDBRANCH   1  25
TORSDOF 10
