REMARK  Name = CHEMBL103506
REMARK  2 active torsions:
REMARK  status: ('A' for Active; 'I' for Inactive)
REMARK    1  A    between atoms: C_1  and  C_2
REMARK    2  A    between atoms: C_2  and  N_3
REMARK                            x       y       z     vdW  Elec       q    Type
REMARK                         _______ _______ _______ _____ _____    ______ ____
ROOT
ATOM      1  N   UNL     1       0.595  -0.499  -1.290  0.00  0.00    -0.299 NA
ATOM      2  C   UNL     1       0.526  -1.995  -1.220  0.00  0.00    +0.106 C 
ATOM      3  C   UNL     1      -0.843  -2.440  -0.740  0.00  0.00    +0.137 C 
ATOM      4  N   UNL     1      -1.165  -3.813  -1.133  0.00  0.00    -0.345 N 
ATOM      5  C   UNL     1      -0.561  -4.598  -2.066  0.00  0.00    +0.095 A 
ATOM      6  C   UNL     1      -1.180  -5.801  -2.151  0.00  0.00    +0.013 A 
ATOM      7  C   UNL     1      -2.245  -5.785  -1.103  0.00  0.00    +0.008 A 
ATOM      8  C   UNL     1      -2.206  -4.506  -0.538  0.00  0.00    +0.050 A 
ATOM      9  C   UNL     1      -3.147  -4.159   0.430  0.00  0.00    +0.026 A 
ATOM     10  C   UNL     1      -4.074  -5.088   0.856  0.00  0.00    +0.002 A 
ATOM     11  C   UNL     1      -4.071  -6.373   0.335  0.00  0.00    +0.001 A 
ATOM     12  C   UNL     1      -3.151  -6.733  -0.632  0.00  0.00    +0.010 A 
ATOM     13  C   UNL     1      -1.002  -6.987  -3.013  0.00  0.00    +0.059 C 
ATOM     14  C   UNL     1       0.057  -7.601  -3.658  0.00  0.00    +0.059 C 
ATOM     15  C   UNL     1       1.510  -7.391  -3.773  0.00  0.00    +0.013 A 
ATOM     16  C   UNL     1       2.286  -6.290  -3.597  0.00  0.00    +0.095 A 
ATOM     17  N   UNL     1       3.584  -6.572  -3.894  0.00  0.00    -0.344 N 
ATOM     18  C   UNL     1       3.710  -7.901  -4.256  0.00  0.00    +0.050 A 
ATOM     19  C   UNL     1       2.444  -8.489  -4.150  0.00  0.00    +0.008 A 
ATOM     20  C   UNL     1       2.299  -9.858  -4.354  0.00  0.00    +0.010 A 
ATOM     21  C   UNL     1       3.384 -10.610  -4.763  0.00  0.00    +0.001 A 
ATOM     22  C   UNL     1       4.624 -10.012  -4.941  0.00  0.00    +0.002 A 
ATOM     23  C   UNL     1       4.789  -8.665  -4.690  0.00  0.00    +0.026 A 
ATOM     24  C   UNL     1       4.729  -5.659  -3.846  0.00  0.00    +0.150 C 
ATOM     25  C   UNL     1       4.267  -4.206  -3.792  0.00  0.00    +0.181 C 
ATOM     26  O   UNL     1       5.307  -3.384  -4.321  0.00  0.00    -0.376 OA
ATOM     27  C   UNL     1       5.514  -2.143  -3.661  0.00  0.00    +0.188 C 
ATOM     28  C   UNL     1       4.319  -1.212  -3.909  0.00  0.00    +0.188 C 
ATOM     29  O   UNL     1       3.493  -1.218  -2.755  0.00  0.00    -0.376 OA
ATOM     30  C   UNL     1       2.653  -0.082  -2.568  0.00  0.00    +0.175 C 
ATOM     31  C   UNL     1       2.047  -0.156  -1.168  0.00  0.00    +0.112 C 
ATOM     32  C   UNL     1      -0.559  -8.713  -4.445  0.00  0.00    +0.252 C 
ATOM     33  O   UNL     1      -0.001  -9.409  -5.264  0.00  0.00    -0.270 OA
ATOM     34  N   UNL     1      -1.851  -8.815  -4.138  0.00  0.00    -0.248 N 
ATOM     35  C   UNL     1      -2.208  -7.803  -3.354  0.00  0.00    +0.252 C 
ATOM     36  O   UNL     1      -3.347  -7.568  -3.011  0.00  0.00    -0.270 OA
ATOM     37  H   UNL     1      -2.439  -9.520  -4.439  0.00  0.00    +0.158 HD
ENDROOT
BRANCH   1  39
ATOM     38  C   UNL     1      -0.125   1.520  -0.046  0.00  0.00    +0.020 C 
ATOM     39  C   UNL     1       0.002  -0.004   0.002  0.00  0.00    +0.081 C 
ENDBRANCH   1  39
TORSDOF 1
