REMARK  Name = CHEMBL55382
REMARK  7 active torsions:
REMARK  status: ('A' for Active; 'I' for Inactive)
REMARK    1  A    between atoms: C_1  and  C_2
REMARK    2  A    between atoms: C_3  and  O_38
REMARK    3  A    between atoms: C_5  and  N_36
REMARK    4  A    between atoms: C_14  and  O_35
REMARK    5  A    between atoms: C_24  and  O_34
REMARK    6  A    between atoms: N_36  and  C_37
REMARK    7  A    between atoms: O_38  and  C_39
REMARK                            x       y       z     vdW  Elec       q    Type
REMARK                         _______ _______ _______ _____ _____    ______ ____
ROOT
ATOM      1  C   UNL     1      -0.057   1.551  -0.090  0.00  0.00    +0.069 C 
ATOM      2  C   UNL     1      -0.028   0.022  -0.060  0.00  0.00    +0.174 C 
ATOM      3  C   UNL     1       0.582  -0.440  -1.378  0.00  0.00    +0.187 C 
ATOM      4  C   UNL     1       0.917  -1.933  -1.288  0.00  0.00    +0.091 C 
ATOM      5  C   UNL     1       1.914  -2.129  -0.141  0.00  0.00    +0.076 C 
ATOM      6  C   UNL     1       1.287  -1.646   1.162  0.00  0.00    +0.224 C 
ATOM      7  O   UNL     1       0.746  -0.357   1.055  0.00  0.00    -0.328 OA
ATOM      8  N   UNL     1       0.305  -2.615   1.649  0.00  0.00    -0.311 N 
ATOM      9  C   UNL     1       0.569  -3.735   2.402  0.00  0.00    +0.053 A 
ATOM     10  C   UNL     1       1.774  -4.236   2.893  0.00  0.00    +0.030 A 
ATOM     11  C   UNL     1       1.717  -5.404   3.634  0.00  0.00    +0.047 A 
ATOM     12  C   UNL     1       0.521  -6.062   3.887  0.00  0.00    +0.118 A 
ATOM     13  C   UNL     1      -0.691  -5.582   3.409  0.00  0.00    +0.056 A 
ATOM     14  C   UNL     1      -0.650  -4.404   2.661  0.00  0.00    +0.012 A 
ATOM     15  C   UNL     1      -1.702  -3.622   2.018  0.00  0.00    +0.024 A 
ATOM     16  C   UNL     1      -1.065  -2.533   1.418  0.00  0.00    +0.077 A 
ATOM     17  C   UNL     1      -1.814  -1.578   0.722  0.00  0.00    +0.077 A 
ATOM     18  N   UNL     1      -1.416  -0.432   0.040  0.00  0.00    -0.307 N 
ATOM     19  C   UNL     1      -2.518   0.196  -0.494  0.00  0.00    +0.053 A 
ATOM     20  C   UNL     1      -2.620   1.374  -1.232  0.00  0.00    +0.030 A 
ATOM     21  C   UNL     1      -3.888   1.759  -1.636  0.00  0.00    +0.047 A 
ATOM     22  C   UNL     1      -5.019   1.016  -1.328  0.00  0.00    +0.118 A 
ATOM     23  C   UNL     1      -4.940  -0.161  -0.593  0.00  0.00    +0.056 A 
ATOM     24  C   UNL     1      -3.669  -0.560  -0.180  0.00  0.00    +0.012 A 
ATOM     25  C   UNL     1      -3.209  -1.714   0.624  0.00  0.00    +0.017 A 
ATOM     26  C   UNL     1      -3.840  -2.804   1.211  0.00  0.00    +0.014 A 
ATOM     27  C   UNL     1      -3.105  -3.760   1.906  0.00  0.00    +0.076 A 
ATOM     28  C   UNL     1      -4.044  -4.777   2.401  0.00  0.00    +0.341 C 
ATOM     29  O   UNL     1      -3.732  -5.757   3.048  0.00  0.00    -0.245 OA
ATOM     30  O   UNL     1      -5.298  -4.464   2.033  0.00  0.00    -0.456 OA
ATOM     31  C   UNL     1      -5.281  -3.245   1.286  0.00  0.00    +0.269 C 
ENDROOT
BRANCH   4  32
ATOM     32  N   UNL     1      -0.306  -2.701  -1.020  0.00  0.00    -0.314 NA
ATOM     33  C   UNL     1      -0.981  -3.071  -2.271  0.00  0.00    +0.101 C 
ATOM     34  H   UNL     1      -0.106  -3.517  -0.462  0.00  0.00    +0.122 HD
ENDBRANCH   4  32
BRANCH  22  35
ATOM     35  O   UNL     1      -6.234   1.450  -1.756  0.00  0.00    -0.507 OA
ATOM     36  H   UNL     1      -6.487   1.116  -2.627  0.00  0.00    +0.292 HD
ENDBRANCH  22  35
BRANCH  12  37
ATOM     37  O   UNL     1       0.537  -7.206   4.622  0.00  0.00    -0.507 OA
ATOM     38  H   UNL     1       0.437  -7.064   5.573  0.00  0.00    +0.292 HD
ENDBRANCH  12  37
BRANCH   3  39
ATOM     39  O   UNL     1      -0.353  -0.224  -2.437  0.00  0.00    -0.373 OA
ATOM     40  C   UNL     1       0.254   0.037  -3.704  0.00  0.00    +0.194 C 
ENDBRANCH   3  39
TORSDOF 4
