REMARK  Name = CHEMBL90598
REMARK  4 active torsions:
REMARK  status: ('A' for Active; 'I' for Inactive)
REMARK    1  A    between atoms: C_3  and  C_8
REMARK    2  A    between atoms: C_5  and  C_6
REMARK    3  A    between atoms: C_11  and  C_13
REMARK    4  A    between atoms: C_16  and  C_18
REMARK                            x       y       z     vdW  Elec       q    Type
REMARK                         _______ _______ _______ _____ _____    ______ ____
ROOT
ATOM      1  C   UNL     1       3.737   1.809  -0.025  0.00  0.00    +0.027 A 
ATOM      2  C   UNL     1       4.916   1.077  -0.045  0.00  0.00    +0.017 A 
ATOM      3  C   UNL     1       6.106   1.750  -0.053  0.00  0.00    +0.017 A 
ATOM      4  C   UNL     1       6.086   3.138  -0.040  0.00  0.00    +0.027 A 
ATOM      5  S   UNL     1       4.336   3.491  -0.023  0.00  0.00    -0.087 S 
ENDROOT
BRANCH   1   8
ATOM      6  C   UNL     1      -0.017   1.390   0.010  0.00  0.00    +0.019 A 
ATOM      7  C   UNL     1       1.168   2.059   0.002  0.00  0.00    +0.017 A 
ATOM      8  C   UNL     1       2.352   1.325  -0.013  0.00  0.00    +0.027 A 
ATOM      9  S   UNL     1       1.752  -0.357  -0.017  0.00  0.00    -0.085 S 
ATOM     10  C   UNL     1       0.002  -0.004   0.002  0.00  0.00    +0.052 A 
BRANCH  10  11
ATOM     11  C   UNL     1      -1.082  -0.904   0.008  0.00  0.00    +0.265 C 
ATOM     12  O   UNL     1      -0.877  -2.101  -0.001  0.00  0.00    -0.295 OA
ENDBRANCH  10  11
ENDBRANCH   1   8
BRANCH   4  13
ATOM     13  C   UNL     1       7.215   4.076  -0.044  0.00  0.00    +0.027 A 
ATOM     14  C   UNL     1       7.196   5.468  -0.025  0.00  0.00    +0.017 A 
ATOM     15  C   UNL     1       8.380   6.139  -0.033  0.00  0.00    +0.019 A 
ATOM     16  C   UNL     1       9.565   5.405  -0.060  0.00  0.00    +0.052 A 
ATOM     17  S   UNL     1       8.965   3.723  -0.067  0.00  0.00    -0.085 S 
BRANCH  16  18
ATOM     18  C   UNL     1      10.894   5.870  -0.072  0.00  0.00    +0.265 C 
ATOM     19  O   UNL     1      11.815   5.077  -0.096  0.00  0.00    -0.295 OA
ENDBRANCH  16  18
ENDBRANCH   4  13
TORSDOF 4
