REMARK  Name = CHEMBL368416
REMARK  9 active torsions:
REMARK  status: ('A' for Active; 'I' for Inactive)
REMARK    1  A    between atoms: C_1  and  N_2
REMARK    2  A    between atoms: N_2  and  C_3
REMARK    3  A    between atoms: N_2  and  C_4
REMARK    4  A    between atoms: C_4  and  C_5
REMARK    5  A    between atoms: C_5  and  C_6
REMARK    6  A    between atoms: C_6  and  N_7
REMARK    7  A    between atoms: C_14  and  C_16
REMARK    8  A    between atoms: C_17  and  C_23
REMARK    9  A    between atoms: N_25  and  C_32
REMARK                            x       y       z     vdW  Elec       q    Type
REMARK                         _______ _______ _______ _____ _____    ______ ____
ROOT
ATOM      1  C   UNL     1       7.781  -0.702  -1.476  0.00  0.00    +0.077 C 
ATOM      2  C   UNL     1       8.059  -1.858  -0.755  0.00  0.00    +0.060 C 
ATOM      3  C   UNL     1       9.524  -1.865  -0.542  0.00  0.00    +0.252 C 
ATOM      4  O   UNL     1      10.151  -2.720   0.050  0.00  0.00    -0.270 OA
ATOM      5  N   UNL     1      10.044  -0.766  -1.116  0.00  0.00    -0.248 N 
ATOM      6  C   UNL     1       9.078  -0.033  -1.693  0.00  0.00    +0.253 C 
ATOM      7  O   UNL     1       9.244   1.012  -2.292  0.00  0.00    -0.270 OA
ATOM      8  H   UNL     1      10.986  -0.537  -1.116  0.00  0.00    +0.158 HD
ENDROOT
BRANCH   1  16
ATOM      9  N   UNL     1       4.265  -0.060  -2.240  0.00  0.00    -0.263 N 
ATOM     10  C   UNL     1       4.801   0.953  -2.995  0.00  0.00    +0.070 A 
ATOM     11  C   UNL     1       4.250   1.940  -3.809  0.00  0.00    +0.028 A 
ATOM     12  C   UNL     1       5.075   2.836  -4.451  0.00  0.00    +0.002 A 
ATOM     13  C   UNL     1       6.453   2.765  -4.294  0.00  0.00    +0.001 A 
ATOM     14  C   UNL     1       7.014   1.806  -3.500  0.00  0.00    +0.012 A 
ATOM     15  C   UNL     1       6.197   0.887  -2.840  0.00  0.00    +0.028 A 
ATOM     16  C   UNL     1       6.458  -0.241  -1.935  0.00  0.00    +0.106 A 
ATOM     17  N   UNL     1       5.296  -0.761  -1.607  0.00  0.00    -0.170 NA
BRANCH   9  18
ATOM     18  C   UNL     1       2.836  -0.356  -2.113  0.00  0.00    +0.142 C 
BRANCH  18  19
ATOM     19  C   UNL     1       2.253   0.434  -0.940  0.00  0.00    +0.005 C 
BRANCH  19  20
ATOM     20  C   UNL     1       0.761   0.125  -0.808  0.00  0.00    -0.078 C 
BRANCH  20  22
ATOM     21  C   UNL     1       0.276   2.322   0.025  0.00  0.00    -0.097 C 
ATOM     22  N   UNL     1       0.202   0.884   0.319  0.00  0.00    +0.376 N 
ATOM     23  C   UNL     1      -1.201   0.497   0.521  0.00  0.00    -0.097 C 
ATOM     24  H   UNL     1       0.730   0.684   1.155  0.00  0.00    -0.083 HD
ENDBRANCH  20  22
ENDBRANCH  19  20
ENDBRANCH  18  19
ENDBRANCH   9  18
ENDBRANCH   1  16
BRANCH   2  25
ATOM     25  C   UNL     1       7.094  -2.867  -0.296  0.00  0.00    +0.013 A 
ATOM     26  C   UNL     1       6.479  -3.817  -1.062  0.00  0.00    +0.101 A 
ATOM     27  N   UNL     1       5.655  -4.569  -0.285  0.00  0.00    -0.314 N 
ATOM     28  C   UNL     1       5.703  -4.133   1.026  0.00  0.00    +0.054 A 
ATOM     29  C   UNL     1       6.604  -3.058   1.081  0.00  0.00    +0.008 A 
ATOM     30  C   UNL     1       6.856  -2.419   2.293  0.00  0.00    +0.010 A 
ATOM     31  C   UNL     1       6.219  -2.850   3.436  0.00  0.00    +0.001 A 
ATOM     32  C   UNL     1       5.330  -3.914   3.384  0.00  0.00    +0.002 A 
ATOM     33  C   UNL     1       5.067  -4.551   2.190  0.00  0.00    +0.027 A 
BRANCH  27  34
ATOM     34  C   UNL     1       4.869  -5.632  -0.746  0.00  0.00    +0.065 A 
ATOM     35  C   UNL     1       4.055  -5.475  -1.865  0.00  0.00    +0.029 A 
ATOM     36  C   UNL     1       3.296  -6.556  -2.283  0.00  0.00    +0.022 A 
ATOM     37  C   UNL     1       3.371  -7.745  -1.582  0.00  0.00    +0.111 A 
ATOM     38  N   UNL     1       4.152  -7.861  -0.526  0.00  0.00    -0.261 NA
ATOM     39  C   UNL     1       4.894  -6.860  -0.098  0.00  0.00    +0.136 A 
ENDBRANCH  27  34
ENDBRANCH   2  25
TORSDOF 7
