REMARK  Name = CHEMBL103421
REMARK  4 active torsions:
REMARK  status: ('A' for Active; 'I' for Inactive)
REMARK    1  A    between atoms: C_1  and  C_2
REMARK    2  A    between atoms: C_2  and  N_3
REMARK    3  A    between atoms: N_31  and  C_37
REMARK    4  A    between atoms: C_37  and  C_38
REMARK                            x       y       z     vdW  Elec       q    Type
REMARK                         _______ _______ _______ _____ _____    ______ ____
ROOT
ATOM      1  N   UNL     1      -1.265  -0.896  -1.217  0.00  0.00    -0.299 NA
ATOM      2  C   UNL     1      -1.225  -2.386  -1.315  0.00  0.00    +0.106 C 
ATOM      3  C   UNL     1      -0.789  -2.869  -2.688  0.00  0.00    +0.137 C 
ATOM      4  N   UNL     1      -0.822  -4.340  -2.679  0.00  0.00    -0.345 N 
ATOM      5  C   UNL     1      -1.894  -5.137  -2.436  0.00  0.00    +0.095 A 
ATOM      6  C   UNL     1      -1.533  -6.443  -2.475  0.00  0.00    +0.013 A 
ATOM      7  C   UNL     1      -0.084  -6.444  -2.840  0.00  0.00    +0.008 A 
ATOM      8  C   UNL     1       0.299  -5.105  -2.919  0.00  0.00    +0.050 A 
ATOM      9  C   UNL     1       1.627  -4.785  -3.179  0.00  0.00    +0.026 A 
ATOM     10  C   UNL     1       2.559  -5.779  -3.403  0.00  0.00    +0.002 A 
ATOM     11  C   UNL     1       2.163  -7.112  -3.376  0.00  0.00    +0.001 A 
ATOM     12  C   UNL     1       0.854  -7.431  -3.112  0.00  0.00    +0.010 A 
ATOM     13  C   UNL     1      -2.250  -7.704  -2.235  0.00  0.00    +0.059 C 
ATOM     14  C   UNL     1      -3.560  -8.115  -2.404  0.00  0.00    +0.059 C 
ATOM     15  C   UNL     1      -4.768  -7.486  -2.966  0.00  0.00    +0.013 A 
ATOM     16  C   UNL     1      -5.064  -6.191  -3.245  0.00  0.00    +0.095 A 
ATOM     17  N   UNL     1      -6.340  -6.086  -3.713  0.00  0.00    -0.344 N 
ATOM     18  C   UNL     1      -6.930  -7.328  -3.748  0.00  0.00    +0.050 A 
ATOM     19  C   UNL     1      -5.969  -8.274  -3.349  0.00  0.00    +0.008 A 
ATOM     20  C   UNL     1      -6.263  -9.628  -3.424  0.00  0.00    +0.010 A 
ATOM     21  C   UNL     1      -7.528 -10.069  -3.748  0.00  0.00    +0.001 A 
ATOM     22  C   UNL     1      -8.509  -9.133  -4.056  0.00  0.00    +0.002 A 
ATOM     23  C   UNL     1      -8.208  -7.790  -4.059  0.00  0.00    +0.026 A 
ATOM     24  C   UNL     1      -6.980  -4.850  -4.142  0.00  0.00    +0.150 C 
ATOM     25  C   UNL     1      -7.223  -3.919  -2.953  0.00  0.00    +0.181 C 
ATOM     26  O   UNL     1      -8.160  -2.909  -3.301  0.00  0.00    -0.380 OA
ATOM     27  C   UNL     1      -8.023  -1.637  -2.670  0.00  0.00    +0.141 C 
ATOM     28  C   UNL     1      -7.787  -0.592  -3.744  0.00  0.00    -0.050 C 
ATOM     29  N   UNL     1      -7.713   0.780  -3.290  0.00  0.00    +0.382 N 
ATOM     30  C   UNL     1      -6.361   1.310  -3.507  0.00  0.00    -0.050 C 
ATOM     31  C   UNL     1      -5.404   0.754  -2.458  0.00  0.00    +0.141 C 
ATOM     32  O   UNL     1      -4.061   0.793  -2.931  0.00  0.00    -0.380 OA
ATOM     33  C   UNL     1      -3.078   0.602  -1.915  0.00  0.00    +0.175 C 
ATOM     34  C   UNL     1      -2.032  -0.396  -2.401  0.00  0.00    +0.112 C 
ATOM     35  C   UNL     1      -3.624  -9.474  -1.788  0.00  0.00    +0.252 C 
ATOM     36  O   UNL     1      -4.622 -10.121  -1.549  0.00  0.00    -0.270 OA
ATOM     37  N   UNL     1      -2.387  -9.888  -1.494  0.00  0.00    -0.248 N 
ATOM     38  C   UNL     1      -1.526  -8.888  -1.681  0.00  0.00    +0.252 C 
ATOM     39  O   UNL     1      -0.345  -8.949  -1.403  0.00  0.00    -0.270 OA
ATOM     40  H   UNL     1      -2.154 -10.779  -1.192  0.00  0.00    +0.158 HD
ATOM     41  H   UNL     1      -8.357   1.338  -3.864  0.00  0.00    -0.082 HD
ENDROOT
BRANCH   1  43
ATOM     42  C   UNL     1       0.207   1.088  -1.402  0.00  0.00    +0.020 C 
ATOM     43  C   UNL     1       0.148  -0.440  -1.457  0.00  0.00    +0.081 C 
ENDBRANCH   1  43
BRANCH  29  44
ATOM     44  C   UNL     1      -8.117   0.940  -1.893  0.00  0.00    -0.082 C 
ATOM     45  C   UNL     1      -8.146   2.428  -1.538  0.00  0.00    -0.017 C 
ENDBRANCH  29  44
TORSDOF 2
