REMARK  Name = CHEMBL315389
REMARK  4 active torsions:
REMARK  status: ('A' for Active; 'I' for Inactive)
REMARK    1  A    between atoms: C_4  and  S_7
REMARK    2  A    between atoms: S_7  and  N_10
REMARK    3  A    between atoms: N_10  and  C_11
REMARK    4  A    between atoms: C_11  and  C_12
REMARK                            x       y       z     vdW  Elec       q    Type
REMARK                         _______ _______ _______ _____ _____    ______ ____
ROOT
ATOM      1  C   UNL     1       4.409  -2.403   3.590  0.00  0.00    +0.135 C 
ATOM      2  C   UNL     1       3.651  -3.482   4.376  0.00  0.00    +0.054 C 
ATOM      3  C   UNL     1       4.170  -4.862   3.983  0.00  0.00    +0.124 C 
ATOM      4  N   UNL     1       5.216  -5.287   4.915  0.00  0.00    -0.346 N 
ATOM      5  C   UNL     1       6.374  -4.627   5.189  0.00  0.00    +0.095 A 
ATOM      6  C   UNL     1       7.075  -5.279   6.149  0.00  0.00    +0.013 A 
ATOM      7  C   UNL     1       6.280  -6.488   6.482  0.00  0.00    +0.008 A 
ATOM      8  C   UNL     1       5.152  -6.449   5.653  0.00  0.00    +0.050 A 
ATOM      9  C   UNL     1       4.239  -7.499   5.684  0.00  0.00    +0.026 A 
ATOM     10  C   UNL     1       4.435  -8.553   6.554  0.00  0.00    +0.002 A 
ATOM     11  C   UNL     1       5.525  -8.564   7.411  0.00  0.00    +0.001 A 
ATOM     12  C   UNL     1       6.433  -7.527   7.397  0.00  0.00    +0.010 A 
ATOM     13  C   UNL     1       8.350  -4.946   6.801  0.00  0.00    +0.059 C 
ATOM     14  C   UNL     1       8.965  -3.721   7.046  0.00  0.00    +0.059 C 
ATOM     15  C   UNL     1       8.493  -2.348   6.803  0.00  0.00    +0.013 A 
ATOM     16  C   UNL     1       7.316  -1.935   6.248  0.00  0.00    +0.095 A 
ATOM     17  N   UNL     1       7.336  -0.590   6.056  0.00  0.00    -0.344 N 
ATOM     18  C   UNL     1       8.479  -0.054   6.617  0.00  0.00    +0.050 A 
ATOM     19  C   UNL     1       9.222  -1.111   7.161  0.00  0.00    +0.008 A 
ATOM     20  C   UNL     1      10.361  -0.823   7.906  0.00  0.00    +0.010 A 
ATOM     21  C   UNL     1      10.831   0.472   7.977  0.00  0.00    +0.001 A 
ATOM     22  C   UNL     1      10.144   1.502   7.357  0.00  0.00    +0.002 A 
ATOM     23  C   UNL     1       8.968   1.246   6.689  0.00  0.00    +0.026 A 
ATOM     24  C   UNL     1       6.324   0.207   5.362  0.00  0.00    +0.150 C 
ATOM     25  C   UNL     1       5.795  -0.531   4.138  0.00  0.00    +0.181 C 
ATOM     26  O   UNL     1       4.640  -1.298   4.485  0.00  0.00    -0.373 OA
ATOM     27  C   UNL     1      10.299  -4.057   7.608  0.00  0.00    +0.252 C 
ATOM     28  O   UNL     1      11.226  -3.306   7.811  0.00  0.00    -0.270 OA
ATOM     29  N   UNL     1      10.355  -5.373   7.855  0.00  0.00    -0.248 N 
ATOM     30  C   UNL     1       9.259  -5.971   7.375  0.00  0.00    +0.252 C 
ATOM     31  O   UNL     1       9.070  -7.171   7.392  0.00  0.00    -0.270 OA
ATOM     32  H   UNL     1      11.082  -5.822   8.314  0.00  0.00    +0.158 HD
ENDROOT
BRANCH   1  33
ATOM     33  C   UNL     1       3.567  -1.942   2.398  0.00  0.00    +0.137 C 
BRANCH  33  34
ATOM     34  N   UNL     1       4.344  -1.002   1.586  0.00  0.00    -0.187 NA
ATOM     35  H   UNL     1       5.155  -0.608   1.944  0.00  0.00    +0.148 HD
BRANCH  34  36
ATOM     36  S   UNL     1       3.837  -0.612   0.059  0.00  0.00    +0.058 S 
ATOM     37  O   UNL     1       3.552  -1.838  -0.600  0.00  0.00    -0.153 OA
ATOM     38  O   UNL     1       4.772   0.328  -0.452  0.00  0.00    -0.153 OA
BRANCH  36  42
ATOM     39  C   UNL     1      -0.102   1.579   0.473  0.00  0.00    +0.000 A 
ATOM     40  C   UNL     1       1.086   2.286   0.482  0.00  0.00    +0.002 A 
ATOM     41  C   UNL     1       2.289   1.617   0.356  0.00  0.00    +0.028 A 
ATOM     42  C   UNL     1       2.304   0.241   0.221  0.00  0.00    +0.105 A 
ATOM     43  C   UNL     1       1.115  -0.466   0.213  0.00  0.00    +0.028 A 
ATOM     44  C   UNL     1      -0.088   0.204   0.338  0.00  0.00    +0.002 A 
ENDBRANCH  36  42
ENDBRANCH  34  36
ENDBRANCH  33  34
ENDBRANCH   1  33
TORSDOF 4
