REMARK  Name = CHEMBL91959
REMARK  3 active torsions:
REMARK  status: ('A' for Active; 'I' for Inactive)
REMARK    1  A    between atoms: C_1  and  N_2
REMARK    2  A    between atoms: N_5  and  C_8
REMARK    3  A    between atoms: C_8  and  C_9
REMARK                            x       y       z     vdW  Elec       q    Type
REMARK                         _______ _______ _______ _____ _____    ______ ____
ROOT
ATOM      1  C   UNL     1      -0.086  -4.485   2.544  0.00  0.00    +0.134 C 
ATOM      2  C   UNL     1       0.005  -6.018   2.557  0.00  0.00    +0.054 C 
ATOM      3  C   UNL     1       1.442  -6.447   2.271  0.00  0.00    +0.124 C 
ATOM      4  N   UNL     1       2.161  -6.654   3.530  0.00  0.00    -0.346 N 
ATOM      5  C   UNL     1       2.340  -5.739   4.520  0.00  0.00    +0.095 A 
ATOM      6  C   UNL     1       2.998  -6.297   5.567  0.00  0.00    +0.013 A 
ATOM      7  C   UNL     1       3.283  -7.698   5.168  0.00  0.00    +0.008 A 
ATOM      8  C   UNL     1       2.764  -7.845   3.875  0.00  0.00    +0.050 A 
ATOM      9  C   UNL     1       2.941  -9.046   3.195  0.00  0.00    +0.026 A 
ATOM     10  C   UNL     1       3.595 -10.093   3.813  0.00  0.00    +0.002 A 
ATOM     11  C   UNL     1       4.061  -9.963   5.113  0.00  0.00    +0.001 A 
ATOM     12  C   UNL     1       3.888  -8.782   5.800  0.00  0.00    +0.010 A 
ATOM     13  C   UNL     1       3.388  -5.732   6.867  0.00  0.00    +0.059 C 
ATOM     14  C   UNL     1       2.821  -4.718   7.636  0.00  0.00    +0.059 C 
ATOM     15  C   UNL     1       1.592  -3.935   7.432  0.00  0.00    +0.013 A 
ATOM     16  C   UNL     1       0.697  -4.004   6.403  0.00  0.00    +0.095 A 
ATOM     17  N   UNL     1      -0.214  -3.002   6.509  0.00  0.00    -0.344 N 
ATOM     18  C   UNL     1      -0.032  -2.326   7.700  0.00  0.00    +0.050 A 
ATOM     19  C   UNL     1       1.059  -2.912   8.358  0.00  0.00    +0.008 A 
ATOM     20  C   UNL     1       1.369  -2.499   9.649  0.00  0.00    +0.010 A 
ATOM     21  C   UNL     1       0.708  -1.426  10.210  0.00  0.00    +0.001 A 
ATOM     22  C   UNL     1      -0.307  -0.789   9.516  0.00  0.00    +0.002 A 
ATOM     23  C   UNL     1      -0.686  -1.240   8.272  0.00  0.00    +0.026 A 
ATOM     24  C   UNL     1      -1.246  -2.654   5.531  0.00  0.00    +0.150 C 
ATOM     25  C   UNL     1      -0.715  -2.788   4.109  0.00  0.00    +0.181 C 
ATOM     26  O   UNL     1      -0.983  -4.098   3.602  0.00  0.00    -0.373 OA
ATOM     27  C   UNL     1       3.757  -4.518   8.772  0.00  0.00    +0.252 C 
ATOM     28  O   UNL     1       3.745  -3.629   9.594  0.00  0.00    -0.270 OA
ATOM     29  N   UNL     1       4.682  -5.489   8.759  0.00  0.00    -0.248 N 
ATOM     30  C   UNL     1       4.552  -6.222   7.648  0.00  0.00    +0.252 C 
ATOM     31  O   UNL     1       5.299  -7.128   7.334  0.00  0.00    -0.270 OA
ATOM     32  H   UNL     1       5.344  -5.636   9.453  0.00  0.00    +0.158 HD
ENDROOT
BRANCH   1  33
ATOM     33  C   UNL     1      -0.632  -4.009   1.196  0.00  0.00    +0.115 C 
BRANCH  33  38
ATOM     34  C   UNL     1      -0.018   1.465   0.010  0.00  0.00    -0.096 C 
ATOM     35  N   UNL     1       0.002  -0.004   0.002  0.00  0.00    +0.379 N 
ATOM     36  C   UNL     1      -1.376  -0.512   0.011  0.00  0.00    -0.064 C 
ATOM     37  C   UNL     1      -1.356  -2.042  -0.017  0.00  0.00    +0.066 C 
ATOM     38  N   UNL     1      -0.624  -2.541   1.156  0.00  0.00    -0.303 NA
ATOM     39  C   UNL     1       0.750  -2.020   1.175  0.00  0.00    +0.066 C 
ATOM     40  C   UNL     1       0.713  -0.490   1.192  0.00  0.00    -0.064 C 
ATOM     41  H   UNL     1       0.475  -0.329  -0.828  0.00  0.00    -0.082 HD
ENDBRANCH  33  38
ENDBRANCH   1  33
TORSDOF 2
