REMARK  Name = CHEMBL340935
REMARK  0 active torsions:
REMARK  status: ('A' for Active; 'I' for Inactive)
REMARK                            x       y       z     vdW  Elec       q    Type
REMARK                         _______ _______ _______ _____ _____    ______ ____
ROOT
ATOM      1  C   UNL     1      -0.017   1.376   0.010  0.00  0.00    +0.001 A 
ATOM      2  C   UNL     1       1.174   2.090   0.002  0.00  0.00    +0.002 A 
ATOM      3  C   UNL     1       2.384   1.435  -0.034  0.00  0.00    +0.026 A 
ATOM      4  C   UNL     1       2.422   0.042  -0.042  0.00  0.00    +0.050 A 
ATOM      5  C   UNL     1       1.222  -0.675   0.012  0.00  0.00    +0.008 A 
ATOM      6  C   UNL     1       0.002  -0.004   0.002  0.00  0.00    +0.010 A 
ATOM      7  C   UNL     1       1.605  -2.111   0.091  0.00  0.00    +0.013 A 
ATOM      8  C   UNL     1       2.960  -2.136  -0.021  0.00  0.00    +0.095 A 
ATOM      9  N   UNL     1       3.457  -0.871  -0.114  0.00  0.00    -0.344 N 
ATOM     10  C   UNL     1       4.845  -0.458  -0.269  0.00  0.00    +0.150 C 
ATOM     11  C   UNL     1       5.779  -1.578  -0.698  0.00  0.00    +0.181 C 
ATOM     12  O   UNL     1       7.133  -1.181  -0.445  0.00  0.00    -0.376 OA
ATOM     13  C   UNL     1       8.120  -1.819  -1.253  0.00  0.00    +0.188 C 
ATOM     14  C   UNL     1       8.639  -3.080  -0.550  0.00  0.00    +0.188 C 
ATOM     15  O   UNL     1       9.151  -3.987  -1.532  0.00  0.00    -0.375 OA
ATOM     16  C   UNL     1       8.904  -5.367  -1.258  0.00  0.00    +0.188 C 
ATOM     17  C   UNL     1       7.890  -5.918  -2.266  0.00  0.00    +0.188 C 
ATOM     18  O   UNL     1       6.873  -6.637  -1.577  0.00  0.00    -0.376 OA
ATOM     19  C   UNL     1       5.538  -6.151  -1.764  0.00  0.00    +0.181 C 
ATOM     20  C   UNL     1       4.565  -7.266  -1.407  0.00  0.00    +0.151 C 
ATOM     21  N   UNL     1       3.203  -6.801  -1.157  0.00  0.00    -0.329 N 
ATOM     22  C   UNL     1       2.813  -5.620  -0.604  0.00  0.00    +0.097 A 
ATOM     23  C   UNL     1       1.463  -5.555  -0.531  0.00  0.00    +0.015 A 
ATOM     24  C   UNL     1       0.961  -6.798  -1.170  0.00  0.00    +0.027 A 
ATOM     25  C   UNL     1       2.097  -7.567  -1.464  0.00  0.00    +0.141 A 
ATOM     26  N   UNL     1       1.952  -8.803  -1.932  0.00  0.00    -0.237 NA
ATOM     27  C   UNL     1       0.764  -9.304  -2.201  0.00  0.00    +0.113 A 
ATOM     28  C   UNL     1      -0.392  -8.563  -2.027  0.00  0.00    +0.020 A 
ATOM     29  C   UNL     1      -0.300  -7.277  -1.518  0.00  0.00    +0.013 A 
ATOM     30  C   UNL     1       0.544  -4.546   0.033  0.00  0.00    +0.059 C 
ATOM     31  C   UNL     1       0.613  -3.185   0.284  0.00  0.00    +0.059 C 
ATOM     32  C   UNL     1      -0.670  -2.848   0.981  0.00  0.00    +0.252 C 
ATOM     33  O   UNL     1      -0.949  -1.792   1.510  0.00  0.00    -0.270 OA
ATOM     34  N   UNL     1      -1.473  -3.912   0.964  0.00  0.00    -0.248 N 
ATOM     35  C   UNL     1      -0.813  -4.966   0.489  0.00  0.00    +0.252 C 
ATOM     36  O   UNL     1      -1.266  -6.092   0.483  0.00  0.00    -0.270 OA
ATOM     37  H   UNL     1      -2.399  -3.917   1.249  0.00  0.00    +0.158 HD
ENDROOT
TORSDOF 0
