REMARK  Name = CHEMBL263910
REMARK  11 active torsions:
REMARK  status: ('A' for Active; 'I' for Inactive)
REMARK    1  A    between atoms: C_3  and  C_43
REMARK    2  A    between atoms: C_4  and  C_8
REMARK    3  A    between atoms: C_5  and  O_7
REMARK    4  A    between atoms: C_8  and  C_10
REMARK    5  A    between atoms: C_11  and  O_42
REMARK    6  A    between atoms: C_13  and  C_17
REMARK    7  A    between atoms: C_17  and  O_19
REMARK    8  A    between atoms: O_19  and  C_20
REMARK    9  A    between atoms: C_22  and  N_32
REMARK   10  A    between atoms: C_33  and  C_35
REMARK   11  A    between atoms: C_38  and  O_41
REMARK                            x       y       z     vdW  Elec       q    Type
REMARK                         _______ _______ _______ _____ _____    ______ ____
ROOT
ATOM      1  C   UNL     1       3.512  -6.393   0.802  0.00  0.00    +0.340 C 
ATOM      2  O   UNL     1       4.540  -7.035   0.886  0.00  0.00    -0.245 OA
ENDROOT
BRANCH   1   6
ATOM      3  C   UNL     1       3.670  -2.144   0.500  0.00  0.00    +0.110 A 
ATOM      4  C   UNL     1       4.856  -2.888   0.597  0.00  0.00    +0.132 A 
ATOM      5  C   UNL     1       4.801  -4.266   0.695  0.00  0.00    +0.061 A 
ATOM      6  C   UNL     1       3.567  -4.918   0.698  0.00  0.00    +0.066 A 
ATOM      7  C   UNL     1       2.385  -4.184   0.602  0.00  0.00    +0.066 A 
ATOM      8  C   UNL     1       2.432  -2.804   0.510  0.00  0.00    +0.194 A 
ATOM      9  O   UNL     1       1.281  -2.090   0.423  0.00  0.00    -0.287 OA
BRANCH   3  10
ATOM     10  C   UNL     1       3.724  -0.675   0.396  0.00  0.00    +0.205 C 
ATOM     11  O   UNL     1       4.791  -0.098   0.491  0.00  0.00    -0.286 OA
BRANCH  10  15
ATOM     12  C   UNL     1       0.147   1.548  -0.239  0.00  0.00    +0.004 A 
ATOM     13  C   UNL     1       0.825   1.021  -1.325  0.00  0.00    +0.016 A 
ATOM     14  C   UNL     1       1.994   0.293  -1.132  0.00  0.00    +0.077 A 
ATOM     15  C   UNL     1       2.485   0.095   0.175  0.00  0.00    +0.078 A 
ATOM     16  C   UNL     1       1.788   0.634   1.261  0.00  0.00    +0.128 A 
ATOM     17  C   UNL     1       0.622   1.359   1.044  0.00  0.00    +0.046 A 
BRANCH  14  18
ATOM     18  C   UNL     1       2.717  -0.270  -2.289  0.00  0.00    +0.387 C 
ATOM     19  O   UNL     1       2.238  -0.184  -3.411  0.00  0.00    -0.241 OA
ATOM     20  O   UNL     1       3.796  -0.823  -2.127  0.00  0.00    -0.241 OA
ENDBRANCH  14  18
BRANCH  16  21
ATOM     21  O   UNL     1       2.249   0.451   2.523  0.00  0.00    -0.506 OA
ATOM     22  H   UNL     1       2.795   1.178   2.852  0.00  0.00    +0.292 HD
ENDBRANCH  16  21
ENDBRANCH  10  15
ENDBRANCH   3  10
BRANCH   4  23
ATOM     23  O   UNL     1       6.056  -2.255   0.594  0.00  0.00    -0.506 OA
ATOM     24  H   UNL     1       6.373  -2.007   1.473  0.00  0.00    +0.292 HD
ENDBRANCH   4  23
ENDBRANCH   1   6
BRANCH   1  25
ATOM     25  O   UNL     1       2.323  -7.025   0.805  0.00  0.00    -0.456 OA
BRANCH  25  26
ATOM     26  C   UNL     1       2.345  -8.450   0.909  0.00  0.00    +0.200 C 
ATOM     27  C   UNL     1       2.248  -8.876   2.398  0.00  0.00    +0.117 C 
ATOM     28  C   UNL     1       0.770  -9.443   2.488  0.00  0.00    +0.017 C 
ATOM     29  C   UNL     1       0.833 -10.288   1.145  0.00  0.00    +0.013 C 
ATOM     30  C   UNL     1       1.117  -9.050   0.196  0.00  0.00    +0.035 C 
ATOM     31  C   UNL     1      -0.162  -8.287   0.518  0.00  0.00    -0.001 C 
ATOM     32  C   UNL     1       0.015  -8.218   2.080  0.00  0.00    -0.003 C 
ATOM     33  C   UNL     1      -1.135  -7.417   2.527  0.00  0.00    +0.004 C 
ATOM     34  C   UNL     1      -1.098  -6.249   1.477  0.00  0.00    +0.001 C 
ATOM     35  C   UNL     1      -0.320  -6.802   0.240  0.00  0.00    +0.004 C 
BRANCH  27  36
ATOM     36  N   UNL     1       3.230  -9.917   2.708  0.00  0.00    -0.305 N 
ATOM     37  C   UNL     1       4.484  -9.575   3.067  0.00  0.00    +0.244 C 
ATOM     38  O   UNL     1       4.799  -8.403   3.134  0.00  0.00    -0.270 OA
ATOM     39  H   UNL     1       2.979 -10.852   2.655  0.00  0.00    +0.149 HD
BRANCH  37  40
ATOM     40  C   UNL     1       5.474 -10.625   3.380  0.00  0.00    +0.037 A 
ATOM     41  C   UNL     1       5.115 -11.973   3.298  0.00  0.00    +0.016 A 
ATOM     42  C   UNL     1       6.042 -12.949   3.590  0.00  0.00    +0.046 A 
ATOM     43  C   UNL     1       7.332 -12.594   3.965  0.00  0.00    +0.117 A 
ATOM     44  C   UNL     1       7.693 -11.255   4.047  0.00  0.00    +0.046 A 
ATOM     45  C   UNL     1       6.774 -10.273   3.752  0.00  0.00    +0.016 A 
BRANCH  43  46
ATOM     46  O   UNL     1       8.243 -13.559   4.253  0.00  0.00    -0.507 OA
ATOM     47  H   UNL     1       8.757 -13.854   3.489  0.00  0.00    +0.292 HD
ENDBRANCH  43  46
ENDBRANCH  37  40
ENDBRANCH  27  36
ENDBRANCH  25  26
ENDBRANCH   1  25
TORSDOF 11
