REMARK  Name = CHEMBL265315
REMARK  11 active torsions:
REMARK  status: ('A' for Active; 'I' for Inactive)
REMARK    1  A    between atoms: C_4  and  C_7
REMARK    2  A    between atoms: C_7  and  C_8
REMARK    3  A    between atoms: C_8  and  C_10
REMARK    4  A    between atoms: C_8  and  N_32
REMARK    5  A    between atoms: C_16  and  C_18
REMARK    6  A    between atoms: N_20  and  C_21
REMARK    7  A    between atoms: C_21  and  C_23
REMARK    8  A    between atoms: C_21  and  C_30
REMARK    9  A    between atoms: C_23  and  C_24
REMARK   10  A    between atoms: C_24  and  C_25
REMARK   11  A    between atoms: C_25  and  N_26
REMARK                            x       y       z     vdW  Elec       q    Type
REMARK                         _______ _______ _______ _____ _____    ______ ____
ROOT
ATOM      1  C   UNL     1       5.543  -1.588   1.383  0.00  0.00    +0.202 C 
ATOM      2  O   UNL     1       5.665  -2.786   1.529  0.00  0.00    -0.277 OA
ATOM      3  N   UNL     1       6.633  -0.816   1.207  0.00  0.00    -0.291 N 
ATOM      4  C   UNL     1       6.630   0.647   1.026  0.00  0.00    +0.108 C 
ATOM      5  C   UNL     1       8.036   1.106   1.485  0.00  0.00    +0.021 C 
ATOM      6  C   UNL     1       8.927  -0.057   0.974  0.00  0.00    +0.033 C 
ATOM      7  C   UNL     1       8.024  -1.293   1.171  0.00  0.00    +0.162 C 
ENDROOT
BRANCH   7   8
ATOM      8  C   UNL     1       8.364  -1.978   2.469  0.00  0.00    +0.234 C 
ATOM      9  O   UNL     1       7.531  -2.064   3.346  0.00  0.00    -0.274 OA
ATOM     10  N   UNL     1       9.595  -2.494   2.656  0.00  0.00    -0.310 N 
ATOM     11  H   UNL     1      10.261  -2.425   1.954  0.00  0.00    +0.149 HD
BRANCH  10  12
ATOM     12  C   UNL     1       9.927  -3.160   3.918  0.00  0.00    +0.088 C 
BRANCH  12  13
ATOM     13  C   UNL     1      10.370  -2.116   4.944  0.00  0.00    +0.131 C 
ATOM     14 CL   UNL     1       9.032  -0.939   5.219  0.00  0.00    -0.124 Cl
ENDBRANCH  12  13
BRANCH  12  15
ATOM     15  C   UNL     1      11.062  -4.160   3.684  0.00  0.00    +0.025 C 
BRANCH  15  16
ATOM     16  C   UNL     1      10.577  -5.274   2.754  0.00  0.00    +0.023 C 
BRANCH  16  17
ATOM     17  C   UNL     1      11.712  -6.273   2.521  0.00  0.00    +0.115 C 
BRANCH  17  18
ATOM     18  N   UNL     1      11.248  -7.339   1.630  0.00  0.00    -0.358 N 
ATOM     19  C   UNL     1      12.056  -8.305   1.294  0.00  0.00    +0.166 C 
ATOM     20  N   UNL     1      13.344  -8.323   1.775  0.00  0.00    -0.372 N 
ATOM     21  N   UNL     1      11.621  -9.306   0.458  0.00  0.00    -0.372 N 
ATOM     22  H   UNL     1      13.651  -7.617   2.365  0.00  0.00    +0.159 HD
ATOM     23  H   UNL     1      13.945  -9.042   1.525  0.00  0.00    +0.159 HD
ATOM     24  H   UNL     1      10.712  -9.294   0.118  0.00  0.00    +0.159 HD
ATOM     25  H   UNL     1      12.222 -10.025   0.208  0.00  0.00    +0.159 HD
ATOM     26  H   UNL     1      10.340  -7.327   1.290  0.00  0.00    +0.162 HD
ENDBRANCH  17  18
ENDBRANCH  16  17
ENDBRANCH  15  16
ENDBRANCH  12  15
ENDBRANCH  10  12
ENDBRANCH   7   8
BRANCH   1  27
ATOM     27  C   UNL     1       4.171  -0.963   1.399  0.00  0.00    +0.017 C 
BRANCH  27  28
ATOM     28  N   UNL     1       3.226  -1.872   2.061  0.00  0.00    +0.386 N 
ATOM     29  H   UNL     1       3.192  -2.746   1.558  0.00  0.00    -0.089 HD
ATOM     30  H   UNL     1       3.530  -2.041   3.008  0.00  0.00    -0.089 HD
ATOM     31  H   UNL     1       2.308  -1.454   2.072  0.00  0.00    -0.089 HD
ENDBRANCH  27  28
BRANCH  27  32
ATOM     32  C   UNL     1       3.711  -0.707  -0.038  0.00  0.00    +0.028 C 
BRANCH  32  36
ATOM     33  C   UNL     1      -0.017   1.378   0.010  0.00  0.00    +0.000 A 
ATOM     34  C   UNL     1       1.171   2.086   0.002  0.00  0.00    +0.000 A 
ATOM     35  C   UNL     1       2.377   1.411  -0.013  0.00  0.00    +0.003 A 
ATOM     36  C   UNL     1       2.396   0.029  -0.020  0.00  0.00    -0.048 A 
ATOM     37  C   UNL     1       1.208  -0.679  -0.012  0.00  0.00    +0.003 A 
ATOM     38  C   UNL     1       0.002  -0.004   0.002  0.00  0.00    +0.000 A 
ENDBRANCH  32  36
ENDBRANCH  27  32
ENDBRANCH   1  27
TORSDOF 11
