REMARK  Name = CHEMBL55382
REMARK  7 active torsions:
REMARK  status: ('A' for Active; 'I' for Inactive)
REMARK    1  A    between atoms: C_1  and  C_2
REMARK    2  A    between atoms: C_3  and  O_38
REMARK    3  A    between atoms: C_5  and  N_36
REMARK    4  A    between atoms: C_14  and  O_35
REMARK    5  A    between atoms: C_24  and  O_34
REMARK    6  A    between atoms: N_36  and  C_37
REMARK    7  A    between atoms: O_38  and  C_39
REMARK                            x       y       z     vdW  Elec       q    Type
REMARK                         _______ _______ _______ _____ _____    ______ ____
ROOT
ATOM      1  C   UNL     1      -0.124   1.592  -0.281  0.00  0.00    +0.069 C 
ATOM      2  C   UNL     1      -0.082   0.066  -0.180  0.00  0.00    +0.171 C 
ATOM      3  C   UNL     1       0.570  -0.449  -1.457  0.00  0.00    +0.157 C 
ATOM      4  C   UNL     1       0.917  -1.933  -1.288  0.00  0.00    -0.034 C 
ATOM      5  C   UNL     1       1.882  -2.065  -0.105  0.00  0.00    +0.041 C 
ATOM      6  C   UNL     1       1.213  -1.530   1.156  0.00  0.00    +0.221 C 
ATOM      7  O   UNL     1       0.662  -0.253   0.974  0.00  0.00    -0.328 OA
ATOM      8  N   UNL     1       0.226  -2.486   1.659  0.00  0.00    -0.312 N 
ATOM      9  C   UNL     1       0.478  -3.567   2.470  0.00  0.00    +0.053 A 
ATOM     10  C   UNL     1       1.673  -4.032   3.018  0.00  0.00    +0.030 A 
ATOM     11  C   UNL     1       1.606  -5.165   3.810  0.00  0.00    +0.047 A 
ATOM     12  C   UNL     1       0.409  -5.824   4.059  0.00  0.00    +0.118 A 
ATOM     13  C   UNL     1      -0.793  -5.380   3.525  0.00  0.00    +0.056 A 
ATOM     14  C   UNL     1      -0.741  -4.236   2.724  0.00  0.00    +0.012 A 
ATOM     15  C   UNL     1      -1.782  -3.496   2.016  0.00  0.00    +0.024 A 
ATOM     16  C   UNL     1      -1.137  -2.430   1.385  0.00  0.00    +0.077 A 
ATOM     17  C   UNL     1      -1.875  -1.516   0.624  0.00  0.00    +0.077 A 
ATOM     18  N   UNL     1      -1.468  -0.398  -0.098  0.00  0.00    -0.307 N 
ATOM     19  C   UNL     1      -2.560   0.193  -0.692  0.00  0.00    +0.053 A 
ATOM     20  C   UNL     1      -2.652   1.335  -1.487  0.00  0.00    +0.030 A 
ATOM     21  C   UNL     1      -3.910   1.687  -1.944  0.00  0.00    +0.047 A 
ATOM     22  C   UNL     1      -5.042   0.947  -1.635  0.00  0.00    +0.118 A 
ATOM     23  C   UNL     1      -4.974  -0.194  -0.844  0.00  0.00    +0.056 A 
ATOM     24  C   UNL     1      -3.712  -0.560  -0.377  0.00  0.00    +0.012 A 
ATOM     25  C   UNL     1      -3.265  -1.671   0.492  0.00  0.00    +0.017 A 
ATOM     26  C   UNL     1      -3.903  -2.740   1.111  0.00  0.00    +0.014 A 
ATOM     27  C   UNL     1      -3.179  -3.655   1.871  0.00  0.00    +0.076 A 
ATOM     28  C   UNL     1      -4.123  -4.657   2.384  0.00  0.00    +0.341 C 
ATOM     29  O   UNL     1      -3.821  -5.604   3.085  0.00  0.00    -0.245 OA
ATOM     30  O   UNL     1      -5.369  -4.376   1.966  0.00  0.00    -0.456 OA
ATOM     31  C   UNL     1      -5.341  -3.192   1.164  0.00  0.00    +0.269 C 
ENDROOT
BRANCH   4  32
ATOM     32  N   UNL     1      -0.306  -2.701  -1.020  0.00  0.00    +0.381 N 
ATOM     33  C   UNL     1       0.015  -4.134  -0.975  0.00  0.00    -0.100 C 
ATOM     34  H   UNL     1      -0.695  -2.415  -0.133  0.00  0.00    -0.086 HD
ATOM     35  H   UNL     1      -0.979  -2.530  -1.752  0.00  0.00    -0.086 HD
ENDBRANCH   4  32
BRANCH  22  36
ATOM     36  O   UNL     1      -6.249   1.348  -2.117  0.00  0.00    -0.507 OA
ATOM     37  H   UNL     1      -6.473   0.971  -2.979  0.00  0.00    +0.292 HD
ENDBRANCH  22  36
BRANCH  12  38
ATOM     38  O   UNL     1       0.414  -6.933   4.846  0.00  0.00    -0.507 OA
ATOM     39  H   UNL     1       0.286  -6.748   5.787  0.00  0.00    +0.292 HD
ENDBRANCH  12  38
BRANCH   3  40
ATOM     40  O   UNL     1      -0.335  -0.293  -2.551  0.00  0.00    -0.377 OA
ATOM     41  C   UNL     1       0.306  -0.084  -3.811  0.00  0.00    +0.194 C 
ENDBRANCH   3  40
TORSDOF 4
