REMARK  Name = CHEMBL316918
REMARK  5 active torsions:
REMARK  status: ('A' for Active; 'I' for Inactive)
REMARK    1  A    between atoms: C_1  and  N_2
REMARK    2  A    between atoms: C_4  and  C_11
REMARK    3  A    between atoms: C_12  and  C_18
REMARK    4  A    between atoms: C_28  and  C_30
REMARK    5  A    between atoms: C_30  and  N_31
REMARK                            x       y       z     vdW  Elec       q    Type
REMARK                         _______ _______ _______ _____ _____    ______ ____
ROOT
ATOM      1  C   UNL     1       0.039  -3.248  -1.685  0.00  0.00    +0.059 C 
ATOM      2  C   UNL     1       1.116  -3.713  -2.429  0.00  0.00    +0.059 C 
ATOM      3  C   UNL     1       0.619  -4.884  -3.180  0.00  0.00    +0.252 C 
ATOM      4  O   UNL     1       1.273  -5.564  -3.946  0.00  0.00    -0.270 OA
ATOM      5  N   UNL     1      -0.676  -5.072  -2.875  0.00  0.00    -0.248 N 
ATOM      6  C   UNL     1      -1.091  -4.149  -1.992  0.00  0.00    +0.252 C 
ATOM      7  O   UNL     1      -2.210  -4.066  -1.526  0.00  0.00    -0.270 OA
ATOM      8  H   UNL     1      -1.232  -5.779  -3.239  0.00  0.00    +0.158 HD
ENDROOT
BRANCH   2   9
ATOM      9  C   UNL     1       2.477  -3.151  -2.463  0.00  0.00    +0.016 A 
ATOM     10  C   UNL     1       2.975  -2.107  -3.373  0.00  0.00    +0.008 A 
ATOM     11  C   UNL     1       2.400  -1.368  -4.405  0.00  0.00    +0.010 A 
ATOM     12  C   UNL     1       3.159  -0.439  -5.082  0.00  0.00    +0.001 A 
ATOM     13  C   UNL     1       4.489  -0.236  -4.740  0.00  0.00    +0.002 A 
ATOM     14  C   UNL     1       5.069  -0.961  -3.721  0.00  0.00    +0.026 A 
ATOM     15  C   UNL     1       4.319  -1.903  -3.027  0.00  0.00    +0.050 A 
ATOM     16  N   UNL     1       4.622  -2.761  -1.981  0.00  0.00    -0.343 N 
ATOM     17  C   UNL     1       3.524  -3.495  -1.652  0.00  0.00    +0.028 A 
ATOM     18  C   UNL     1       3.853  -4.435  -0.507  0.00  0.00    +0.057 C 
ATOM     19  C   UNL     1       5.397  -4.471  -0.478  0.00  0.00    -0.003 C 
ATOM     20  C   UNL     1       5.763  -3.118  -1.116  0.00  0.00    +0.124 C 
BRANCH  19  21
ATOM     21  C   UNL     1       5.915  -4.561   0.959  0.00  0.00    -0.081 C 
BRANCH  21  22
ATOM     22  N   UNL     1       7.375  -4.714   0.945  0.00  0.00    +0.378 N 
ATOM     23  H   UNL     1       7.793  -3.917   0.487  0.00  0.00    -0.090 HD
ATOM     24  H   UNL     1       7.717  -4.773   1.893  0.00  0.00    -0.090 HD
ATOM     25  H   UNL     1       7.621  -5.555   0.446  0.00  0.00    -0.090 HD
ENDBRANCH  21  22
ENDBRANCH  19  21
ENDBRANCH   2   9
BRANCH   1  29
ATOM     26  C   UNL     1      -0.018   1.461   0.010  0.00  0.00    +0.149 C 
ATOM     27  N   UNL     1       0.002  -0.004   0.002  0.00  0.00    -0.349 N 
ATOM     28  C   UNL     1       0.008  -0.776  -1.119  0.00  0.00    +0.095 A 
ATOM     29  C   UNL     1       0.027  -2.094  -0.770  0.00  0.00    +0.013 A 
ATOM     30  C   UNL     1       0.034  -2.137   0.703  0.00  0.00    +0.008 A 
ATOM     31  C   UNL     1       0.024  -0.798   1.130  0.00  0.00    +0.049 A 
ATOM     32  C   UNL     1       0.032  -0.516   2.492  0.00  0.00    +0.026 A 
ATOM     33  C   UNL     1       0.055  -1.546   3.407  0.00  0.00    +0.002 A 
ATOM     34  C   UNL     1       0.069  -2.868   2.985  0.00  0.00    +0.001 A 
ATOM     35  C   UNL     1       0.051  -3.168   1.640  0.00  0.00    +0.010 A 
ENDBRANCH   1  29
TORSDOF 4
