REMARK  Name = CHEMBL337026
REMARK  5 active torsions:
REMARK  status: ('A' for Active; 'I' for Inactive)
REMARK    1  A    between atoms: C_1  and  C_2
REMARK    2  A    between atoms: C_3  and  O_38
REMARK    3  A    between atoms: C_5  and  N_36
REMARK    4  A    between atoms: N_36  and  C_37
REMARK    5  A    between atoms: O_38  and  C_39
REMARK                            x       y       z     vdW  Elec       q    Type
REMARK                         _______ _______ _______ _____ _____    ______ ____
ROOT
ATOM      1  C   UNL     1       0.228   1.432   0.226  0.00  0.00    +0.069 C 
ATOM      2  C   UNL     1       0.148  -0.094   0.152  0.00  0.00    +0.171 C 
ATOM      3  C   UNL     1      -1.330  -0.467   0.182  0.00  0.00    +0.157 C 
ATOM      4  C   UNL     1      -1.469  -1.976   0.414  0.00  0.00    -0.034 C 
ATOM      5  C   UNL     1      -0.805  -2.314   1.754  0.00  0.00    +0.041 C 
ATOM      6  C   UNL     1       0.665  -1.918   1.704  0.00  0.00    +0.221 C 
ATOM      7  O   UNL     1       0.855  -0.602   1.261  0.00  0.00    -0.328 OA
ATOM      8  N   UNL     1       1.431  -2.881   0.910  0.00  0.00    -0.312 N 
ATOM      9  C   UNL     1       1.952  -4.069   1.361  0.00  0.00    +0.052 A 
ATOM     10  C   UNL     1       1.909  -4.659   2.624  0.00  0.00    +0.026 A 
ATOM     11  C   UNL     1       2.541  -5.882   2.772  0.00  0.00    +0.002 A 
ATOM     12  C   UNL     1       3.192  -6.507   1.723  0.00  0.00    +0.001 A 
ATOM     13  C   UNL     1       3.249  -5.944   0.460  0.00  0.00    +0.010 A 
ATOM     14  C   UNL     1       2.618  -4.710   0.292  0.00  0.00    +0.008 A 
ATOM     15  C   UNL     1       2.481  -3.836  -0.871  0.00  0.00    +0.023 A 
ATOM     16  C   UNL     1       1.748  -2.721  -0.431  0.00  0.00    +0.077 A 
ATOM     17  C   UNL     1       1.454  -1.679  -1.316  0.00  0.00    +0.078 A 
ATOM     18  N   UNL     1       0.744  -0.496  -1.122  0.00  0.00    -0.307 N 
ATOM     19  C   UNL     1       0.713   0.223  -2.293  0.00  0.00    +0.053 A 
ATOM     20  C   UNL     1       0.146   1.463  -2.582  0.00  0.00    +0.026 A 
ATOM     21  C   UNL     1       0.285   1.934  -3.877  0.00  0.00    +0.002 A 
ATOM     22  C   UNL     1       0.953   1.218  -4.855  0.00  0.00    +0.001 A 
ATOM     23  C   UNL     1       1.525  -0.016  -4.594  0.00  0.00    +0.010 A 
ATOM     24  C   UNL     1       1.396  -0.506  -3.293  0.00  0.00    +0.008 A 
ATOM     25  C   UNL     1       1.887  -1.742  -2.652  0.00  0.00    +0.023 A 
ATOM     26  C   UNL     1       2.607  -2.860  -3.096  0.00  0.00    +0.060 A 
ATOM     27  C   UNL     1       2.904  -3.907  -2.205  0.00  0.00    +0.060 A 
ATOM     28  C   UNL     1       3.656  -4.904  -2.989  0.00  0.00    +0.252 C 
ATOM     29  O   UNL     1       4.090  -5.957  -2.566  0.00  0.00    -0.270 OA
ATOM     30  N   UNL     1       3.781  -4.453  -4.250  0.00  0.00    -0.248 N 
ATOM     31  C   UNL     1       3.190  -3.253  -4.391  0.00  0.00    +0.252 C 
ATOM     32  O   UNL     1       3.144  -2.602  -5.417  0.00  0.00    -0.270 OA
ATOM     33  H   UNL     1       4.237  -4.929  -4.961  0.00  0.00    +0.158 HD
ENDROOT
BRANCH   4  34
ATOM     34  N   UNL     1      -0.803  -2.709  -0.670  0.00  0.00    +0.381 N 
ATOM     35  C   UNL     1      -1.037  -4.149  -0.504  0.00  0.00    -0.100 C 
ATOM     36  H   UNL     1      -1.176  -2.408  -1.558  0.00  0.00    -0.086 HD
ATOM     37  H   UNL     1       0.189  -2.523  -0.642  0.00  0.00    -0.086 HD
ENDBRANCH   4  34
BRANCH   3  38
ATOM     38  O   UNL     1      -1.934  -0.118  -1.065  0.00  0.00    -0.377 OA
ATOM     39  C   UNL     1      -3.317   0.224  -0.966  0.00  0.00    +0.194 C 
ENDBRANCH   3  38
TORSDOF 2
