REMARK  Name = CHEMBL281448
REMARK  0 active torsions:
REMARK  status: ('A' for Active; 'I' for Inactive)
REMARK                            x       y       z     vdW  Elec       q    Type
REMARK                         _______ _______ _______ _____ _____    ______ ____
ROOT
ATOM      1  C   UNL     1      -0.017   1.382   0.010  0.00  0.00    +0.001 A 
ATOM      2  C   UNL     1       1.149   2.128   0.003  0.00  0.00    +0.002 A 
ATOM      3  C   UNL     1       2.403   1.539  -0.009  0.00  0.00    +0.026 A 
ATOM      4  C   UNL     1       2.443   0.146  -0.014  0.00  0.00    +0.052 A 
ATOM      5  C   UNL     1       1.259  -0.610  -0.012  0.00  0.00    +0.008 A 
ATOM      6  C   UNL     1       0.002  -0.004   0.002  0.00  0.00    +0.010 A 
ATOM      7  C   UNL     1       1.671  -2.015  -0.033  0.00  0.00    +0.015 A 
ATOM      8  C   UNL     1       0.936  -3.195  -0.053  0.00  0.00    -0.008 A 
ATOM      9  C   UNL     1       1.586  -4.418  -0.084  0.00  0.00    +0.052 A 
ATOM     10  C   UNL     1       2.999  -4.446  -0.093  0.00  0.00    +0.022 A 
ATOM     11  C   UNL     1       3.948  -5.556  -0.138  0.00  0.00    +0.008 A 
ATOM     12  C   UNL     1       3.768  -6.940  -0.174  0.00  0.00    +0.010 A 
ATOM     13  C   UNL     1       4.918  -7.712  -0.214  0.00  0.00    +0.001 A 
ATOM     14  C   UNL     1       6.180  -7.143  -0.217  0.00  0.00    +0.002 A 
ATOM     15  C   UNL     1       6.374  -5.772  -0.179  0.00  0.00    +0.026 A 
ATOM     16  C   UNL     1       5.229  -4.977  -0.136  0.00  0.00    +0.052 A 
ATOM     17  N   UNL     1       5.098  -3.601  -0.077  0.00  0.00    -0.318 N 
ATOM     18  C   UNL     1       3.751  -3.263  -0.061  0.00  0.00    +0.077 A 
ATOM     19  C   UNL     1       3.080  -2.027  -0.033  0.00  0.00    +0.076 A 
ATOM     20  N   UNL     1       3.527  -0.717  -0.012  0.00  0.00    -0.318 N 
ATOM     21  C   UNL     1       4.892  -0.221   0.033  0.00  0.00    +0.291 C 
ATOM     22  S   UNL     1       6.016  -1.254   0.963  0.00  0.00    +0.006 S 
ATOM     23  O   UNL     1       5.365  -1.636   2.167  0.00  0.00    -0.171 OA
ATOM     24  O   UNL     1       7.263  -0.578   1.049  0.00  0.00    -0.171 OA
ATOM     25  C   UNL     1       6.257  -2.727  -0.023  0.00  0.00    +0.291 C 
ATOM     26  C   UNL     1       0.574  -5.485  -0.104  0.00  0.00    +0.245 C 
ATOM     27  O   UNL     1       0.819  -6.676  -0.131  0.00  0.00    -0.270 OA
ATOM     28  N   UNL     1      -0.662  -4.955  -0.089  0.00  0.00    -0.307 N 
ATOM     29  C   UNL     1      -0.543  -3.493  -0.055  0.00  0.00    +0.141 C 
ATOM     30  H   UNL     1      -1.493  -5.456  -0.099  0.00  0.00    +0.149 HD
ENDROOT
TORSDOF 0
