REMARK  Name = CHEMBL363058
REMARK  6 active torsions:
REMARK  status: ('A' for Active; 'I' for Inactive)
REMARK    1  A    between atoms: C_1  and  C_2
REMARK    2  A    between atoms: C_2  and  C_3
REMARK    3  A    between atoms: C_2  and  O_4
REMARK    4  A    between atoms: O_4  and  C_5
REMARK    5  A    between atoms: C_12  and  C_20
REMARK    6  A    between atoms: C_21  and  C_27
REMARK                            x       y       z     vdW  Elec       q    Type
REMARK                         _______ _______ _______ _____ _____    ______ ____
ROOT
ATOM      1  C   UNL     1      -1.571  -1.654  -0.579  0.00  0.00    +0.403 C 
ATOM      2  O   UNL     1      -0.647  -2.251  -1.097  0.00  0.00    -0.226 OA
ATOM      3  N   UNL     1      -2.812  -2.179  -0.606  0.00  0.00    -0.261 N 
ATOM      4  C   UNL     1      -3.025  -3.468  -1.257  0.00  0.00    +0.133 C 
ATOM      5  C   UNL     1      -4.401  -3.592  -1.892  0.00  0.00    +0.141 C 
ATOM      6  N   UNL     1      -4.653  -2.450  -2.782  0.00  0.00    -0.344 N 
ATOM      7  C   UNL     1      -4.816  -2.459  -4.131  0.00  0.00    +0.095 A 
ATOM      8  C   UNL     1      -5.157  -1.211  -4.565  0.00  0.00    +0.013 A 
ATOM      9  C   UNL     1      -5.177  -0.340  -3.378  0.00  0.00    +0.008 A 
ATOM     10  C   UNL     1      -4.799  -1.155  -2.303  0.00  0.00    +0.054 A 
ATOM     11  C   UNL     1      -4.599  -0.615  -1.046  0.00  0.00    -0.006 A 
ATOM     12  C   UNL     1      -4.936   0.701  -0.812  0.00  0.00    +0.007 A 
ATOM     13  C   UNL     1      -5.384   1.499  -1.857  0.00  0.00    +0.001 A 
ATOM     14  C   UNL     1      -5.489   0.997  -3.137  0.00  0.00    +0.010 A 
ATOM     15  C   UNL     1      -3.915  -1.441   0.026  0.00  0.00    +0.148 C 
ENDROOT
BRANCH   8  16
ATOM     16  C   UNL     1      -5.449  -0.811  -5.954  0.00  0.00    +0.060 C 
ATOM     17  C   UNL     1      -6.612  -1.081  -6.678  0.00  0.00    +0.075 C 
ATOM     18  C   UNL     1      -6.411  -0.471  -8.011  0.00  0.00    +0.253 C 
ATOM     19  O   UNL     1      -7.207  -0.492  -8.928  0.00  0.00    -0.270 OA
ATOM     20  N   UNL     1      -5.200   0.112  -8.035  0.00  0.00    -0.248 N 
ATOM     21  C   UNL     1      -4.576  -0.042  -6.855  0.00  0.00    +0.252 C 
ATOM     22  O   UNL     1      -3.471   0.382  -6.578  0.00  0.00    -0.270 OA
ATOM     23  H   UNL     1      -4.829   0.582  -8.798  0.00  0.00    +0.158 HD
BRANCH  17  24
ATOM     24  C   UNL     1      -7.787  -1.818  -6.214  0.00  0.00    +0.079 A 
ATOM     25  C   UNL     1      -8.545  -1.546  -5.083  0.00  0.00    +0.140 A 
ATOM     26  N   UNL     1      -9.520  -2.440  -5.015  0.00  0.00    -0.235 NA
ATOM     27  C   UNL     1      -9.435  -3.280  -6.044  0.00  0.00    +0.138 A 
ATOM     28  N   UNL     1      -8.365  -2.916  -6.818  0.00  0.00    -0.299 N 
ATOM     29  C   UNL     1      -8.056  -3.614  -7.946  0.00  0.00    +0.093 A 
ATOM     30  C   UNL     1      -8.802  -4.677  -8.324  0.00  0.00    +0.018 A 
ATOM     31  C   UNL     1      -9.906  -5.072  -7.555  0.00  0.00    +0.005 A 
ATOM     32  C   UNL     1     -10.218  -4.385  -6.420  0.00  0.00    +0.047 A 
ENDBRANCH  17  24
ENDBRANCH   8  16
BRANCH   1  33
ATOM     33  O   UNL     1      -1.354  -0.469   0.021  0.00  0.00    -0.448 OA
BRANCH  33  35
ATOM     34  C   UNL     1      -0.037   1.558   0.016  0.00  0.00    +0.052 C 
ATOM     35  C   UNL     1      -0.014   0.028   0.013  0.00  0.00    +0.172 C 
ATOM     36  C   UNL     1       0.724  -0.474   1.255  0.00  0.00    +0.052 C 
ENDBRANCH  33  35
ENDBRANCH   1  33
TORSDOF 4
