REMARK  Name = CHEMBL131193
REMARK  7 active torsions:
REMARK  status: ('A' for Active; 'I' for Inactive)
REMARK    1  A    between atoms: C_1  and  C_2
REMARK    2  A    between atoms: C_3  and  O_44
REMARK    3  A    between atoms: C_5  and  N_35
REMARK    4  A    between atoms: N_35  and  C_36
REMARK    5  A    between atoms: N_35  and  C_37
REMARK    6  A    between atoms: C_37  and  C_38
REMARK    7  A    between atoms: O_44  and  C_45
REMARK                            x       y       z     vdW  Elec       q    Type
REMARK                         _______ _______ _______ _____ _____    ______ ____
ROOT
ATOM      1  C   UNL     1      -2.284   1.425  -1.104  0.00  0.00    +0.069 C 
ATOM      2  C   UNL     1      -1.658   0.072  -0.756  0.00  0.00    +0.171 C 
ATOM      3  C   UNL     1      -2.769  -0.967  -0.831  0.00  0.00    +0.157 C 
ATOM      4  C   UNL     1      -2.283  -2.279  -0.204  0.00  0.00    -0.030 C 
ATOM      5  C   UNL     1      -1.910  -1.998   1.257  0.00  0.00    +0.042 C 
ATOM      6  C   UNL     1      -0.809  -0.946   1.305  0.00  0.00    +0.221 C 
ATOM      7  O   UNL     1      -1.112   0.189   0.538  0.00  0.00    -0.328 OA
ATOM      8  N   UNL     1       0.479  -1.531   0.932  0.00  0.00    -0.312 N 
ATOM      9  C   UNL     1       1.337  -2.207   1.763  0.00  0.00    +0.052 A 
ATOM     10  C   UNL     1       1.238  -2.510   3.121  0.00  0.00    +0.026 A 
ATOM     11  C   UNL     1       2.285  -3.216   3.688  0.00  0.00    +0.002 A 
ATOM     12  C   UNL     1       3.390  -3.613   2.955  0.00  0.00    +0.001 A 
ATOM     13  C   UNL     1       3.513  -3.326   1.606  0.00  0.00    +0.010 A 
ATOM     14  C   UNL     1       2.467  -2.613   1.016  0.00  0.00    +0.008 A 
ATOM     15  C   UNL     1       2.259  -2.139  -0.349  0.00  0.00    +0.022 A 
ATOM     16  C   UNL     1       1.029  -1.478  -0.346  0.00  0.00    +0.077 A 
ATOM     17  C   UNL     1       0.543  -0.894  -1.521  0.00  0.00    +0.077 A 
ATOM     18  N   UNL     1      -0.639  -0.203  -1.770  0.00  0.00    -0.307 N 
ATOM     19  C   UNL     1      -0.681   0.181  -3.089  0.00  0.00    +0.053 A 
ATOM     20  C   UNL     1      -1.644   0.903  -3.793  0.00  0.00    +0.026 A 
ATOM     21  C   UNL     1      -1.399   1.139  -5.136  0.00  0.00    +0.002 A 
ATOM     22  C   UNL     1      -0.254   0.685  -5.767  0.00  0.00    +0.001 A 
ATOM     23  C   UNL     1       0.717  -0.034  -5.089  0.00  0.00    +0.010 A 
ATOM     24  C   UNL     1       0.487  -0.280  -3.736  0.00  0.00    +0.008 A 
ATOM     25  C   UNL     1       1.292  -0.975  -2.706  0.00  0.00    +0.015 A 
ATOM     26  C   UNL     1       2.512  -1.642  -2.710  0.00  0.00    -0.008 A 
ATOM     27  C   UNL     1       3.006  -2.226  -1.548  0.00  0.00    +0.052 A 
ATOM     28  C   UNL     1       4.300  -2.854  -1.857  0.00  0.00    +0.245 C 
ATOM     29  O   UNL     1       4.990  -3.452  -1.054  0.00  0.00    -0.270 OA
ATOM     30  N   UNL     1       4.610  -2.674  -3.152  0.00  0.00    -0.307 N 
ATOM     31  C   UNL     1       3.533  -1.908  -3.789  0.00  0.00    +0.141 C 
ATOM     32  H   UNL     1       5.412  -2.996  -3.592  0.00  0.00    +0.149 HD
ENDROOT
BRANCH   4  33
ATOM     33  N   UNL     1      -1.105  -2.770  -0.932  0.00  0.00    +0.384 N 
ATOM     34  C   UNL     1      -1.372  -2.733  -2.376  0.00  0.00    -0.095 C 
ATOM     35  H   UNL     1      -0.311  -2.184  -0.721  0.00  0.00    -0.081 HD
BRANCH  33  36
ATOM     36  C   UNL     1      -0.817  -4.151  -0.521  0.00  0.00    -0.043 C 
BRANCH  36  37
ATOM     37  C   UNL     1       0.277  -4.715  -1.391  0.00  0.00    -0.064 A 
ATOM     38  C   UNL     1       0.013  -5.045  -2.707  0.00  0.00    +0.002 A 
ATOM     39  C   UNL     1       1.017  -5.562  -3.505  0.00  0.00    +0.000 A 
ATOM     40  C   UNL     1       2.284  -5.750  -2.986  0.00  0.00    +0.000 A 
ATOM     41  C   UNL     1       2.549  -5.419  -1.670  0.00  0.00    +0.000 A 
ATOM     42  C   UNL     1       1.546  -4.897  -0.874  0.00  0.00    +0.002 A 
ENDBRANCH  36  37
ENDBRANCH  33  36
ENDBRANCH   4  33
BRANCH   3  43
ATOM     43  O   UNL     1      -3.119  -1.194  -2.198  0.00  0.00    -0.377 OA
ATOM     44  C   UNL     1      -4.505  -1.471  -2.405  0.00  0.00    +0.194 C 
ENDBRANCH   3  43
TORSDOF 4
