REMARK  Name = CHEMBL345593
REMARK  6 active torsions:
REMARK  status: ('A' for Active; 'I' for Inactive)
REMARK    1  A    between atoms: C_1  and  N_2
REMARK    2  A    between atoms: C_15  and  O_24
REMARK    3  A    between atoms: N_19  and  C_20
REMARK    4  A    between atoms: C_20  and  C_21
REMARK    5  A    between atoms: C_21  and  C_22
REMARK    6  A    between atoms: O_24  and  C_25
REMARK                            x       y       z     vdW  Elec       q    Type
REMARK                         _______ _______ _______ _____ _____    ______ ____
ROOT
ATOM      1  C   UNL     1      -0.282   1.469   0.047  0.00  0.00    +0.149 C 
ATOM      2  N   UNL     1      -0.333   0.005   0.046  0.00  0.00    -0.341 N 
ATOM      3  C   UNL     1      -0.572  -0.776  -1.069  0.00  0.00    +0.050 A 
ATOM      4  C   UNL     1      -0.814  -0.457  -2.402  0.00  0.00    +0.026 A 
ATOM      5  C   UNL     1      -1.024  -1.460  -3.324  0.00  0.00    +0.002 A 
ATOM      6  C   UNL     1      -0.996  -2.792  -2.937  0.00  0.00    +0.001 A 
ATOM      7  C   UNL     1      -0.758  -3.128  -1.623  0.00  0.00    +0.010 A 
ATOM      8  C   UNL     1      -0.544  -2.124  -0.679  0.00  0.00    +0.008 A 
ATOM      9  C   UNL     1      -0.269  -2.135   0.767  0.00  0.00    +0.022 A 
ATOM     10  C   UNL     1      -0.144  -0.792   1.158  0.00  0.00    +0.075 A 
ATOM     11  C   UNL     1       0.128  -0.476   2.495  0.00  0.00    +0.075 A 
ATOM     12  C   UNL     1       0.276  -1.504   3.441  0.00  0.00    +0.023 A 
ATOM     13  C   UNL     1       0.551  -0.848   4.731  0.00  0.00    +0.012 A 
ATOM     14  C   UNL     1       0.786  -1.329   6.019  0.00  0.00    +0.056 A 
ATOM     15  C   UNL     1       1.019  -0.438   7.050  0.00  0.00    +0.121 A 
ATOM     16  C   UNL     1       1.018   0.931   6.804  0.00  0.00    +0.047 A 
ATOM     17  C   UNL     1       0.786   1.415   5.535  0.00  0.00    +0.030 A 
ATOM     18  C   UNL     1       0.551   0.533   4.484  0.00  0.00    +0.050 A 
ATOM     19  N   UNL     1       0.295   0.735   3.138  0.00  0.00    -0.337 N 
ATOM     20  C   UNL     1       0.154  -2.844   3.052  0.00  0.00    +0.060 A 
ATOM     21  C   UNL     1      -0.126  -3.160   1.710  0.00  0.00    +0.060 A 
ATOM     22  C   UNL     1      -0.189  -4.631   1.646  0.00  0.00    +0.252 C 
ATOM     23  O   UNL     1      -0.401  -5.289   0.647  0.00  0.00    -0.270 OA
ATOM     24  N   UNL     1       0.028  -5.124   2.879  0.00  0.00    -0.248 N 
ATOM     25  C   UNL     1       0.248  -4.132   3.761  0.00  0.00    +0.252 C 
ATOM     26  O   UNL     1       0.475  -4.275   4.946  0.00  0.00    -0.270 OA
ATOM     27  H   UNL     1       0.038  -6.069   3.100  0.00  0.00    +0.158 HD
ENDROOT
BRANCH  15  28
ATOM     28  O   UNL     1       1.249  -0.901   8.307  0.00  0.00    -0.495 OA
ATOM     29  C   UNL     1       1.482   0.074   9.326  0.00  0.00    +0.277 C 
ENDBRANCH  15  28
BRANCH  19  30
ATOM     30  C   UNL     1       0.214   2.045   2.489  0.00  0.00    +0.137 C 
BRANCH  30  31
ATOM     31  C   UNL     1      -1.234   2.538   2.512  0.00  0.00    +0.140 C 
BRANCH  31  32
ATOM     32  C   UNL     1      -1.338   3.794   1.753  0.00  0.00    +0.064 C 
ATOM     33  N   UNL     1      -1.418   4.764   1.167  0.00  0.00    -0.197 NA
ENDBRANCH  31  32
ENDBRANCH  30  31
ENDBRANCH  19  30
TORSDOF 4
