REMARK  Name = CHEMBL263910
REMARK  12 active torsions:
REMARK  status: ('A' for Active; 'I' for Inactive)
REMARK    1  A    between atoms: C_3  and  C_43
REMARK    2  A    between atoms: C_4  and  C_8
REMARK    3  A    between atoms: C_5  and  O_7
REMARK    4  A    between atoms: C_8  and  C_10
REMARK    5  A    between atoms: C_11  and  O_42
REMARK    6  A    between atoms: C_13  and  C_17
REMARK    7  A    between atoms: C_15  and  O_16
REMARK    8  A    between atoms: C_17  and  O_19
REMARK    9  A    between atoms: O_19  and  C_20
REMARK   10  A    between atoms: C_22  and  N_32
REMARK   11  A    between atoms: C_33  and  C_35
REMARK   12  A    between atoms: C_38  and  O_41
REMARK                            x       y       z     vdW  Elec       q    Type
REMARK                         _______ _______ _______ _____ _____    ______ ____
ROOT
ATOM      1  C   UNL     1       3.568  -6.429   0.786  0.00  0.00    +0.340 C 
ATOM      2  O   UNL     1       2.506  -7.016   0.754  0.00  0.00    -0.245 OA
ENDROOT
BRANCH   1   6
ATOM      3  C   UNL     1       3.661  -2.174   0.539  0.00  0.00    +0.105 A 
ATOM      4  C   UNL     1       2.434  -2.855   0.502  0.00  0.00    +0.132 A 
ATOM      5  C   UNL     1       2.409  -4.236   0.583  0.00  0.00    +0.061 A 
ATOM      6  C   UNL     1       3.600  -4.952   0.700  0.00  0.00    +0.066 A 
ATOM      7  C   UNL     1       4.822  -4.280   0.737  0.00  0.00    +0.061 A 
ATOM      8  C   UNL     1       4.857  -2.899   0.650  0.00  0.00    +0.132 A 
BRANCH   3   9
ATOM      9  C   UNL     1       3.693  -0.704   0.454  0.00  0.00    +0.204 C 
ATOM     10  O   UNL     1       4.746  -0.110   0.585  0.00  0.00    -0.286 OA
BRANCH   9  14
ATOM     11  C   UNL     1       0.096   1.467  -0.251  0.00  0.00    +0.004 A 
ATOM     12  C   UNL     1       0.815   0.970  -1.325  0.00  0.00    +0.016 A 
ATOM     13  C   UNL     1       1.991   0.259  -1.109  0.00  0.00    +0.077 A 
ATOM     14  C   UNL     1       2.447   0.049   0.209  0.00  0.00    +0.078 A 
ATOM     15  C   UNL     1       1.709   0.558   1.282  0.00  0.00    +0.128 A 
ATOM     16  C   UNL     1       0.536   1.265   1.041  0.00  0.00    +0.046 A 
BRANCH  13  17
ATOM     17  C   UNL     1       2.758  -0.272  -2.253  0.00  0.00    +0.387 C 
ATOM     18  O   UNL     1       2.310  -0.175  -3.387  0.00  0.00    -0.241 OA
ATOM     19  O   UNL     1       3.841  -0.809  -2.067  0.00  0.00    -0.241 OA
ENDBRANCH  13  17
BRANCH  15  20
ATOM     20  O   UNL     1       2.136   0.362   2.554  0.00  0.00    -0.506 OA
ATOM     21  H   UNL     1       2.659   1.094   2.910  0.00  0.00    +0.292 HD
ENDBRANCH  15  20
ENDBRANCH   9  14
ENDBRANCH   3   9
BRANCH   8  22
ATOM     22  O   UNL     1       6.046  -2.246   0.680  0.00  0.00    -0.506 OA
ATOM     23  H   UNL     1       6.340  -2.005   1.569  0.00  0.00    +0.292 HD
ENDBRANCH   8  22
BRANCH   4  24
ATOM     24  O   UNL     1       1.275  -2.159   0.389  0.00  0.00    -0.506 OA
ATOM     25  H   UNL     1       0.952  -2.078  -0.519  0.00  0.00    +0.292 HD
ENDBRANCH   4  24
ENDBRANCH   1   6
BRANCH   1  26
ATOM     26  O   UNL     1       4.717  -7.122   0.899  0.00  0.00    -0.456 OA
BRANCH  26  27
ATOM     27  C   UNL     1       4.612  -8.545   0.977  0.00  0.00    +0.200 C 
ATOM     28  C   UNL     1       4.763  -9.187  -0.427  0.00  0.00    +0.117 C 
ATOM     29  C   UNL     1       6.149  -9.888  -0.446  0.00  0.00    +0.017 C 
ATOM     30  C   UNL     1       6.901  -8.972   0.621  0.00  0.00    +0.013 C 
ATOM     31  C   UNL     1       5.831  -9.154   1.770  0.00  0.00    +0.035 C 
ATOM     32  C   UNL     1       5.447 -10.638   1.722  0.00  0.00    -0.001 C 
ATOM     33  C   UNL     1       6.169 -11.105   0.398  0.00  0.00    -0.003 C 
ATOM     34  C   UNL     1       5.817 -12.534   0.339  0.00  0.00    +0.004 C 
ATOM     35  C   UNL     1       6.104 -12.971   1.820  0.00  0.00    +0.001 C 
ATOM     36  C   UNL     1       6.000 -11.668   2.683  0.00  0.00    +0.004 C 
BRANCH  28  37
ATOM     37  N   UNL     1       3.699 -10.169  -0.647  0.00  0.00    -0.305 N 
ATOM     38  C   UNL     1       2.508  -9.773  -1.137  0.00  0.00    +0.244 C 
ATOM     39  O   UNL     1       2.316  -8.601  -1.396  0.00  0.00    -0.270 OA
ATOM     40  H   UNL     1       3.852 -11.104  -0.441  0.00  0.00    +0.149 HD
BRANCH  38  41
ATOM     41  C   UNL     1       1.435 -10.763  -1.360  0.00  0.00    +0.037 A 
ATOM     42  C   UNL     1       1.652 -12.110  -1.057  0.00  0.00    +0.016 A 
ATOM     43  C   UNL     1       0.649 -13.030  -1.266  0.00  0.00    +0.046 A 
ATOM     44  C   UNL     1      -0.577 -12.621  -1.776  0.00  0.00    +0.117 A 
ATOM     45  C   UNL     1      -0.796 -11.282  -2.078  0.00  0.00    +0.046 A 
ATOM     46  C   UNL     1       0.199 -10.355  -1.867  0.00  0.00    +0.016 A 
BRANCH  44  47
ATOM     47  O   UNL     1      -1.563 -13.531  -1.981  0.00  0.00    -0.507 OA
ATOM     48  H   UNL     1      -2.145 -13.658  -1.220  0.00  0.00    +0.292 HD
ENDBRANCH  44  47
ENDBRANCH  38  41
ENDBRANCH  28  37
ENDBRANCH  26  27
ENDBRANCH   1  26
TORSDOF 12
