REMARK  Name = CHEMBL265315
REMARK  11 active torsions:
REMARK  status: ('A' for Active; 'I' for Inactive)
REMARK    1  A    between atoms: C_4  and  C_7
REMARK    2  A    between atoms: C_7  and  C_8
REMARK    3  A    between atoms: C_8  and  C_10
REMARK    4  A    between atoms: C_8  and  N_32
REMARK    5  A    between atoms: C_16  and  C_18
REMARK    6  A    between atoms: N_20  and  C_21
REMARK    7  A    between atoms: C_21  and  C_23
REMARK    8  A    between atoms: C_21  and  C_30
REMARK    9  A    between atoms: C_23  and  C_24
REMARK   10  A    between atoms: C_24  and  C_25
REMARK   11  A    between atoms: C_25  and  N_26
REMARK                            x       y       z     vdW  Elec       q    Type
REMARK                         _______ _______ _______ _____ _____    ______ ____
ROOT
ATOM      1  C   UNL     1       8.364  -1.978   2.469  0.00  0.00    +0.234 C 
ATOM      2  O   UNL     1       7.531  -2.064   3.346  0.00  0.00    -0.274 OA
ATOM      3  N   UNL     1       9.595  -2.494   2.656  0.00  0.00    -0.310 N 
ATOM      4  H   UNL     1      10.261  -2.425   1.954  0.00  0.00    +0.149 HD
ENDROOT
BRANCH   1  11
ATOM      5  C   UNL     1       5.543  -1.588   1.383  0.00  0.00    +0.233 C 
ATOM      6  O   UNL     1       5.665  -2.786   1.529  0.00  0.00    -0.274 OA
ATOM      7  N   UNL     1       6.633  -0.816   1.207  0.00  0.00    -0.289 N 
ATOM      8  C   UNL     1       6.630   0.647   1.026  0.00  0.00    +0.108 C 
ATOM      9  C   UNL     1       8.036   1.106   1.485  0.00  0.00    +0.021 C 
ATOM     10  C   UNL     1       8.927  -0.057   0.974  0.00  0.00    +0.033 C 
ATOM     11  C   UNL     1       8.024  -1.293   1.171  0.00  0.00    +0.162 C 
BRANCH   5  12
ATOM     12  C   UNL     1       4.171  -0.963   1.399  0.00  0.00    +0.142 C 
BRANCH  12  13
ATOM     13  N   UNL     1       3.226  -1.872   2.061  0.00  0.00    -0.320 NA
ATOM     14  H   UNL     1       3.174  -2.755   1.576  0.00  0.00    +0.119 HD
ATOM     15  H   UNL     1       3.472  -2.006   3.030  0.00  0.00    +0.119 HD
ENDBRANCH  12  13
BRANCH  12  16
ATOM     16  C   UNL     1       3.711  -0.707  -0.038  0.00  0.00    +0.063 C 
BRANCH  16  20
ATOM     17  C   UNL     1      -0.017   1.378   0.010  0.00  0.00    +0.000 A 
ATOM     18  C   UNL     1       1.171   2.086   0.002  0.00  0.00    +0.000 A 
ATOM     19  C   UNL     1       2.377   1.411  -0.013  0.00  0.00    +0.004 A 
ATOM     20  C   UNL     1       2.396   0.029  -0.020  0.00  0.00    -0.045 A 
ATOM     21  C   UNL     1       1.208  -0.679  -0.012  0.00  0.00    +0.004 A 
ATOM     22  C   UNL     1       0.002  -0.004   0.002  0.00  0.00    +0.000 A 
ENDBRANCH  16  20
ENDBRANCH  12  16
ENDBRANCH   5  12
ENDBRANCH   1  11
BRANCH   3  23
ATOM     23  C   UNL     1       9.927  -3.160   3.918  0.00  0.00    +0.088 C 
BRANCH  23  24
ATOM     24  C   UNL     1      10.370  -2.116   4.944  0.00  0.00    +0.131 C 
ATOM     25 CL   UNL     1       9.032  -0.939   5.219  0.00  0.00    -0.124 Cl
ENDBRANCH  23  24
BRANCH  23  26
ATOM     26  C   UNL     1      11.062  -4.160   3.684  0.00  0.00    +0.025 C 
BRANCH  26  27
ATOM     27  C   UNL     1      10.577  -5.274   2.754  0.00  0.00    +0.023 C 
BRANCH  27  28
ATOM     28  C   UNL     1      11.712  -6.273   2.521  0.00  0.00    +0.115 C 
BRANCH  28  29
ATOM     29  N   UNL     1      11.248  -7.339   1.630  0.00  0.00    -0.358 N 
ATOM     30  C   UNL     1      12.056  -8.305   1.294  0.00  0.00    +0.166 C 
ATOM     31  N   UNL     1      13.344  -8.323   1.775  0.00  0.00    -0.372 N 
ATOM     32  N   UNL     1      11.621  -9.306   0.458  0.00  0.00    -0.372 N 
ATOM     33  H   UNL     1      13.651  -7.617   2.365  0.00  0.00    +0.159 HD
ATOM     34  H   UNL     1      13.945  -9.042   1.525  0.00  0.00    +0.159 HD
ATOM     35  H   UNL     1      10.712  -9.294   0.118  0.00  0.00    +0.159 HD
ATOM     36  H   UNL     1      12.222 -10.025   0.208  0.00  0.00    +0.159 HD
ATOM     37  H   UNL     1      10.340  -7.327   1.290  0.00  0.00    +0.162 HD
ENDBRANCH  28  29
ENDBRANCH  27  28
ENDBRANCH  26  27
ENDBRANCH  23  26
ENDBRANCH   3  23
TORSDOF 11
