REMARK  Name = CHEMBL143453
REMARK  9 active torsions:
REMARK  status: ('A' for Active; 'I' for Inactive)
REMARK    1  A    between atoms: CG1_1  and  CB_2
REMARK    2  A    between atoms: CB_2  and  CG2_3
REMARK    3  A    between atoms: CB_2  and  CA_4
REMARK    4  A    between atoms: CA_9  and  C_31
REMARK    5  A    between atoms: C_22  and  C_28
REMARK    6  A    between atoms: C_22  and  C_29
REMARK    7  A    between atoms: C_25  and  C_26
REMARK    8  A    between atoms: C_25  and  C_27
REMARK    9  A    between atoms: C_31  and  O_32
REMARK                            x       y       z     vdW  Elec       q    Type
REMARK                         _______ _______ _______ _____ _____    ______ ____
ROOT
ATOM      1  CA  UNL     1      -1.244   0.685  -0.245  0.00  0.00    +0.159 C 
ATOM      2  C   UNL     1      -2.284   1.166  -1.219  0.00  0.00    +0.234 C 
ATOM      3  O   UNL     1      -1.953   1.558  -2.318  0.00  0.00    -0.274 OA
ATOM      4  N   UNL     1      -3.565   1.161  -0.873  0.00  0.00    -0.308 N 
ATOM      5  CA  UNL     1      -4.166   0.686   0.378  0.00  0.00    +0.103 C 
ATOM      6  C   UNL     1      -4.117  -0.864   0.381  0.00  0.00    +0.061 C 
ATOM      7  C   UNL     1      -3.257  -1.310   1.558  0.00  0.00    -0.019 A 
ATOM      8  C   UNL     1      -3.703  -1.478   2.812  0.00  0.00    +0.087 A 
ATOM      9  N   UNL     1      -2.690  -1.955   3.603  0.00  0.00    -0.360 N 
ATOM     10  H   UNL     1      -2.764  -2.138   4.553  0.00  0.00    +0.165 HD
ATOM     11  C   UNL     1      -1.554  -2.135   2.848  0.00  0.00    +0.049 A 
ATOM     12  C   UNL     1      -1.839  -1.656   1.556  0.00  0.00    +0.024 A 
ATOM     13  C   UNL     1      -0.798  -1.561   0.628  0.00  0.00    +0.041 A 
ATOM     14  C   UNL     1       0.422  -2.173   0.871  0.00  0.00    -0.016 A 
ATOM     15  C   UNL     1       0.666  -2.734   2.113  0.00  0.00    -0.034 A 
ATOM     16  C   UNL     1      -0.306  -2.690   3.099  0.00  0.00    +0.030 A 
ATOM     17  C   UNL     1       1.975  -3.397   2.457  0.00  0.00    -0.009 C 
ATOM     18  C   UNL     1       2.770  -3.708   1.191  0.00  0.00    +0.012 C 
ATOM     19  C   UNL     1       2.846  -2.433   0.343  0.00  0.00    +0.012 C 
ATOM     20  C   UNL     1       1.456  -2.149  -0.223  0.00  0.00    -0.008 C 
ATOM     21  C   UNL     1       1.109  -3.212  -1.267  0.00  0.00    +0.016 C 
ATOM     22  C   UNL     1       1.454  -0.771  -0.888  0.00  0.00    +0.016 C 
ATOM     23  C   UNL     1       1.697  -4.700   3.210  0.00  0.00    +0.016 C 
ATOM     24  C   UNL     1       2.794  -2.464   3.350  0.00  0.00    +0.016 C 
ATOM     25  N   UNL     1      -0.973  -0.735  -0.476  0.00  0.00    -0.332 N 
ATOM     26  H   UNL     1      -4.183   1.516  -1.531  0.00  0.00    +0.149 HD
ATOM     27  H   UNL     1      -0.917  -1.090  -1.377  0.00  0.00    +0.147 HD
ENDROOT
BRANCH   1  29
ATOM     28  CG1 UNL     1       0.467   1.428  -1.906  0.00  0.00    +0.009 C 
ATOM     29  CB  UNL     1       0.044   1.487  -0.437  0.00  0.00    +0.012 C 
ATOM     30  CG2 UNL     1      -0.198   2.943  -0.035  0.00  0.00    +0.009 C 
ENDBRANCH   1  29
BRANCH   5  31
ATOM     31  C   UNL     1      -3.377   1.231   1.570  0.00  0.00    +0.178 C 
BRANCH  31  32
ATOM     32  O   UNL     1      -2.955   2.567   1.291  0.00  0.00    -0.393 OA
ATOM     33  H   UNL     1      -2.447   2.976   2.005  0.00  0.00    +0.209 HD
ENDBRANCH  31  32
ENDBRANCH   5  31
TORSDOF 3
