REMARK  Name = CHEMBL60455
REMARK  12 active torsions:
REMARK  status: ('A' for Active; 'I' for Inactive)
REMARK    1  A    between atoms: C_3  and  C_39
REMARK    2  A    between atoms: C_4  and  C_8
REMARK    3  A    between atoms: C_5  and  O_7
REMARK    4  A    between atoms: C_8  and  C_10
REMARK    5  A    between atoms: C_11  and  O_38
REMARK    6  A    between atoms: C_13  and  C_17
REMARK    7  A    between atoms: C_17  and  O_19
REMARK    8  A    between atoms: O_19  and  C_20
REMARK    9  A    between atoms: C_20  and  C_21
REMARK   10  A    between atoms: C_26  and  N_28
REMARK   11  A    between atoms: C_29  and  C_31
REMARK   12  A    between atoms: C_34  and  O_37
REMARK                            x       y       z     vdW  Elec       q    Type
REMARK                         _______ _______ _______ _____ _____    ______ ____
ROOT
ATOM      1  C   UNL     1       3.670  -2.144   0.500  0.00  0.00    +0.110 A 
ATOM      2  C   UNL     1       4.856  -2.888   0.597  0.00  0.00    +0.132 A 
ATOM      3  C   UNL     1       4.801  -4.266   0.695  0.00  0.00    +0.061 A 
ATOM      4  C   UNL     1       3.567  -4.918   0.698  0.00  0.00    +0.066 A 
ATOM      5  C   UNL     1       2.385  -4.184   0.602  0.00  0.00    +0.066 A 
ATOM      6  C   UNL     1       2.432  -2.804   0.510  0.00  0.00    +0.194 A 
ATOM      7  O   UNL     1       1.281  -2.090   0.423  0.00  0.00    -0.287 OA
ENDROOT
BRANCH   1   8
ATOM      8  C   UNL     1       3.724  -0.675   0.396  0.00  0.00    +0.205 C 
ATOM      9  O   UNL     1       4.791  -0.098   0.491  0.00  0.00    -0.286 OA
BRANCH   8  13
ATOM     10  C   UNL     1       0.147   1.548  -0.239  0.00  0.00    +0.004 A 
ATOM     11  C   UNL     1       0.825   1.021  -1.325  0.00  0.00    +0.016 A 
ATOM     12  C   UNL     1       1.994   0.293  -1.132  0.00  0.00    +0.077 A 
ATOM     13  C   UNL     1       2.485   0.095   0.175  0.00  0.00    +0.078 A 
ATOM     14  C   UNL     1       1.788   0.634   1.261  0.00  0.00    +0.128 A 
ATOM     15  C   UNL     1       0.622   1.359   1.044  0.00  0.00    +0.046 A 
BRANCH  12  16
ATOM     16  C   UNL     1       2.717  -0.270  -2.289  0.00  0.00    +0.387 C 
ATOM     17  O   UNL     1       2.238  -0.184  -3.411  0.00  0.00    -0.241 OA
ATOM     18  O   UNL     1       3.796  -0.823  -2.127  0.00  0.00    -0.241 OA
ENDBRANCH  12  16
BRANCH  14  19
ATOM     19  O   UNL     1       2.249   0.451   2.523  0.00  0.00    -0.506 OA
ATOM     20  H   UNL     1       2.795   1.178   2.852  0.00  0.00    +0.292 HD
ENDBRANCH  14  19
ENDBRANCH   8  13
ENDBRANCH   1   8
BRANCH   4  21
ATOM     21  C   UNL     1       3.512  -6.393   0.802  0.00  0.00    +0.339 C 
ATOM     22  O   UNL     1       4.540  -7.035   0.886  0.00  0.00    -0.245 OA
BRANCH  21  23
ATOM     23  O   UNL     1       2.323  -7.025   0.805  0.00  0.00    -0.461 OA
BRANCH  23  24
ATOM     24  C   UNL     1       2.345  -8.450   0.909  0.00  0.00    +0.237 C 
BRANCH  24  25
ATOM     25  C   UNL     1       0.911  -8.984   0.896  0.00  0.00    +0.047 C 
ATOM     26  C   UNL     1       0.172  -8.546   2.177  0.00  0.00    +0.009 C 
ATOM     27  C   UNL     1      -0.718  -9.761   2.537  0.00  0.00    +0.002 C 
ATOM     28  C   UNL     1       0.189 -10.966   2.183  0.00  0.00    +0.023 C 
ATOM     29  C   UNL     1       0.922 -10.523   0.898  0.00  0.00    +0.080 C 
BRANCH  29  30
ATOM     30  N   UNL     1       0.220 -11.032  -0.282  0.00  0.00    -0.308 N 
ATOM     31  C   UNL     1       0.513 -12.255  -0.765  0.00  0.00    +0.244 C 
ATOM     32  O   UNL     1       1.361 -12.937  -0.222  0.00  0.00    -0.270 OA
ATOM     33  H   UNL     1      -0.457 -10.488  -0.716  0.00  0.00    +0.149 HD
BRANCH  31  34
ATOM     34  C   UNL     1      -0.195 -12.768  -1.955  0.00  0.00    +0.037 A 
ATOM     35  C   UNL     1      -1.165 -11.984  -2.585  0.00  0.00    +0.016 A 
ATOM     36  C   UNL     1      -1.823 -12.466  -3.694  0.00  0.00    +0.046 A 
ATOM     37  C   UNL     1      -1.523 -13.730  -4.188  0.00  0.00    +0.117 A 
ATOM     38  C   UNL     1      -0.559 -14.513  -3.564  0.00  0.00    +0.046 A 
ATOM     39  C   UNL     1       0.108 -14.036  -2.458  0.00  0.00    +0.016 A 
BRANCH  37  40
ATOM     40  O   UNL     1      -2.174 -14.202  -5.281  0.00  0.00    -0.507 OA
ATOM     41  H   UNL     1      -1.742 -13.988  -6.119  0.00  0.00    +0.292 HD
ENDBRANCH  37  40
ENDBRANCH  31  34
ENDBRANCH  29  30
ENDBRANCH  24  25
ENDBRANCH  23  24
ENDBRANCH  21  23
ENDBRANCH   4  21
BRANCH   2  42
ATOM     42  O   UNL     1       6.056  -2.255   0.594  0.00  0.00    -0.506 OA
ATOM     43  H   UNL     1       6.373  -2.007   1.473  0.00  0.00    +0.292 HD
ENDBRANCH   2  42
TORSDOF 12
