REMARK  Name = CHEMBL368895
REMARK  9 active torsions:
REMARK  status: ('A' for Active; 'I' for Inactive)
REMARK    1  A    between atoms: C_1  and  N_2
REMARK    2  A    between atoms: N_2  and  C_3
REMARK    3  A    between atoms: N_2  and  C_4
REMARK    4  A    between atoms: C_4  and  C_5
REMARK    5  A    between atoms: C_5  and  C_6
REMARK    6  A    between atoms: C_6  and  N_7
REMARK    7  A    between atoms: C_14  and  C_16
REMARK    8  A    between atoms: C_17  and  C_23
REMARK    9  A    between atoms: N_25  and  C_32
REMARK                            x       y       z     vdW  Elec       q    Type
REMARK                         _______ _______ _______ _____ _____    ______ ____
ROOT
ATOM      1  C   UNL     1      -2.681  -7.394   1.174  0.00  0.00    +0.077 C 
ATOM      2  C   UNL     1      -2.542  -7.484   2.555  0.00  0.00    +0.060 C 
ATOM      3  C   UNL     1      -2.555  -8.930   2.874  0.00  0.00    +0.252 C 
ATOM      4  O   UNL     1      -2.457  -9.412   3.985  0.00  0.00    -0.270 OA
ATOM      5  N   UNL     1      -2.695  -9.619   1.729  0.00  0.00    -0.248 N 
ATOM      6  C   UNL     1      -2.782  -8.782   0.682  0.00  0.00    +0.253 C 
ATOM      7  O   UNL     1      -2.917  -9.112  -0.480  0.00  0.00    -0.270 OA
ATOM      8  H   UNL     1      -2.732 -10.586   1.667  0.00  0.00    +0.158 HD
ENDROOT
BRANCH   1  16
ATOM      9  N   UNL     1      -2.515  -4.051  -0.293  0.00  0.00    -0.263 N 
ATOM     10  C   UNL     1      -3.083  -4.691  -1.366  0.00  0.00    +0.070 A 
ATOM     11  C   UNL     1      -3.490  -4.269  -2.630  0.00  0.00    +0.028 A 
ATOM     12  C   UNL     1      -4.040  -5.176  -3.507  0.00  0.00    +0.002 A 
ATOM     13  C   UNL     1      -4.194  -6.507  -3.145  0.00  0.00    +0.001 A 
ATOM     14  C   UNL     1      -3.803  -6.941  -1.910  0.00  0.00    +0.012 A 
ATOM     15  C   UNL     1      -3.241  -6.040  -1.004  0.00  0.00    +0.028 A 
ATOM     16  C   UNL     1      -2.725  -6.163   0.366  0.00  0.00    +0.106 A 
ATOM     17  N   UNL     1      -2.306  -4.973   0.738  0.00  0.00    -0.170 NA
BRANCH   9  18
ATOM     18  C   UNL     1      -2.175  -2.627  -0.238  0.00  0.00    +0.142 C 
BRANCH  18  19
ATOM     19  C   UNL     1      -0.747  -2.424  -0.746  0.00  0.00    +0.005 C 
BRANCH  19  20
ATOM     20  C   UNL     1      -0.392  -0.936  -0.688  0.00  0.00    -0.078 C 
BRANCH  20  22
ATOM     21  C   UNL     1       1.279   0.696  -1.234  0.00  0.00    -0.097 C 
ATOM     22  N   UNL     1       0.980  -0.741  -1.176  0.00  0.00    +0.376 N 
ATOM     23  C   UNL     1       1.923  -1.401  -0.263  0.00  0.00    -0.097 C 
ATOM     24  H   UNL     1       1.069  -1.141  -2.098  0.00  0.00    -0.083 HD
ENDBRANCH  20  22
ENDBRANCH  19  20
ENDBRANCH  18  19
ENDBRANCH   9  18
ENDBRANCH   1  16
BRANCH   2  25
ATOM     25  C   UNL     1      -2.408  -6.370   3.504  0.00  0.00    +0.013 A 
ATOM     26  C   UNL     1      -3.403  -5.535   3.930  0.00  0.00    +0.101 A 
ATOM     27  N   UNL     1      -2.895  -4.628   4.806  0.00  0.00    -0.315 N 
ATOM     28  C   UNL     1      -1.541  -4.839   4.985  0.00  0.00    +0.054 A 
ATOM     29  C   UNL     1      -1.176  -5.937   4.188  0.00  0.00    +0.008 A 
ATOM     30  C   UNL     1       0.143  -6.382   4.175  0.00  0.00    +0.010 A 
ATOM     31  C   UNL     1       1.087  -5.744   4.950  0.00  0.00    +0.001 A 
ATOM     32  C   UNL     1       0.727  -4.662   5.741  0.00  0.00    +0.002 A 
ATOM     33  C   UNL     1      -0.574  -4.205   5.756  0.00  0.00    +0.027 A 
BRANCH  27  34
ATOM     34  C   UNL     1      -3.637  -3.623   5.437  0.00  0.00    +0.047 A 
ATOM     35  C   UNL     1      -3.539  -3.456   6.824  0.00  0.00    +0.027 A 
ATOM     36  C   UNL     1      -4.249  -2.489   7.462  0.00  0.00    +0.010 A 
ATOM     37  C   UNL     1      -5.095  -1.640   6.728  0.00  0.00    -0.018 A 
ATOM     38  C   UNL     1      -5.840  -0.631   7.362  0.00  0.00    +0.008 A 
ATOM     39  C   UNL     1      -6.650   0.175   6.622  0.00  0.00    +0.001 A 
ATOM     40  C   UNL     1      -6.753   0.016   5.241  0.00  0.00    +0.001 A 
ATOM     41  C   UNL     1      -6.047  -0.950   4.593  0.00  0.00    +0.008 A 
ATOM     42  C   UNL     1      -5.200  -1.801   5.324  0.00  0.00    -0.016 A 
ATOM     43  C   UNL     1      -4.452  -2.805   4.686  0.00  0.00    +0.034 A 
ENDBRANCH  27  34
ENDBRANCH   2  25
TORSDOF 7
