REMARK  Name = CHEMBL367162
REMARK  11 active torsions:
REMARK  status: ('A' for Active; 'I' for Inactive)
REMARK    1  A    between atoms: C_8  and  N_34
REMARK    2  A    between atoms: C_10  and  O_11
REMARK    3  A    between atoms: O_11  and  C_12
REMARK    4  A    between atoms: C_12  and  C_14
REMARK    5  A    between atoms: C_16  and  O_33
REMARK    6  A    between atoms: C_17  and  C_21
REMARK    7  A    between atoms: C_21  and  C_23
REMARK    8  A    between atoms: C_24  and  C_30
REMARK    9  A    between atoms: C_28  and  O_29
REMARK   10  A    between atoms: C_35  and  C_37
REMARK   11  A    between atoms: C_40  and  O_43
REMARK                            x       y       z     vdW  Elec       q    Type
REMARK                         _______ _______ _______ _____ _____    ______ ____
ROOT
ATOM      1  C   UNL     1       5.134  -0.247   1.564  0.00  0.00    +0.340 C 
ATOM      2  O   UNL     1       5.508   0.566   0.744  0.00  0.00    -0.245 OA
ENDROOT
BRANCH   1   3
ATOM      3  C   UNL     1       5.770  -0.297   2.899  0.00  0.00    +0.066 A 
ATOM      4  C   UNL     1       6.796   0.594   3.215  0.00  0.00    +0.061 A 
ATOM      5  C   UNL     1       7.393   0.550   4.462  0.00  0.00    +0.132 A 
ATOM      6  C   UNL     1       6.966  -0.392   5.410  0.00  0.00    +0.110 A 
ATOM      7  C   UNL     1       5.934  -1.286   5.088  0.00  0.00    +0.194 A 
ATOM      8  C   UNL     1       5.338  -1.232   3.840  0.00  0.00    +0.066 A 
ATOM      9  O   UNL     1       5.517  -2.200   6.001  0.00  0.00    -0.287 OA
BRANCH   6  10
ATOM     10  C   UNL     1       7.600  -0.443   6.740  0.00  0.00    +0.205 C 
ATOM     11  O   UNL     1       8.560   0.263   6.983  0.00  0.00    -0.286 OA
BRANCH  10  12
ATOM     12  C   UNL     1       7.069  -1.349   7.776  0.00  0.00    +0.078 A 
ATOM     13  C   UNL     1       7.630  -2.630   7.956  0.00  0.00    +0.077 A 
ATOM     14  C   UNL     1       7.120  -3.474   8.937  0.00  0.00    +0.016 A 
ATOM     15  C   UNL     1       6.066  -3.057   9.733  0.00  0.00    +0.004 A 
ATOM     16  C   UNL     1       5.511  -1.805   9.562  0.00  0.00    +0.046 A 
ATOM     17  C   UNL     1       6.008  -0.942   8.592  0.00  0.00    +0.128 A 
BRANCH  13  18
ATOM     18  C   UNL     1       8.754  -3.074   7.106  0.00  0.00    +0.387 C 
ATOM     19  O   UNL     1       9.175  -4.218   7.199  0.00  0.00    -0.241 OA
ATOM     20  O   UNL     1       9.262  -2.297   6.311  0.00  0.00    -0.241 OA
ENDBRANCH  13  18
BRANCH  17  21
ATOM     21  O   UNL     1       5.462   0.289   8.433  0.00  0.00    -0.506 OA
ATOM     22  H   UNL     1       4.780   0.332   7.750  0.00  0.00    +0.292 HD
ENDBRANCH  17  21
ENDBRANCH  10  12
ENDBRANCH   6  10
BRANCH   5  23
ATOM     23  O   UNL     1       8.391   1.417   4.768  0.00  0.00    -0.506 OA
ATOM     24  H   UNL     1       8.085   2.246   5.162  0.00  0.00    +0.292 HD
ENDBRANCH   5  23
ENDBRANCH   1   3
BRANCH   1  25
ATOM     25  O   UNL     1       4.140  -1.103   1.259  0.00  0.00    -0.451 OA
BRANCH  25  34
ATOM     26  C   UNL     1      -0.048   1.261  -0.003  0.00  0.00    +0.000 A 
ATOM     27  C   UNL     1       1.129   1.987  -0.008  0.00  0.00    +0.000 A 
ATOM     28  C   UNL     1       2.344   1.330  -0.022  0.00  0.00    +0.007 A 
ATOM     29  C   UNL     1       2.388  -0.054  -0.032  0.00  0.00    -0.002 A 
ATOM     30  C   UNL     1       1.212  -0.780  -0.027  0.00  0.00    -0.039 A 
ATOM     31  C   UNL     1      -0.006  -0.120  -0.013  0.00  0.00    +0.004 A 
ATOM     32  C   UNL     1       1.524  -2.261  -0.040  0.00  0.00    +0.061 C 
ATOM     33  C   UNL     1       2.996  -2.359  -0.493  0.00  0.00    +0.123 C 
ATOM     34  C   UNL     1       3.571  -0.998  -0.048  0.00  0.00    +0.228 C 
BRANCH  33  35
ATOM     35  N   UNL     1       3.085  -2.516  -1.947  0.00  0.00    -0.304 N 
ATOM     36  C   UNL     1       3.014  -3.744  -2.498  0.00  0.00    +0.244 C 
ATOM     37  O   UNL     1       2.877  -4.721  -1.788  0.00  0.00    -0.270 OA
ATOM     38  H   UNL     1       3.194  -1.736  -2.513  0.00  0.00    +0.149 HD
BRANCH  36  39
ATOM     39  C   UNL     1       3.103  -3.902  -3.963  0.00  0.00    +0.037 A 
ATOM     40  C   UNL     1       3.266  -2.780  -4.780  0.00  0.00    +0.016 A 
ATOM     41  C   UNL     1       3.349  -2.932  -6.146  0.00  0.00    +0.046 A 
ATOM     42  C   UNL     1       3.270  -4.198  -6.712  0.00  0.00    +0.117 A 
ATOM     43  C   UNL     1       3.107  -5.317  -5.903  0.00  0.00    +0.046 A 
ATOM     44  C   UNL     1       3.029  -5.174  -4.536  0.00  0.00    +0.016 A 
BRANCH  42  45
ATOM     45  O   UNL     1       3.351  -4.343  -8.059  0.00  0.00    -0.507 OA
ATOM     46  H   UNL     1       4.252  -4.468  -8.388  0.00  0.00    +0.292 HD
ENDBRANCH  42  45
ENDBRANCH  36  39
ENDBRANCH  33  35
ENDBRANCH  25  34
ENDBRANCH   1  25
TORSDOF 11
