REMARK  Name = CHEMBL263910
REMARK  12 active torsions:
REMARK  status: ('A' for Active; 'I' for Inactive)
REMARK    1  A    between atoms: C_3  and  C_43
REMARK    2  A    between atoms: C_4  and  C_8
REMARK    3  A    between atoms: C_5  and  O_7
REMARK    4  A    between atoms: C_8  and  C_10
REMARK    5  A    between atoms: C_11  and  O_42
REMARK    6  A    between atoms: C_13  and  C_17
REMARK    7  A    between atoms: C_15  and  O_16
REMARK    8  A    between atoms: C_17  and  O_19
REMARK    9  A    between atoms: O_19  and  C_20
REMARK   10  A    between atoms: C_22  and  N_32
REMARK   11  A    between atoms: C_33  and  C_35
REMARK   12  A    between atoms: C_38  and  O_41
REMARK                            x       y       z     vdW  Elec       q    Type
REMARK                         _______ _______ _______ _____ _____    ______ ____
ROOT
ATOM      1  C   UNL     1       3.426  -6.592   0.702  0.00  0.00    +0.340 C 
ATOM      2  O   UNL     1       2.390  -7.221   0.622  0.00  0.00    -0.245 OA
ENDROOT
BRANCH   1   6
ATOM      3  C   UNL     1       3.357  -2.335   0.488  0.00  0.00    +0.105 A 
ATOM      4  C   UNL     1       2.162  -3.063   0.396  0.00  0.00    +0.132 A 
ATOM      5  C   UNL     1       2.189  -4.445   0.465  0.00  0.00    +0.061 A 
ATOM      6  C   UNL     1       3.402  -5.114   0.628  0.00  0.00    +0.066 A 
ATOM      7  C   UNL     1       4.593  -4.394   0.721  0.00  0.00    +0.061 A 
ATOM      8  C   UNL     1       4.576  -3.012   0.646  0.00  0.00    +0.132 A 
BRANCH   3   9
ATOM      9  C   UNL     1       3.334  -0.864   0.415  0.00  0.00    +0.204 C 
ATOM     10  O   UNL     1       4.356  -0.229   0.595  0.00  0.00    -0.286 OA
BRANCH   9  14
ATOM     11  C   UNL     1      -0.315   1.168  -0.428  0.00  0.00    +0.004 A 
ATOM     12  C   UNL     1       0.469   0.709  -1.474  0.00  0.00    +0.016 A 
ATOM     13  C   UNL     1       1.663   0.044  -1.213  0.00  0.00    +0.077 A 
ATOM     14  C   UNL     1       2.070  -0.159   0.122  0.00  0.00    +0.078 A 
ATOM     15  C   UNL     1       1.267   0.310   1.166  0.00  0.00    +0.128 A 
ATOM     16  C   UNL     1       0.078   0.972   0.881  0.00  0.00    +0.046 A 
BRANCH  13  17
ATOM     17  C   UNL     1       2.498  -0.446  -2.327  0.00  0.00    +0.387 C 
ATOM     18  O   UNL     1       2.095  -0.357  -3.478  0.00  0.00    -0.241 OA
ATOM     19  O   UNL     1       3.593  -0.940  -2.098  0.00  0.00    -0.241 OA
ENDBRANCH  13  17
BRANCH  15  20
ATOM     20  O   UNL     1       1.647   0.120   2.454  0.00  0.00    -0.506 OA
ATOM     21  H   UNL     1       2.124   0.869   2.838  0.00  0.00    +0.292 HD
ENDBRANCH  15  20
ENDBRANCH   9  14
ENDBRANCH   3   9
BRANCH   8  22
ATOM     22  O   UNL     1       5.736  -2.313   0.730  0.00  0.00    -0.506 OA
ATOM     23  H   UNL     1       5.982  -2.068   1.633  0.00  0.00    +0.292 HD
ENDBRANCH   8  22
BRANCH   4  24
ATOM     24  O   UNL     1       0.981  -2.414   0.238  0.00  0.00    -0.506 OA
ATOM     25  H   UNL     1       0.693  -2.338  -0.682  0.00  0.00    +0.292 HD
ENDBRANCH   4  24
ENDBRANCH   1   6
BRANCH   1  26
ATOM     26  O   UNL     1       4.596  -7.239   0.859  0.00  0.00    -0.456 OA
BRANCH  26  27
ATOM     27  C   UNL     1       4.544  -8.670   0.923  0.00  0.00    +0.200 C 
ATOM     28  C   UNL     1       4.761  -9.269  -0.484  0.00  0.00    +0.117 C 
ATOM     29  C   UNL     1       5.861 -10.342  -0.283  0.00  0.00    +0.017 C 
ATOM     30  C   UNL     1       6.807  -9.459   0.628  0.00  0.00    +0.013 C 
ATOM     31  C   UNL     1       5.747  -9.207   1.761  0.00  0.00    +0.035 C 
ATOM     32  C   UNL     1       5.375 -10.674   2.111  0.00  0.00    -0.001 C 
ATOM     33  C   UNL     1       5.427 -11.403   0.746  0.00  0.00    -0.003 C 
ATOM     34  C   UNL     1       4.047 -12.002   0.501  0.00  0.00    +0.004 C 
ATOM     35  C   UNL     1       3.073 -11.288   1.458  0.00  0.00    +0.001 C 
ATOM     36  C   UNL     1       3.936 -10.765   2.624  0.00  0.00    +0.004 C 
BRANCH  28  37
ATOM     37  N   UNL     1       3.542  -9.737  -1.108  0.00  0.00    -0.305 N 
ATOM     38  C   UNL     1       3.492  -9.910  -2.444  0.00  0.00    +0.244 C 
ATOM     39  O   UNL     1       4.471  -9.673  -3.125  0.00  0.00    -0.270 OA
ATOM     40  H   UNL     1       2.760  -9.927  -0.566  0.00  0.00    +0.149 HD
BRANCH  38  41
ATOM     41  C   UNL     1       2.249 -10.387  -3.081  0.00  0.00    +0.037 A 
ATOM     42  C   UNL     1       1.121 -10.655  -2.301  0.00  0.00    +0.016 A 
ATOM     43  C   UNL     1      -0.037 -11.100  -2.899  0.00  0.00    +0.046 A 
ATOM     44  C   UNL     1      -0.085 -11.283  -4.276  0.00  0.00    +0.117 A 
ATOM     45  C   UNL     1       1.036 -11.018  -5.055  0.00  0.00    +0.046 A 
ATOM     46  C   UNL     1       2.196 -10.567  -4.466  0.00  0.00    +0.016 A 
BRANCH  44  47
ATOM     47  O   UNL     1      -1.227 -11.723  -4.862  0.00  0.00    -0.507 OA
ATOM     48  H   UNL     1      -1.827 -11.015  -5.133  0.00  0.00    +0.292 HD
ENDBRANCH  44  47
ENDBRANCH  38  41
ENDBRANCH  28  37
ENDBRANCH  26  27
ENDBRANCH   1  26
TORSDOF 12
