REMARK  Name = CHEMBL368193
REMARK  9 active torsions:
REMARK  status: ('A' for Active; 'I' for Inactive)
REMARK    1  A    between atoms: C_1  and  N_2
REMARK    2  A    between atoms: N_2  and  C_3
REMARK    3  A    between atoms: N_2  and  C_4
REMARK    4  A    between atoms: C_4  and  C_5
REMARK    5  A    between atoms: C_5  and  C_6
REMARK    6  A    between atoms: C_6  and  N_7
REMARK    7  A    between atoms: C_14  and  C_16
REMARK    8  A    between atoms: C_17  and  C_23
REMARK    9  A    between atoms: N_25  and  C_32
REMARK                            x       y       z     vdW  Elec       q    Type
REMARK                         _______ _______ _______ _____ _____    ______ ____
ROOT
ATOM      1  C   UNL     1       7.781  -0.702  -1.475  0.00  0.00    +0.077 C 
ATOM      2  C   UNL     1       8.188  -2.018  -1.286  0.00  0.00    +0.060 C 
ATOM      3  C   UNL     1       9.592  -1.949  -0.822  0.00  0.00    +0.252 C 
ATOM      4  O   UNL     1      10.296  -2.900  -0.548  0.00  0.00    -0.270 OA
ATOM      5  N   UNL     1       9.956  -0.657  -0.753  0.00  0.00    -0.248 N 
ATOM      6  C   UNL     1       8.942   0.140  -1.130  0.00  0.00    +0.253 C 
ATOM      7  O   UNL     1       8.975   1.354  -1.175  0.00  0.00    -0.270 OA
ATOM      8  H   UNL     1      10.831  -0.344  -0.475  0.00  0.00    +0.158 HD
ENDROOT
BRANCH   1  16
ATOM      9  N   UNL     1       4.295  -0.169  -2.436  0.00  0.00    -0.263 N 
ATOM     10  C   UNL     1       4.770   1.069  -2.788  0.00  0.00    +0.070 A 
ATOM     11  C   UNL     1       4.178   2.204  -3.337  0.00  0.00    +0.028 A 
ATOM     12  C   UNL     1       4.942   3.322  -3.582  0.00  0.00    +0.002 A 
ATOM     13  C   UNL     1       6.300   3.330  -3.287  0.00  0.00    +0.001 A 
ATOM     14  C   UNL     1       6.900   2.227  -2.749  0.00  0.00    +0.012 A 
ATOM     15  C   UNL     1       6.144   1.082  -2.492  0.00  0.00    +0.028 A 
ATOM     16  C   UNL     1       6.458  -0.241  -1.935  0.00  0.00    +0.106 A 
ATOM     17  N   UNL     1       5.343  -0.937  -1.917  0.00  0.00    -0.170 NA
BRANCH   9  18
ATOM     18  C   UNL     1       2.906  -0.615  -2.575  0.00  0.00    +0.142 C 
BRANCH  18  19
ATOM     19  C   UNL     1       2.131  -0.275  -1.301  0.00  0.00    +0.005 C 
BRANCH  19  20
ATOM     20  C   UNL     1       0.681  -0.741  -1.446  0.00  0.00    -0.078 C 
BRANCH  20  22
ATOM     21  C   UNL     1      -0.137   1.045  -0.069  0.00  0.00    -0.097 C 
ATOM     22  N   UNL     1      -0.063  -0.414  -0.222  0.00  0.00    +0.376 N 
ATOM     23  C   UNL     1      -1.421  -0.967  -0.313  0.00  0.00    -0.097 C 
ATOM     24  H   UNL     1       0.409  -0.813   0.575  0.00  0.00    -0.083 HD
ENDBRANCH  20  22
ENDBRANCH  19  20
ENDBRANCH  18  19
ENDBRANCH   9  18
ENDBRANCH   1  16
BRANCH   2  25
ATOM     25  C   UNL     1       7.386  -3.231  -1.502  0.00  0.00    +0.013 A 
ATOM     26  C   UNL     1       7.059  -3.790  -2.705  0.00  0.00    +0.100 A 
ATOM     27  N   UNL     1       6.307  -4.905  -2.501  0.00  0.00    -0.322 N 
ATOM     28  C   UNL     1       6.116  -5.114  -1.148  0.00  0.00    +0.054 A 
ATOM     29  C   UNL     1       6.784  -4.086  -0.463  0.00  0.00    +0.008 A 
ATOM     30  C   UNL     1       6.765  -4.047   0.928  0.00  0.00    +0.010 A 
ATOM     31  C   UNL     1       6.091  -5.025   1.629  0.00  0.00    +0.001 A 
ATOM     32  C   UNL     1       5.434  -6.043   0.955  0.00  0.00    +0.002 A 
ATOM     33  C   UNL     1       5.438  -6.088  -0.424  0.00  0.00    +0.027 A 
BRANCH  27  34
ATOM     34  C   UNL     1       5.801  -5.720  -3.512  0.00  0.00    +0.083 C 
ATOM     35  C   UNL     1       6.044  -5.430  -4.776  0.00  0.00    +0.028 C 
ENDBRANCH  27  34
ENDBRANCH   2  25
TORSDOF 7
