REMARK  Name = CHEMBL103628
REMARK  3 active torsions:
REMARK  status: ('A' for Active; 'I' for Inactive)
REMARK    1  A    between atoms: C_1  and  N_2
REMARK    2  A    between atoms: N_27  and  C_34
REMARK    3  A    between atoms: N_30  and  C_33
REMARK                            x       y       z     vdW  Elec       q    Type
REMARK                         _______ _______ _______ _____ _____    ______ ____
ROOT
ATOM      1  C   UNL     1      -0.018   1.500   0.010  0.00  0.00    +0.105 C 
ATOM      2  N   UNL     1       0.002  -0.004   0.002  0.00  0.00    -0.302 NA
ATOM      3  C   UNL     1      -1.421  -0.418   0.271  0.00  0.00    +0.105 C 
ATOM      4  C   UNL     1      -2.250  -0.003  -0.932  0.00  0.00    +0.137 C 
ATOM      5  N   UNL     1      -3.442  -0.830  -1.109  0.00  0.00    -0.345 N 
ATOM      6  C   UNL     1      -3.551  -2.184  -1.133  0.00  0.00    +0.095 A 
ATOM      7  C   UNL     1      -4.826  -2.551  -1.376  0.00  0.00    +0.013 A 
ATOM      8  C   UNL     1      -5.619  -1.293  -1.431  0.00  0.00    +0.008 A 
ATOM      9  C   UNL     1      -4.691  -0.258  -1.296  0.00  0.00    +0.050 A 
ATOM     10  C   UNL     1      -5.113   1.062  -1.385  0.00  0.00    +0.026 A 
ATOM     11  C   UNL     1      -6.446   1.353  -1.556  0.00  0.00    +0.002 A 
ATOM     12  C   UNL     1      -7.378   0.325  -1.628  0.00  0.00    +0.001 A 
ATOM     13  C   UNL     1      -6.972  -0.991  -1.550  0.00  0.00    +0.010 A 
ATOM     14  C   UNL     1      -5.487  -3.851  -1.585  0.00  0.00    +0.059 C 
ATOM     15  C   UNL     1      -5.291  -5.149  -1.139  0.00  0.00    +0.059 C 
ATOM     16  C   UNL     1      -4.367  -5.828  -0.218  0.00  0.00    +0.013 A 
ATOM     17  C   UNL     1      -3.134  -5.506   0.252  0.00  0.00    +0.095 A 
ATOM     18  N   UNL     1      -2.643  -6.499   1.040  0.00  0.00    -0.345 N 
ATOM     19  C   UNL     1      -3.573  -7.522   1.120  0.00  0.00    +0.050 A 
ATOM     20  C   UNL     1      -4.704  -7.141   0.394  0.00  0.00    +0.008 A 
ATOM     21  C   UNL     1      -5.835  -7.952   0.410  0.00  0.00    +0.010 A 
ATOM     22  C   UNL     1      -5.800  -9.182   1.039  0.00  0.00    +0.001 A 
ATOM     23  C   UNL     1      -4.643  -9.592   1.689  0.00  0.00    +0.002 A 
ATOM     24  C   UNL     1      -3.541  -8.770   1.736  0.00  0.00    +0.026 A 
ATOM     25  C   UNL     1      -1.369  -6.565   1.744  0.00  0.00    +0.137 C 
ATOM     26  C   UNL     1      -0.382  -5.496   1.294  0.00  0.00    +0.105 C 
ATOM     27  N   UNL     1       0.970  -5.910   1.770  0.00  0.00    -0.302 NA
ATOM     28  C   UNL     1       1.655  -4.727   2.345  0.00  0.00    +0.099 C 
ATOM     29  C   UNL     1       1.890  -3.675   1.267  0.00  0.00    +0.099 C 
ATOM     30  N   UNL     1       2.019  -2.346   1.925  0.00  0.00    -0.303 NA
ATOM     31  C   UNL     1       1.874  -1.312   0.868  0.00  0.00    +0.099 C 
ATOM     32  C   UNL     1       0.748  -0.359   1.256  0.00  0.00    +0.099 C 
ATOM     33  C   UNL     1       3.408  -2.242   2.450  0.00  0.00    +0.105 C 
ATOM     34  C   UNL     1       1.748  -6.354   0.581  0.00  0.00    +0.105 C 
ATOM     35  C   UNL     1      -6.295  -5.973  -1.889  0.00  0.00    +0.252 C 
ATOM     36  O   UNL     1      -6.358  -7.185  -1.915  0.00  0.00    -0.270 OA
ATOM     37  N   UNL     1      -7.122  -5.174  -2.567  0.00  0.00    -0.248 N 
ATOM     38  C   UNL     1      -6.681  -3.920  -2.483  0.00  0.00    +0.252 C 
ATOM     39  O   UNL     1      -7.171  -2.989  -3.090  0.00  0.00    -0.270 OA
ATOM     40  H   UNL     1      -7.918  -5.458  -3.037  0.00  0.00    +0.158 HD
ENDROOT
TORSDOF 0
