REMARK  Name = CHEMBL367106
REMARK  7 active torsions:
REMARK  status: ('A' for Active; 'I' for Inactive)
REMARK    1  A    between atoms: C_6  and  N_11
REMARK    2  A    between atoms: C_13  and  C_20
REMARK    3  A    between atoms: C_21  and  C_27
REMARK    4  A    between atoms: N_34  and  C_36
REMARK    5  A    between atoms: C_36  and  C_37
REMARK    6  A    between atoms: C_37  and  C_38
REMARK    7  A    between atoms: C_38  and  N_39
REMARK                            x       y       z     vdW  Elec       q    Type
REMARK                         _______ _______ _______ _____ _____    ______ ____
ROOT
ATOM      1  C   UNL     1       8.428  -3.458  -1.145  0.00  0.00    +0.060 C 
ATOM      2  C   UNL     1       9.317  -2.393  -1.237  0.00  0.00    +0.077 C 
ATOM      3  C   UNL     1      10.202  -2.695  -2.379  0.00  0.00    +0.253 C 
ATOM      4  O   UNL     1      11.113  -1.994  -2.773  0.00  0.00    -0.270 OA
ATOM      5  N   UNL     1       9.834  -3.873  -2.910  0.00  0.00    -0.248 N 
ATOM      6  C   UNL     1       8.796  -4.393  -2.234  0.00  0.00    +0.252 C 
ATOM      7  O   UNL     1       8.249  -5.450  -2.477  0.00  0.00    -0.270 OA
ATOM      8  H   UNL     1      10.262  -4.292  -3.673  0.00  0.00    +0.158 HD
ENDROOT
BRANCH   1  11
ATOM      9  N   UNL     1       5.408  -3.394   0.910  0.00  0.00    -0.315 N 
ATOM     10  C   UNL     1       6.146  -2.974  -0.152  0.00  0.00    +0.101 A 
ATOM     11  C   UNL     1       7.347  -3.626  -0.164  0.00  0.00    +0.013 A 
ATOM     12  C   UNL     1       7.345  -4.529   1.001  0.00  0.00    +0.008 A 
ATOM     13  C   UNL     1       6.109  -4.337   1.639  0.00  0.00    +0.054 A 
ATOM     14  C   UNL     1       5.815  -5.059   2.789  0.00  0.00    +0.027 A 
ATOM     15  C   UNL     1       6.736  -5.952   3.295  0.00  0.00    +0.002 A 
ATOM     16  C   UNL     1       7.958  -6.138   2.667  0.00  0.00    +0.001 A 
ATOM     17  C   UNL     1       8.264  -5.438   1.520  0.00  0.00    +0.010 A 
BRANCH   9  23
ATOM     18  C   UNL     1       0.032  -0.256   2.219  0.00  0.00    +0.001 A 
ATOM     19  C   UNL     1       1.044   0.667   1.962  0.00  0.00    +0.001 A 
ATOM     20  C   UNL     1       2.304   0.256   1.653  0.00  0.00    +0.008 A 
ATOM     21  C   UNL     1       2.592  -1.119   1.591  0.00  0.00    -0.016 A 
ATOM     22  C   UNL     1       3.881  -1.578   1.276  0.00  0.00    +0.034 A 
ATOM     23  C   UNL     1       4.125  -2.933   1.225  0.00  0.00    +0.047 A 
ATOM     24  C   UNL     1       3.102  -3.853   1.484  0.00  0.00    +0.027 A 
ATOM     25  C   UNL     1       1.847  -3.433   1.791  0.00  0.00    +0.010 A 
ATOM     26  C   UNL     1       1.563  -2.057   1.852  0.00  0.00    -0.018 A 
ATOM     27  C   UNL     1       0.274  -1.595   2.168  0.00  0.00    +0.008 A 
ENDBRANCH   9  23
ENDBRANCH   1  11
BRANCH   2  28
ATOM     28  C   UNL     1       9.366  -1.203  -0.369  0.00  0.00    +0.106 A 
ATOM     29  C   UNL     1      10.188  -0.005  -0.584  0.00  0.00    +0.028 A 
ATOM     30  C   UNL     1      11.101   0.379  -1.568  0.00  0.00    +0.012 A 
ATOM     31  C   UNL     1      11.720   1.593  -1.483  0.00  0.00    +0.001 A 
ATOM     32  C   UNL     1      11.450   2.452  -0.426  0.00  0.00    +0.002 A 
ATOM     33  C   UNL     1      10.553   2.095   0.556  0.00  0.00    +0.028 A 
ATOM     34  C   UNL     1       9.910   0.861   0.489  0.00  0.00    +0.070 A 
ATOM     35  N   UNL     1       8.991   0.229   1.287  0.00  0.00    -0.263 N 
ATOM     36  N   UNL     1       8.678  -1.017   0.736  0.00  0.00    -0.170 NA
BRANCH  35  37
ATOM     37  C   UNL     1       8.421   0.777   2.521  0.00  0.00    +0.142 C 
BRANCH  37  38
ATOM     38  C   UNL     1       7.152   1.566   2.190  0.00  0.00    +0.005 C 
BRANCH  38  39
ATOM     39  C   UNL     1       6.557   2.138   3.479  0.00  0.00    -0.077 C 
BRANCH  39  40
ATOM     40  N   UNL     1       5.339   2.895   3.162  0.00  0.00    +0.383 N 
ATOM     41  C   UNL     1       5.688   4.064   2.343  0.00  0.00    -0.050 C 
ATOM     42  C   UNL     1       4.418   4.851   2.014  0.00  0.00    +0.141 C 
ATOM     43  O   UNL     1       3.772   5.236   3.231  0.00  0.00    -0.383 OA
ATOM     44  C   UNL     1       3.433   4.131   4.074  0.00  0.00    +0.141 C 
ATOM     45  C   UNL     1       4.702   3.343   4.408  0.00  0.00    -0.050 C 
ATOM     46  H   UNL     1       4.700   2.305   2.650  0.00  0.00    -0.082 HD
ENDBRANCH  39  40
ENDBRANCH  38  39
ENDBRANCH  37  38
ENDBRANCH  35  37
ENDBRANCH   2  28
TORSDOF 7
