REMARK  Name = CHEMBL284632
REMARK  0 active torsions:
REMARK  status: ('A' for Active; 'I' for Inactive)
REMARK                            x       y       z     vdW  Elec       q    Type
REMARK                         _______ _______ _______ _____ _____    ______ ____
ROOT
ATOM      1  C   UNL     1      -0.017   1.381   0.010  0.00  0.00    +0.001 A 
ATOM      2  C   UNL     1       1.149   2.126   0.003  0.00  0.00    +0.002 A 
ATOM      3  C   UNL     1       2.402   1.537  -0.012  0.00  0.00    +0.026 A 
ATOM      4  C   UNL     1       2.449   0.143  -0.019  0.00  0.00    +0.052 A 
ATOM      5  C   UNL     1       1.257  -0.616  -0.013  0.00  0.00    +0.008 A 
ATOM      6  C   UNL     1       0.002  -0.004   0.002  0.00  0.00    +0.010 A 
ATOM      7  C   UNL     1       1.655  -2.022  -0.025  0.00  0.00    +0.023 A 
ATOM      8  C   UNL     1       0.957  -3.238  -0.027  0.00  0.00    +0.060 A 
ATOM      9  C   UNL     1       1.661  -4.455  -0.045  0.00  0.00    +0.060 A 
ATOM     10  C   UNL     1       3.062  -4.457  -0.062  0.00  0.00    +0.023 A 
ATOM     11  C   UNL     1       4.082  -5.503  -0.089  0.00  0.00    +0.008 A 
ATOM     12  C   UNL     1       3.986  -6.896  -0.107  0.00  0.00    +0.010 A 
ATOM     13  C   UNL     1       5.176  -7.603  -0.131  0.00  0.00    +0.001 A 
ATOM     14  C   UNL     1       6.404  -6.965  -0.137  0.00  0.00    +0.002 A 
ATOM     15  C   UNL     1       6.519  -5.585  -0.119  0.00  0.00    +0.026 A 
ATOM     16  C   UNL     1       5.335  -4.849  -0.095  0.00  0.00    +0.052 A 
ATOM     17  N   UNL     1       5.125  -3.492  -0.074  0.00  0.00    -0.314 N 
ATOM     18  C   UNL     1       3.760  -3.237  -0.056  0.00  0.00    +0.077 A 
ATOM     19  C   UNL     1       3.060  -2.026  -0.038  0.00  0.00    +0.077 A 
ATOM     20  N   UNL     1       3.520  -0.716  -0.032  0.00  0.00    -0.314 N 
ATOM     21  C   UNL     1       4.934  -0.338  -0.037  0.00  0.00    +0.287 C 
ATOM     22  O   UNL     1       5.736  -1.277  -0.703  0.00  0.00    -0.339 OA
ATOM     23  C   UNL     1       6.158  -2.454  -0.069  0.00  0.00    +0.287 C 
ATOM     24  C   UNL     1       0.636  -5.515  -0.042  0.00  0.00    +0.252 C 
ATOM     25  O   UNL     1       0.853  -6.711  -0.055  0.00  0.00    -0.270 OA
ATOM     26  N   UNL     1      -0.578  -4.938  -0.022  0.00  0.00    -0.248 N 
ATOM     27  C   UNL     1      -0.472  -3.597  -0.012  0.00  0.00    +0.252 C 
ATOM     28  O   UNL     1      -1.400  -2.813   0.006  0.00  0.00    -0.270 OA
ATOM     29  H   UNL     1      -1.418  -5.423  -0.016  0.00  0.00    +0.158 HD
ENDROOT
TORSDOF 0
