REMARK  Name = CHEMBL444864
REMARK  7 active torsions:
REMARK  status: ('A' for Active; 'I' for Inactive)
REMARK    1  A    between atoms: C_6  and  C_11
REMARK    2  A    between atoms: C_12  and  C_27
REMARK    3  A    between atoms: N_19  and  C_20
REMARK    4  A    between atoms: C_20  and  C_21
REMARK    5  A    between atoms: C_21  and  C_22
REMARK    6  A    between atoms: C_22  and  S_23
REMARK    7  A    between atoms: S_23  and  C_24
REMARK                            x       y       z     vdW  Elec       q    Type
REMARK                         _______ _______ _______ _____ _____    ______ ____
ROOT
ATOM      1  C   UNL     1       4.971  -2.852  -0.165  0.00  0.00    +0.058 A 
ATOM      2  C   UNL     1       6.062  -2.579  -0.990  0.00  0.00    +0.020 A 
ATOM      3  C   UNL     1       7.179  -3.389  -0.474  0.00  0.00    +0.008 A 
ATOM      4  C   UNL     1       8.509  -3.551  -0.862  0.00  0.00    +0.010 A 
ATOM      5  C   UNL     1       9.326  -4.406  -0.156  0.00  0.00    +0.001 A 
ATOM      6  C   UNL     1       8.832  -5.105   0.936  0.00  0.00    +0.002 A 
ATOM      7  C   UNL     1       7.519  -4.955   1.330  0.00  0.00    +0.026 A 
ATOM      8  C   UNL     1       6.677  -4.095   0.631  0.00  0.00    +0.050 A 
ATOM      9  N   UNL     1       5.350  -3.747   0.794  0.00  0.00    -0.339 N 
ENDROOT
BRANCH   1  15
ATOM     10  C   UNL     1      -0.861  -0.691  -1.830  0.00  0.00    +0.001 A 
ATOM     11  C   UNL     1      -0.297  -1.356  -2.917  0.00  0.00    +0.001 A 
ATOM     12  C   UNL     1       0.942  -1.913  -2.830  0.00  0.00    +0.008 A 
ATOM     13  C   UNL     1       1.665  -1.817  -1.627  0.00  0.00    -0.017 A 
ATOM     14  C   UNL     1       2.944  -2.380  -1.505  0.00  0.00    +0.018 A 
ATOM     15  C   UNL     1       3.627  -2.264  -0.302  0.00  0.00    -0.000 A 
ATOM     16  C   UNL     1       3.044  -1.589   0.788  0.00  0.00    +0.010 A 
ATOM     17  C   UNL     1       1.808  -1.040   0.685  0.00  0.00    +0.009 A 
ATOM     18  C   UNL     1       1.091  -1.140  -0.522  0.00  0.00    -0.018 A 
ATOM     19  C   UNL     1      -0.190  -0.579  -0.651  0.00  0.00    +0.008 A 
ENDBRANCH   1  15
BRANCH   2  20
ATOM     20  C   UNL     1       6.091  -1.671  -2.138  0.00  0.00    +0.052 C 
ATOM     21  C   UNL     1       6.404  -0.338  -2.129  0.00  0.00    +0.081 C 
ATOM     22  C   UNL     1       6.301   0.130  -3.460  0.00  0.00    +0.244 C 
ATOM     23  O   UNL     1       6.512   1.274  -3.816  0.00  0.00    -0.270 OA
ATOM     24  N   UNL     1       5.936  -0.876  -4.271  0.00  0.00    -0.249 N 
ATOM     25  C   UNL     1       5.792  -2.009  -3.557  0.00  0.00    +0.251 C 
ATOM     26  O   UNL     1       5.475  -3.098  -3.988  0.00  0.00    -0.270 OA
ATOM     27  H   UNL     1       5.800  -0.799  -5.229  0.00  0.00    +0.158 HD
ENDBRANCH   2  20
BRANCH   9  28
ATOM     28  C   UNL     1       4.473  -4.268   1.845  0.00  0.00    +0.123 C 
BRANCH  28  29
ATOM     29  C   UNL     1       3.723  -5.495   1.323  0.00  0.00    +0.033 C 
BRANCH  29  30
ATOM     30  C   UNL     1       2.741  -5.984   2.389  0.00  0.00    +0.079 C 
BRANCH  30  31
ATOM     31  S   UNL     1       1.852  -7.439   1.770  0.00  0.00    -0.093 S 
BRANCH  31  32
ATOM     32  C   UNL     1       0.775  -7.876   3.094  0.00  0.00    +0.123 C 
ATOM     33  N   UNL     1      -0.394  -8.463   2.836  0.00  0.00    -0.382 N 
ATOM     34  N   UNL     1       1.129  -7.620   4.353  0.00  0.00    -0.340 N 
ATOM     35  H   UNL     1      -0.652  -8.649   1.920  0.00  0.00    +0.158 HD
ATOM     36  H   UNL     1       1.980  -7.194   4.541  0.00  0.00    +0.144 HD
ATOM     37  H   UNL     1       0.536  -7.861   5.082  0.00  0.00    +0.144 HD
ATOM     38  H   UNL     1      -0.987  -8.704   3.566  0.00  0.00    +0.158 HD
ENDBRANCH  31  32
ENDBRANCH  30  31
ENDBRANCH  29  30
ENDBRANCH  28  29
ENDBRANCH   9  28
TORSDOF 7
