REMARK  Name = CHEMBL48988
REMARK  11 active torsions:
REMARK  status: ('A' for Active; 'I' for Inactive)
REMARK    1  A    between atoms: C_3  and  C_34
REMARK    2  A    between atoms: C_4  and  C_8
REMARK    3  A    between atoms: C_5  and  O_7
REMARK    4  A    between atoms: C_8  and  C_10
REMARK    5  A    between atoms: C_11  and  O_33
REMARK    6  A    between atoms: C_13  and  C_17
REMARK    7  A    between atoms: C_17  and  O_19
REMARK    8  A    between atoms: O_19  and  C_20
REMARK    9  A    between atoms: C_24  and  O_25
REMARK   10  A    between atoms: O_25  and  C_26
REMARK   11  A    between atoms: C_29  and  O_32
REMARK                            x       y       z     vdW  Elec       q    Type
REMARK                         _______ _______ _______ _____ _____    ______ ____
ROOT
ATOM      1  C   UNL     1       5.718  -2.763  -0.287  0.00  0.00    +0.110 A 
ATOM      2  C   UNL     1       6.690  -3.768  -0.174  0.00  0.00    +0.132 A 
ATOM      3  C   UNL     1       6.312  -5.099  -0.201  0.00  0.00    +0.061 A 
ATOM      4  C   UNL     1       4.967  -5.442  -0.340  0.00  0.00    +0.066 A 
ATOM      5  C   UNL     1       3.997  -4.446  -0.453  0.00  0.00    +0.066 A 
ATOM      6  C   UNL     1       4.366  -3.112  -0.421  0.00  0.00    +0.194 A 
ATOM      7  O   UNL     1       3.421  -2.143  -0.524  0.00  0.00    -0.287 OA
ENDROOT
BRANCH   1   8
ATOM      8  C   UNL     1       6.115  -1.344  -0.260  0.00  0.00    +0.205 C 
ATOM      9  O   UNL     1       7.271  -1.040  -0.030  0.00  0.00    -0.286 OA
BRANCH   8  13
ATOM     10  C   UNL     1       3.218   1.694  -0.983  0.00  0.00    +0.004 A 
ATOM     11  C   UNL     1       3.895   1.128  -2.050  0.00  0.00    +0.016 A 
ATOM     12  C   UNL     1       4.844   0.135  -1.828  0.00  0.00    +0.077 A 
ATOM     13  C   UNL     1       5.112  -0.291  -0.511  0.00  0.00    +0.078 A 
ATOM     14  C   UNL     1       4.419   0.290   0.555  0.00  0.00    +0.128 A 
ATOM     15  C   UNL     1       3.475   1.281   0.309  0.00  0.00    +0.046 A 
BRANCH  12  16
ATOM     16  C   UNL     1       5.566  -0.469  -2.965  0.00  0.00    +0.387 C 
ATOM     17  O   UNL     1       5.280  -0.149  -4.110  0.00  0.00    -0.241 OA
ATOM     18  O   UNL     1       6.450  -1.289  -2.762  0.00  0.00    -0.241 OA
ENDBRANCH  12  16
BRANCH  14  19
ATOM     19  O   UNL     1       4.667  -0.111   1.827  0.00  0.00    -0.506 OA
ATOM     20  H   UNL     1       5.313   0.437   2.294  0.00  0.00    +0.292 HD
ENDBRANCH  14  19
ENDBRANCH   8  13
ENDBRANCH   1   8
BRANCH   4  21
ATOM     21  C   UNL     1       4.568  -6.867  -0.368  0.00  0.00    +0.340 C 
ATOM     22  O   UNL     1       5.411  -7.735  -0.270  0.00  0.00    -0.245 OA
BRANCH  21  23
ATOM     23  O   UNL     1       3.270  -7.200  -0.502  0.00  0.00    -0.454 OA
BRANCH  23  24
ATOM     24  C   UNL     1       2.957  -8.594  -0.521  0.00  0.00    +0.217 C 
ATOM     25  C   UNL     1       2.619  -9.079   0.903  0.00  0.00    +0.048 C 
ATOM     26  C   UNL     1       1.073  -9.009   0.972  0.00  0.00    +0.007 C 
ATOM     27  C   UNL     1       0.647  -9.467  -0.445  0.00  0.00    +0.048 C 
ATOM     28  C   UNL     1       1.703  -8.840  -1.379  0.00  0.00    +0.214 C 
BRANCH  28  29
ATOM     29  O   UNL     1       2.009  -9.740  -2.446  0.00  0.00    -0.485 OA
BRANCH  29  30
ATOM     30  C   UNL     1       1.200  -9.700  -3.538  0.00  0.00    +0.121 A 
ATOM     31  C   UNL     1       0.072  -8.893  -3.537  0.00  0.00    +0.049 A 
ATOM     32  C   UNL     1      -0.750  -8.852  -4.646  0.00  0.00    +0.049 A 
ATOM     33  C   UNL     1      -0.446  -9.617  -5.763  0.00  0.00    +0.117 A 
ATOM     34  C   UNL     1       0.683 -10.423  -5.765  0.00  0.00    +0.049 A 
ATOM     35  C   UNL     1       1.507 -10.461  -4.657  0.00  0.00    +0.049 A 
BRANCH  33  36
ATOM     36  O   UNL     1      -1.255  -9.577  -6.855  0.00  0.00    -0.507 OA
ATOM     37  H   UNL     1      -1.013  -8.898  -7.499  0.00  0.00    +0.292 HD
ENDBRANCH  33  36
ENDBRANCH  29  30
ENDBRANCH  28  29
ENDBRANCH  23  24
ENDBRANCH  21  23
ENDBRANCH   4  21
BRANCH   2  38
ATOM     38  O   UNL     1       7.999  -3.436  -0.040  0.00  0.00    -0.506 OA
ATOM     39  H   UNL     1       8.285  -3.330   0.878  0.00  0.00    +0.292 HD
ENDBRANCH   2  38
TORSDOF 11
