REMARK  Name = CHEMBL522428
REMARK  11 active torsions:
REMARK  status: ('A' for Active; 'I' for Inactive)
REMARK    1  A    between atoms: C_1  and  C_2
REMARK    2  A    between atoms: C_5  and  C_8
REMARK    3  A    between atoms: C_9  and  C_10
REMARK    4  A    between atoms: C_13  and  C_16
REMARK    5  A    between atoms: C_16  and  O_18
REMARK    6  A    between atoms: O_18  and  C_19
REMARK    7  A    between atoms: C_19  and  C_20
REMARK    8  A    between atoms: C_20  and  C_29
REMARK    9  A    between atoms: C_23  and  C_24
REMARK   10  A    between atoms: C_23  and  C_25
REMARK   11  A    between atoms: C_29  and  O_30
REMARK                            x       y       z     vdW  Elec       q    Type
REMARK                         _______ _______ _______ _____ _____    ______ ____
ROOT
ATOM      1  C   UNL     1       0.151 -11.050  -0.059  0.00  0.00    +0.339 C 
ATOM      2  O   UNL     1       0.159 -11.652  -1.114  0.00  0.00    -0.245 OA
ENDROOT
BRANCH   1   6
ATOM      3  C   UNL     1       0.095  -6.811  -0.035  0.00  0.00    +0.025 A 
ATOM      4  C   UNL     1       0.104  -7.504  -1.251  0.00  0.00    +0.017 A 
ATOM      5  C   UNL     1       0.123  -8.870  -1.258  0.00  0.00    +0.016 A 
ATOM      6  C   UNL     1       0.132  -9.575  -0.051  0.00  0.00    +0.059 A 
ATOM      7  C   UNL     1       0.123  -8.883   1.165  0.00  0.00    +0.016 A 
ATOM      8  C   UNL     1       0.111  -7.518   1.173  0.00  0.00    +0.017 A 
BRANCH   3  10
ATOM      9  C   UNL     1       0.060  -4.205  -0.021  0.00  0.00    -0.061 C 
ATOM     10  C   UNL     1       0.076  -5.379  -0.028  0.00  0.00    -0.061 C 
BRANCH   9  15
ATOM     11  C   UNL     1      -0.018   1.503   0.010  0.00  0.00    +0.044 C 
ATOM     12  C   UNL     1       0.002  -0.004   0.002  0.00  0.00    -0.050 A 
ATOM     13  C   UNL     1       0.006  -0.686  -1.202  0.00  0.00    +0.004 A 
ATOM     14  C   UNL     1       0.025  -2.065  -1.218  0.00  0.00    +0.017 A 
ATOM     15  C   UNL     1       0.041  -2.774  -0.013  0.00  0.00    +0.025 A 
ATOM     16  C   UNL     1       0.037  -2.078   1.199  0.00  0.00    +0.017 A 
ATOM     17  C   UNL     1       0.023  -0.699   1.199  0.00  0.00    +0.004 A 
ENDBRANCH   9  15
ENDBRANCH   3  10
ENDBRANCH   1   6
BRANCH   1  18
ATOM     18  O   UNL     1       0.160 -11.730   1.105  0.00  0.00    -0.457 OA
BRANCH  18  19
ATOM     19  C   UNL     1       0.179 -13.157   1.022  0.00  0.00    +0.283 C 
BRANCH  19  20
ATOM     20  C   UNL     1       0.187 -13.749   2.432  0.00  0.00    +0.174 C 
ATOM     21  C   UNL     1       0.290 -15.288   2.369  0.00  0.00    +0.096 C 
ATOM     22  C   UNL     1       1.314 -15.610   3.447  0.00  0.00    +0.039 C 
ATOM     23  C   UNL     1       1.776 -16.809   3.792  0.00  0.00    -0.066 C 
ATOM     24  C   UNL     1       1.280 -18.042   3.080  0.00  0.00    +0.039 C 
ATOM     25  C   UNL     1       2.797 -16.936   4.894  0.00  0.00    +0.039 C 
ATOM     26  C   UNL     1       1.683 -14.304   4.029  0.00  0.00    +0.336 C 
ATOM     27  O   UNL     1       2.188 -14.131   5.121  0.00  0.00    -0.245 OA
ATOM     28  O   UNL     1       1.365 -13.335   3.143  0.00  0.00    -0.449 OA
BRANCH  20  29
ATOM     29  C   UNL     1      -1.072 -13.328   3.194  0.00  0.00    +0.207 C 
BRANCH  29  30
ATOM     30  O   UNL     1      -1.187 -11.904   3.173  0.00  0.00    -0.391 OA
ATOM     31  H   UNL     1      -1.964 -11.565   3.638  0.00  0.00    +0.210 HD
ENDBRANCH  29  30
ENDBRANCH  20  29
ENDBRANCH  19  20
ENDBRANCH  18  19
ENDBRANCH   1  18
TORSDOF 8
