REMARK  Name = CHEMBL103628
REMARK  3 active torsions:
REMARK  status: ('A' for Active; 'I' for Inactive)
REMARK    1  A    between atoms: C_1  and  N_2
REMARK    2  A    between atoms: N_27  and  C_34
REMARK    3  A    between atoms: N_30  and  C_33
REMARK                            x       y       z     vdW  Elec       q    Type
REMARK                         _______ _______ _______ _____ _____    ______ ____
ROOT
ATOM      1  C   UNL     1      -0.018   1.496   0.010  0.00  0.00    +0.104 C 
ATOM      2  N   UNL     1       0.002  -0.004   0.002  0.00  0.00    -0.305 NA
ATOM      3  C   UNL     1      -1.413  -0.433   0.280  0.00  0.00    +0.105 C 
ATOM      4  C   UNL     1      -2.321   0.200  -0.755  0.00  0.00    +0.137 C 
ATOM      5  N   UNL     1      -3.584  -0.540  -0.893  0.00  0.00    -0.345 N 
ATOM      6  C   UNL     1      -3.765  -1.885  -0.932  0.00  0.00    +0.095 A 
ATOM      7  C   UNL     1      -5.078  -2.175  -1.093  0.00  0.00    +0.013 A 
ATOM      8  C   UNL     1      -5.794  -0.873  -1.104  0.00  0.00    +0.008 A 
ATOM      9  C   UNL     1      -4.798   0.110  -1.008  0.00  0.00    +0.050 A 
ATOM     10  C   UNL     1      -5.151   1.454  -1.068  0.00  0.00    +0.026 A 
ATOM     11  C   UNL     1      -6.477   1.812  -1.177  0.00  0.00    +0.002 A 
ATOM     12  C   UNL     1      -7.472   0.848  -1.202  0.00  0.00    +0.001 A 
ATOM     13  C   UNL     1      -7.136  -0.491  -1.151  0.00  0.00    +0.010 A 
ATOM     14  C   UNL     1      -5.809  -3.445  -1.246  0.00  0.00    +0.059 C 
ATOM     15  C   UNL     1      -5.637  -4.740  -0.777  0.00  0.00    +0.059 C 
ATOM     16  C   UNL     1      -4.680  -5.379   0.146  0.00  0.00    +0.013 A 
ATOM     17  C   UNL     1      -3.469  -4.963   0.604  0.00  0.00    +0.095 A 
ATOM     18  N   UNL     1      -2.908  -5.911   1.402  0.00  0.00    -0.345 N 
ATOM     19  C   UNL     1      -3.751  -7.006   1.493  0.00  0.00    +0.050 A 
ATOM     20  C   UNL     1      -4.917  -6.704   0.769  0.00  0.00    +0.008 A 
ATOM     21  C   UNL     1      -6.002  -7.579   0.793  0.00  0.00    +0.010 A 
ATOM     22  C   UNL     1      -5.891  -8.805   1.428  0.00  0.00    +0.001 A 
ATOM     23  C   UNL     1      -4.709  -9.136   2.071  0.00  0.00    +0.002 A 
ATOM     24  C   UNL     1      -3.657  -8.250   2.106  0.00  0.00    +0.026 A 
ATOM     25  C   UNL     1      -1.623  -5.817   2.107  0.00  0.00    +0.137 C 
ATOM     26  C   UNL     1      -0.560  -5.068   1.316  0.00  0.00    +0.105 C 
ATOM     27  N   UNL     1       0.791  -5.579   1.689  0.00  0.00    -0.305 NA
ATOM     28  C   UNL     1       1.609  -4.474   2.239  0.00  0.00    +0.065 C 
ATOM     29  C   UNL     1       1.951  -3.444   1.183  0.00  0.00    -0.064 C 
ATOM     30  N   UNL     1       2.290  -2.158   1.798  0.00  0.00    +0.379 N 
ATOM     31  C   UNL     1       2.046  -1.067   0.840  0.00  0.00    -0.064 C 
ATOM     32  C   UNL     1       0.749  -0.375   1.258  0.00  0.00    +0.065 C 
ATOM     33  C   UNL     1       3.708  -2.155   2.184  0.00  0.00    -0.096 C 
ATOM     34  C   UNL     1       1.441  -6.050   0.435  0.00  0.00    +0.104 C 
ATOM     35  C   UNL     1      -6.687  -5.541  -1.476  0.00  0.00    +0.252 C 
ATOM     36  O   UNL     1      -6.784  -6.749  -1.490  0.00  0.00    -0.270 OA
ATOM     37  N   UNL     1      -7.523  -4.722  -2.124  0.00  0.00    -0.248 N 
ATOM     38  C   UNL     1      -7.048  -3.476  -2.083  0.00  0.00    +0.252 C 
ATOM     39  O   UNL     1      -7.540  -2.536  -2.676  0.00  0.00    -0.270 OA
ATOM     40  H   UNL     1      -8.349  -4.994  -2.554  0.00  0.00    +0.158 HD
ATOM     41  H   UNL     1       1.720  -2.021   2.620  0.00  0.00    -0.082 HD
ENDROOT
TORSDOF 0
