REMARK  Name = CHEMBL120645
REMARK  6 active torsions:
REMARK  status: ('A' for Active; 'I' for Inactive)
REMARK    1  A    between atoms: C_1  and  C_2
REMARK    2  A    between atoms: C_2  and  C_3
REMARK    3  A    between atoms: C_2  and  C_4
REMARK    4  A    between atoms: CA_9  and  C_23
REMARK    5  A    between atoms: N_21  and  C_22
REMARK    6  A    between atoms: C_23  and  O_24
REMARK                            x       y       z     vdW  Elec       q    Type
REMARK                         _______ _______ _______ _____ _____    ______ ____
ROOT
ATOM      1  C   UNL     1       0.779  -0.136   1.223  0.00  0.00    +0.145 C 
ATOM      2  C   UNL     1      -0.025   0.401   2.356  0.00  0.00    +0.233 C 
ATOM      3  O   UNL     1       0.481   1.231   3.081  0.00  0.00    -0.274 OA
ATOM      4  N   UNL     1      -1.288   0.008   2.614  0.00  0.00    -0.309 N 
ATOM      5  CA  UNL     1      -1.824  -1.133   1.848  0.00  0.00    +0.099 C 
ATOM      6  C   UNL     1      -2.104  -2.279   2.820  0.00  0.00    +0.034 C 
ATOM      7  C   UNL     1      -0.944  -3.261   2.882  0.00  0.00    +0.041 C 
ATOM      8  C   UNL     1      -1.255  -4.312   3.975  0.00  0.00    +0.110 C 
ATOM      9  N   UNL     1      -0.587  -3.766   5.167  0.00  0.00    -0.343 N 
ATOM     10  C   UNL     1       0.435  -2.906   4.751  0.00  0.00    +0.032 A 
ATOM     11  C   UNL     1       0.301  -2.585   3.405  0.00  0.00    -0.002 A 
ATOM     12  C   UNL     1       1.261  -1.796   2.790  0.00  0.00    +0.019 A 
ATOM     13  C   UNL     1       2.310  -1.270   3.511  0.00  0.00    +0.022 A 
ATOM     14  C   UNL     1       2.413  -1.536   4.865  0.00  0.00    +0.004 A 
ATOM     15  C   UNL     1       1.481  -2.345   5.482  0.00  0.00    +0.023 A 
ATOM     16  N   UNL     1       1.134  -1.549   1.411  0.00  0.00    -0.387 NA
ATOM     17  C   UNL     1       2.411  -1.831   0.742  0.00  0.00    +0.107 C 
ATOM     18  H   UNL     1      -1.827   0.461   3.281  0.00  0.00    +0.149 HD
ATOM     19  H   UNL     1      -0.816  -3.968   6.088  0.00  0.00    +0.146 HD
ATOM     20  H   UNL     1       0.409  -2.135   1.026  0.00  0.00    +0.127 HD
ENDROOT
BRANCH   1  22
ATOM     21  C   UNL     1      -0.328   1.482  -0.326  0.00  0.00    +0.009 C 
ATOM     22  C   UNL     1      -0.029   0.003  -0.069  0.00  0.00    +0.011 C 
ATOM     23  C   UNL     1       0.776  -0.566  -1.239  0.00  0.00    +0.009 C 
ENDBRANCH   1  22
BRANCH   5  24
ATOM     24  C   UNL     1      -3.119  -0.720   1.147  0.00  0.00    +0.178 C 
BRANCH  24  25
ATOM     25  O   UNL     1      -2.834   0.286   0.173  0.00  0.00    -0.393 OA
ATOM     26  H   UNL     1      -3.611   0.596  -0.311  0.00  0.00    +0.209 HD
ENDBRANCH  24  25
ENDBRANCH   5  24
TORSDOF 3
