REMARK  Name = CHEMBL401369
REMARK  12 active torsions:
REMARK  status: ('A' for Active; 'I' for Inactive)
REMARK    1  A    between atoms: C_1  and  C_2
REMARK    2  A    between atoms: C_2  and  C_3
REMARK    3  A    between atoms: C_3  and  C_4
REMARK    4  A    between atoms: C_4  and  C_5
REMARK    5  A    between atoms: C_5  and  C_6
REMARK    6  A    between atoms: C_6  and  N_7
REMARK    7  A    between atoms: N_16  and  C_31
REMARK    8  A    between atoms: C_17  and  C_28
REMARK    9  A    between atoms: CA_22  and  C_26
REMARK   10  A    between atoms: C_26  and  O_27
REMARK   11  A    between atoms: C_28  and  C_29
REMARK   12  A    between atoms: C_28  and  C_30
REMARK                            x       y       z     vdW  Elec       q    Type
REMARK                         _______ _______ _______ _____ _____    ______ ____
ROOT
ATOM      1  N   UNL     1       3.299  -6.831  -4.434  0.00  0.00    -0.346 N 
ATOM      2  C   UNL     1       2.377  -6.089  -5.117  0.00  0.00    +0.090 A 
ATOM      3  C   UNL     1       2.610  -6.167  -6.439  0.00  0.00    -0.020 A 
ATOM      4  C   UNL     1       3.795  -7.005  -6.615  0.00  0.00    +0.024 A 
ATOM      5  C   UNL     1       4.161  -7.431  -5.324  0.00  0.00    +0.051 A 
ATOM      6  C   UNL     1       5.209  -8.333  -5.164  0.00  0.00    +0.026 A 
ATOM      7  C   UNL     1       5.901  -8.786  -6.265  0.00  0.00    +0.004 A 
ATOM      8  C   UNL     1       5.585  -8.325  -7.532  0.00  0.00    +0.024 A 
ATOM      9  C   UNL     1       4.558  -7.408  -7.714  0.00  0.00    +0.040 A 
ATOM     10  N   UNL     1       4.391  -6.866  -8.984  0.00  0.00    -0.321 N 
ATOM     11  C   UNL     1       3.798  -5.555  -9.209  0.00  0.00    +0.162 C 
ATOM     12  C   UNL     1       2.541  -5.687 -10.027  0.00  0.00    +0.234 C 
ATOM     13  O   UNL     1       2.374  -6.642 -10.756  0.00  0.00    -0.274 OA
ATOM     14  N   UNL     1       1.594  -4.709  -9.931  0.00  0.00    -0.309 N 
ATOM     15  CA  UNL     1       1.923  -3.559  -9.067  0.00  0.00    +0.099 C 
ATOM     16  C   UNL     1       2.136  -4.034  -7.631  0.00  0.00    +0.029 C 
ATOM     17  C   UNL     1       1.779  -5.513  -7.510  0.00  0.00    +0.039 C 
ATOM     18  C   UNL     1       4.831  -7.646 -10.144  0.00  0.00    +0.130 C 
ATOM     19  H   UNL     1       0.750  -4.767 -10.406  0.00  0.00    +0.149 HD
ENDROOT
BRANCH  11  20
ATOM     20  C   UNL     1       4.796  -4.668  -9.956  0.00  0.00    +0.012 C 
ATOM     21  C   UNL     1       5.828  -4.118  -8.970  0.00  0.00    +0.009 C 
ATOM     22  C   UNL     1       5.507  -5.494 -11.031  0.00  0.00    +0.009 C 
ENDBRANCH  11  20
BRANCH   1  23
ATOM     23  C   UNL     1       3.365  -6.962  -2.977  0.00  0.00    +0.122 C 
BRANCH  23  24
ATOM     24  C   UNL     1       4.353  -5.937  -2.416  0.00  0.00    +0.022 C 
BRANCH  24  25
ATOM     25  C   UNL     1       4.421  -6.074  -0.894  0.00  0.00    +0.002 C 
BRANCH  25  26
ATOM     26  C   UNL     1       5.409  -5.049  -0.333  0.00  0.00    -0.000 C 
BRANCH  26  28
ATOM     27  C   UNL     1       6.465  -4.161   1.750  0.00  0.00    +0.004 C 
ATOM     28  C   UNL     1       5.478  -5.186   1.189  0.00  0.00    -0.003 C 
ENDBRANCH  26  28
ENDBRANCH  25  26
ENDBRANCH  24  25
ENDBRANCH  23  24
ENDBRANCH   1  23
BRANCH  15  29
ATOM     29  C   UNL     1       3.202  -2.890  -9.575  0.00  0.00    +0.178 C 
BRANCH  29  30
ATOM     30  O   UNL     1       3.139  -2.761 -10.997  0.00  0.00    -0.393 OA
ATOM     31  H   UNL     1       3.845  -2.219 -11.374  0.00  0.00    +0.209 HD
ENDBRANCH  29  30
ENDBRANCH  15  29
TORSDOF 8
