REMARK  Name = CHEMBL184146
REMARK  8 active torsions:
REMARK  status: ('A' for Active; 'I' for Inactive)
REMARK    1  A    between atoms: C_1  and  N_2
REMARK    2  A    between atoms: N_5  and  C_8
REMARK    3  A    between atoms: C_8  and  C_9
REMARK    4  A    between atoms: C_9  and  C_10
REMARK    5  A    between atoms: C_10  and  N_11
REMARK    6  A    between atoms: C_13  and  C_20
REMARK    7  A    between atoms: C_21  and  N_27
REMARK    8  A    between atoms: N_27  and  C_28
REMARK                            x       y       z     vdW  Elec       q    Type
REMARK                         _______ _______ _______ _____ _____    ______ ____
ROOT
ATOM      1  N   UNL     1       0.875  -6.691   3.369  0.00  0.00    -0.346 N 
ATOM      2  C   UNL     1       2.129  -6.984   3.812  0.00  0.00    +0.095 A 
ATOM      3  C   UNL     1       2.085  -7.306   5.135  0.00  0.00    +0.014 A 
ATOM      4  C   UNL     1       0.674  -7.202   5.545  0.00  0.00    +0.008 A 
ATOM      5  C   UNL     1      -0.035  -6.808   4.398  0.00  0.00    +0.050 A 
ATOM      6  C   UNL     1      -1.411  -6.620   4.478  0.00  0.00    +0.026 A 
ATOM      7  C   UNL     1      -2.064  -6.817   5.676  0.00  0.00    +0.002 A 
ATOM      8  C   UNL     1      -1.361  -7.202   6.809  0.00  0.00    +0.001 A 
ATOM      9  C   UNL     1       0.000  -7.403   6.748  0.00  0.00    +0.010 A 
ENDROOT
BRANCH   3  10
ATOM     10  C   UNL     1       3.226  -7.685   5.989  0.00  0.00    +0.072 C 
ATOM     11  C   UNL     1       4.191  -6.842   6.505  0.00  0.00    +0.107 C 
ATOM     12  C   UNL     1       5.107  -7.694   7.289  0.00  0.00    +0.265 C 
ATOM     13  O   UNL     1       6.087  -7.310   7.897  0.00  0.00    -0.268 OA
ATOM     14  N   UNL     1       4.678  -8.966   7.217  0.00  0.00    -0.247 N 
ATOM     15  C   UNL     1       3.564  -9.042   6.469  0.00  0.00    +0.253 C 
ATOM     16  O   UNL     1       2.941 -10.056   6.225  0.00  0.00    -0.270 OA
ATOM     17  H   UNL     1       5.108  -9.721   7.648  0.00  0.00    +0.158 HD
BRANCH  11  18
ATOM     18  N   UNL     1       4.281  -5.471   6.324  0.00  0.00    -0.310 N 
ATOM     19  H   UNL     1       3.545  -4.897   6.588  0.00  0.00    +0.152 HD
BRANCH  18  20
ATOM     20  C   UNL     1       5.431  -4.915   5.762  0.00  0.00    +0.031 A 
ATOM     21  C   UNL     1       6.422  -5.741   5.244  0.00  0.00    +0.023 A 
ATOM     22  C   UNL     1       7.558  -5.187   4.688  0.00  0.00    +0.002 A 
ATOM     23  C   UNL     1       7.712  -3.813   4.647  0.00  0.00    +0.000 A 
ATOM     24  C   UNL     1       6.729  -2.989   5.163  0.00  0.00    +0.002 A 
ATOM     25  C   UNL     1       5.587  -3.535   5.715  0.00  0.00    +0.023 A 
ENDBRANCH  18  20
ENDBRANCH  11  18
ENDBRANCH   3  10
BRANCH   1  26
ATOM     26  C   UNL     1       0.541  -6.302   1.996  0.00  0.00    +0.123 C 
BRANCH  26  27
ATOM     27  C   UNL     1       0.513  -4.776   1.892  0.00  0.00    +0.037 C 
BRANCH  27  28
ATOM     28  C   UNL     1       0.165  -4.369   0.459  0.00  0.00    +0.086 C 
BRANCH  28  33
ATOM     29  C   UNL     1       0.799   1.074  -0.852  0.00  0.00    -0.096 C 
ATOM     30  N   UNL     1       0.861  -0.393  -0.795  0.00  0.00    +0.379 N 
ATOM     31  C   UNL     1      -0.488  -0.947  -0.972  0.00  0.00    -0.064 C 
ATOM     32  C   UNL     1      -0.422  -2.475  -0.932  0.00  0.00    +0.066 C 
ATOM     33  N   UNL     1       0.137  -2.904   0.358  0.00  0.00    -0.306 NA
ATOM     34  C   UNL     1       1.478  -2.337   0.561  0.00  0.00    +0.066 C 
ATOM     35  C   UNL     1       1.396  -0.810   0.508  0.00  0.00    -0.064 C 
ATOM     36  H   UNL     1       1.463  -0.733  -1.530  0.00  0.00    -0.082 HD
ENDBRANCH  28  33
ENDBRANCH  27  28
ENDBRANCH  26  27
ENDBRANCH   1  26
TORSDOF 7
