REMARK  Name = CHEMBL294120
REMARK  2 active torsions:
REMARK  status: ('A' for Active; 'I' for Inactive)
REMARK    1  A    between atoms: C_14  and  C_33
REMARK    2  A    between atoms: C_33  and  O_34
REMARK                            x       y       z     vdW  Elec       q    Type
REMARK                         _______ _______ _______ _____ _____    ______ ____
ROOT
ATOM      1  C   UNL     1      -0.017   1.375   0.010  0.00  0.00    +0.001 A 
ATOM      2  C   UNL     1       1.171   2.091   0.002  0.00  0.00    +0.002 A 
ATOM      3  C   UNL     1       2.379   1.435  -0.038  0.00  0.00    +0.026 A 
ATOM      4  C   UNL     1       2.418   0.044  -0.045  0.00  0.00    +0.050 A 
ATOM      5  C   UNL     1       1.220  -0.684   0.000  0.00  0.00    +0.008 A 
ATOM      6  C   UNL     1       0.002  -0.004   0.002  0.00  0.00    +0.010 A 
ATOM      7  C   UNL     1       1.610  -2.114   0.055  0.00  0.00    +0.013 A 
ATOM      8  C   UNL     1       2.963  -2.134  -0.054  0.00  0.00    +0.095 A 
ATOM      9  N   UNL     1       3.453  -0.866  -0.112  0.00  0.00    -0.346 N 
ATOM     10  C   UNL     1       4.867  -0.487  -0.227  0.00  0.00    +0.124 C 
ATOM     11  C   UNL     1       5.649  -1.590  -0.941  0.00  0.00    +0.050 C 
ATOM     12  C   UNL     1       6.303  -2.497   0.107  0.00  0.00    +0.162 C 
ATOM     13  O   UNL     1       7.203  -3.393  -0.548  0.00  0.00    -0.374 OA
ATOM     14  C   UNL     1       6.988  -4.775  -0.250  0.00  0.00    +0.145 C 
ATOM     15  C   UNL     1       6.048  -5.374  -1.299  0.00  0.00    +0.055 C 
ATOM     16  C   UNL     1       5.339  -6.587  -0.697  0.00  0.00    +0.124 C 
ATOM     17  N   UNL     1       3.889  -6.381  -0.737  0.00  0.00    -0.346 N 
ATOM     18  C   UNL     1       3.212  -5.367  -0.130  0.00  0.00    +0.095 A 
ATOM     19  C   UNL     1       1.885  -5.457  -0.395  0.00  0.00    +0.013 A 
ATOM     20  C   UNL     1       1.724  -6.665  -1.249  0.00  0.00    +0.008 A 
ATOM     21  C   UNL     1       3.008  -7.206  -1.404  0.00  0.00    +0.050 A 
ATOM     22  C   UNL     1       3.167  -8.387  -2.123  0.00  0.00    +0.026 A 
ATOM     23  C   UNL     1       2.075  -8.987  -2.710  0.00  0.00    +0.002 A 
ATOM     24  C   UNL     1       0.813  -8.425  -2.593  0.00  0.00    +0.001 A 
ATOM     25  C   UNL     1       0.633  -7.267  -1.868  0.00  0.00    +0.010 A 
ATOM     26  C   UNL     1       0.759  -4.595   0.009  0.00  0.00    +0.059 C 
ATOM     27  C   UNL     1       0.654  -3.229   0.215  0.00  0.00    +0.059 C 
ATOM     28  C   UNL     1      -0.720  -3.018   0.754  0.00  0.00    +0.252 C 
ATOM     29  O   UNL     1      -1.160  -1.995   1.232  0.00  0.00    -0.270 OA
ATOM     30  N   UNL     1      -1.410  -4.162   0.648  0.00  0.00    -0.248 N 
ATOM     31  C   UNL     1      -0.604  -5.147   0.249  0.00  0.00    +0.252 C 
ATOM     32  O   UNL     1      -0.938  -6.309   0.126  0.00  0.00    -0.270 OA
ATOM     33  H   UNL     1      -2.355  -4.253   0.835  0.00  0.00    +0.158 HD
ENDROOT
BRANCH  14  34
ATOM     34  C   UNL     1       8.327  -5.513  -0.281  0.00  0.00    +0.187 C 
BRANCH  34  35
ATOM     35  O   UNL     1       9.165  -5.024   0.767  0.00  0.00    -0.392 OA
ATOM     36  H   UNL     1      10.033  -5.448   0.808  0.00  0.00    +0.210 HD
ENDBRANCH  34  35
ENDBRANCH  14  34
TORSDOF 2
