REMARK  Name = CHEMBL294120
REMARK  2 active torsions:
REMARK  status: ('A' for Active; 'I' for Inactive)
REMARK    1  A    between atoms: C_14  and  C_33
REMARK    2  A    between atoms: C_33  and  O_34
REMARK                            x       y       z     vdW  Elec       q    Type
REMARK                         _______ _______ _______ _____ _____    ______ ____
ROOT
ATOM      1  C   UNL     1      -0.017   1.374   0.010  0.00  0.00    +0.001 A 
ATOM      2  C   UNL     1       1.169   2.093   0.002  0.00  0.00    +0.002 A 
ATOM      3  C   UNL     1       2.379   1.437  -0.030  0.00  0.00    +0.026 A 
ATOM      4  C   UNL     1       2.415   0.047  -0.039  0.00  0.00    +0.050 A 
ATOM      5  C   UNL     1       1.219  -0.682   0.013  0.00  0.00    +0.008 A 
ATOM      6  C   UNL     1       0.002  -0.004   0.002  0.00  0.00    +0.010 A 
ATOM      7  C   UNL     1       1.612  -2.108   0.083  0.00  0.00    +0.013 A 
ATOM      8  C   UNL     1       2.966  -2.126  -0.045  0.00  0.00    +0.095 A 
ATOM      9  N   UNL     1       3.455  -0.860  -0.107  0.00  0.00    -0.346 N 
ATOM     10  C   UNL     1       4.860  -0.454  -0.222  0.00  0.00    +0.124 C 
ATOM     11  C   UNL     1       5.737  -1.649  -0.595  0.00  0.00    +0.050 C 
ATOM     12  C   UNL     1       6.199  -2.352   0.687  0.00  0.00    +0.162 C 
ATOM     13  O   UNL     1       7.322  -3.182   0.402  0.00  0.00    -0.374 OA
ATOM     14  C   UNL     1       7.066  -4.592   0.395  0.00  0.00    +0.145 C 
ATOM     15  C   UNL     1       5.988  -4.885  -0.639  0.00  0.00    +0.055 C 
ATOM     16  C   UNL     1       5.461  -6.314  -0.556  0.00  0.00    +0.124 C 
ATOM     17  N   UNL     1       3.994  -6.262  -0.516  0.00  0.00    -0.346 N 
ATOM     18  C   UNL     1       3.258  -5.284   0.083  0.00  0.00    +0.095 A 
ATOM     19  C   UNL     1       1.940  -5.455  -0.189  0.00  0.00    +0.013 A 
ATOM     20  C   UNL     1       1.844  -6.719  -0.960  0.00  0.00    +0.008 A 
ATOM     21  C   UNL     1       3.160  -7.189  -1.100  0.00  0.00    +0.050 A 
ATOM     22  C   UNL     1       3.386  -8.407  -1.730  0.00  0.00    +0.026 A 
ATOM     23  C   UNL     1       2.328  -9.116  -2.252  0.00  0.00    +0.002 A 
ATOM     24  C   UNL     1       1.034  -8.628  -2.158  0.00  0.00    +0.001 A 
ATOM     25  C   UNL     1       0.789  -7.428  -1.524  0.00  0.00    +0.010 A 
ATOM     26  C   UNL     1       0.787  -4.598   0.137  0.00  0.00    +0.059 C 
ATOM     27  C   UNL     1       0.665  -3.222   0.280  0.00  0.00    +0.059 C 
ATOM     28  C   UNL     1      -0.720  -3.005   0.785  0.00  0.00    +0.252 C 
ATOM     29  O   UNL     1      -1.179  -1.974   1.229  0.00  0.00    -0.270 OA
ATOM     30  N   UNL     1      -1.401  -4.154   0.700  0.00  0.00    -0.248 N 
ATOM     31  C   UNL     1      -0.579  -5.150   0.357  0.00  0.00    +0.252 C 
ATOM     32  O   UNL     1      -0.909  -6.316   0.272  0.00  0.00    -0.270 OA
ATOM     33  H   UNL     1      -2.353  -4.245   0.857  0.00  0.00    +0.158 HD
ENDROOT
BRANCH  14  34
ATOM     34  C   UNL     1       6.652  -5.034   1.797  0.00  0.00    +0.187 C 
BRANCH  34  35
ATOM     35  O   UNL     1       7.747  -4.850   2.697  0.00  0.00    -0.392 OA
ATOM     36  H   UNL     1       7.555  -5.111   3.608  0.00  0.00    +0.210 HD
ENDBRANCH  34  35
ENDBRANCH  14  34
TORSDOF 2
