REMARK  Name = CHEMBL538718
REMARK  4 active torsions:
REMARK  status: ('A' for Active; 'I' for Inactive)
REMARK    1  A    between atoms: C_1  and  N_2
REMARK    2  A    between atoms: C_4  and  C_11
REMARK    3  A    between atoms: C_12  and  C_18
REMARK    4  A    between atoms: N_31  and  C_36
REMARK                            x       y       z     vdW  Elec       q    Type
REMARK                         _______ _______ _______ _____ _____    ______ ____
ROOT
ATOM      1  C   UNL     1       0.039  -3.248  -1.685  0.00  0.00    +0.059 C 
ATOM      2  C   UNL     1       1.116  -3.713  -2.429  0.00  0.00    +0.059 C 
ATOM      3  C   UNL     1       0.619  -4.884  -3.180  0.00  0.00    +0.252 C 
ATOM      4  O   UNL     1       1.273  -5.564  -3.946  0.00  0.00    -0.270 OA
ATOM      5  N   UNL     1      -0.676  -5.072  -2.875  0.00  0.00    -0.248 N 
ATOM      6  C   UNL     1      -1.091  -4.149  -1.992  0.00  0.00    +0.252 C 
ATOM      7  O   UNL     1      -2.210  -4.066  -1.526  0.00  0.00    -0.270 OA
ATOM      8  H   UNL     1      -1.232  -5.779  -3.239  0.00  0.00    +0.158 HD
ENDROOT
BRANCH   2   9
ATOM      9  C   UNL     1       2.477  -3.151  -2.463  0.00  0.00    +0.016 A 
ATOM     10  C   UNL     1       2.974  -2.114  -3.365  0.00  0.00    +0.008 A 
ATOM     11  C   UNL     1       2.364  -1.389  -4.389  0.00  0.00    +0.010 A 
ATOM     12  C   UNL     1       3.151  -0.462  -5.050  0.00  0.00    +0.001 A 
ATOM     13  C   UNL     1       4.479  -0.260  -4.716  0.00  0.00    +0.002 A 
ATOM     14  C   UNL     1       5.102  -0.971  -3.704  0.00  0.00    +0.026 A 
ATOM     15  C   UNL     1       4.332  -1.912  -3.023  0.00  0.00    +0.050 A 
ATOM     16  N   UNL     1       4.636  -2.767  -2.001  0.00  0.00    -0.343 N 
ATOM     17  C   UNL     1       3.522  -3.492  -1.656  0.00  0.00    +0.028 A 
ATOM     18  C   UNL     1       3.473  -4.509  -0.527  0.00  0.00    +0.056 C 
ATOM     19  C   UNL     1       4.701  -4.238   0.336  0.00  0.00    -0.019 C 
ATOM     20  C   UNL     1       5.055  -5.379   1.301  0.00  0.00    -0.075 C 
ATOM     21  N   UNL     1       6.516  -5.217   1.522  0.00  0.00    +0.378 N 
ATOM     22  C   UNL     1       7.089  -4.499   0.358  0.00  0.00    -0.074 C 
ATOM     23  C   UNL     1       5.931  -4.248  -0.619  0.00  0.00    -0.006 C 
ATOM     24  C   UNL     1       5.958  -2.918  -1.353  0.00  0.00    +0.124 C 
ATOM     25  C   UNL     1       7.147  -6.538   1.649  0.00  0.00    -0.096 C 
ATOM     26  H   UNL     1       6.676  -4.683   2.363  0.00  0.00    -0.082 HD
ENDBRANCH   2   9
BRANCH   1  30
ATOM     27  C   UNL     1      -0.018   1.461   0.010  0.00  0.00    +0.149 C 
ATOM     28  N   UNL     1       0.002  -0.004   0.002  0.00  0.00    -0.349 N 
ATOM     29  C   UNL     1       0.008  -0.776  -1.119  0.00  0.00    +0.095 A 
ATOM     30  C   UNL     1       0.027  -2.094  -0.770  0.00  0.00    +0.013 A 
ATOM     31  C   UNL     1       0.034  -2.137   0.703  0.00  0.00    +0.008 A 
ATOM     32  C   UNL     1       0.024  -0.798   1.130  0.00  0.00    +0.049 A 
ATOM     33  C   UNL     1       0.032  -0.516   2.492  0.00  0.00    +0.026 A 
ATOM     34  C   UNL     1       0.055  -1.546   3.407  0.00  0.00    +0.002 A 
ATOM     35  C   UNL     1       0.069  -2.868   2.985  0.00  0.00    +0.001 A 
ATOM     36  C   UNL     1       0.051  -3.168   1.640  0.00  0.00    +0.010 A 
ENDBRANCH   1  30
TORSDOF 2
