REMARK  Name = CHEMBL328229
REMARK  4 active torsions:
REMARK  status: ('A' for Active; 'I' for Inactive)
REMARK    1  A    between atoms: C_4  and  C_7
REMARK    2  A    between atoms: C_7  and  N_8
REMARK    3  A    between atoms: N_8  and  C_9
REMARK    4  A    between atoms: C_9  and  C_10
REMARK                            x       y       z     vdW  Elec       q    Type
REMARK                         _______ _______ _______ _____ _____    ______ ____
ROOT
ATOM      1  C   UNL     1       5.955  -1.815   2.756  0.00  0.00    +0.103 C 
ATOM      2  C   UNL     1       7.390  -2.358   2.736  0.00  0.00    +0.051 C 
ATOM      3  C   UNL     1       8.375  -1.206   2.918  0.00  0.00    +0.124 C 
ATOM      4  N   UNL     1       8.725  -1.066   4.334  0.00  0.00    -0.346 N 
ATOM      5  C   UNL     1       7.862  -0.855   5.364  0.00  0.00    +0.095 A 
ATOM      6  C   UNL     1       8.529  -0.842   6.545  0.00  0.00    +0.013 A 
ATOM      7  C   UNL     1       9.961  -1.036   6.205  0.00  0.00    +0.008 A 
ATOM      8  C   UNL     1      10.017  -1.134   4.808  0.00  0.00    +0.050 A 
ATOM      9  C   UNL     1      11.251  -1.252   4.176  0.00  0.00    +0.026 A 
ATOM     10  C   UNL     1      12.406  -1.305   4.930  0.00  0.00    +0.002 A 
ATOM     11  C   UNL     1      12.344  -1.260   6.315  0.00  0.00    +0.001 A 
ATOM     12  C   UNL     1      11.129  -1.150   6.955  0.00  0.00    +0.010 A 
ATOM     13  C   UNL     1       8.040  -0.688   7.922  0.00  0.00    +0.059 C 
ATOM     14  C   UNL     1       6.816  -1.009   8.505  0.00  0.00    +0.059 C 
ATOM     15  C   UNL     1       5.637  -1.687   7.942  0.00  0.00    +0.013 A 
ATOM     16  C   UNL     1       5.448  -2.161   6.676  0.00  0.00    +0.095 A 
ATOM     17  N   UNL     1       4.164  -2.575   6.519  0.00  0.00    -0.344 N 
ATOM     18  C   UNL     1       3.502  -2.520   7.730  0.00  0.00    +0.050 A 
ATOM     19  C   UNL     1       4.403  -2.025   8.684  0.00  0.00    +0.008 A 
ATOM     20  C   UNL     1       4.022  -1.998  10.022  0.00  0.00    +0.010 A 
ATOM     21  C   UNL     1       2.727  -2.311  10.378  0.00  0.00    +0.001 A 
ATOM     22  C   UNL     1       1.812  -2.710   9.418  0.00  0.00    +0.002 A 
ATOM     23  C   UNL     1       2.197  -2.826   8.101  0.00  0.00    +0.026 A 
ATOM     24  C   UNL     1       3.535  -3.015   5.272  0.00  0.00    +0.150 C 
ATOM     25  C   UNL     1       4.004  -2.165   4.097  0.00  0.00    +0.181 C 
ATOM     26  O   UNL     1       5.146  -2.764   3.479  0.00  0.00    -0.377 OA
ATOM     27  C   UNL     1       6.891  -0.480   9.891  0.00  0.00    +0.252 C 
ATOM     28  O   UNL     1       5.993  -0.392  10.698  0.00  0.00    -0.270 OA
ATOM     29  N   UNL     1       8.142  -0.072  10.142  0.00  0.00    -0.248 N 
ATOM     30  C   UNL     1       8.870  -0.129   9.020  0.00  0.00    +0.252 C 
ATOM     31  O   UNL     1      10.022   0.248   8.931  0.00  0.00    -0.270 OA
ATOM     32  H   UNL     1       8.470   0.221  11.006  0.00  0.00    +0.158 HD
ENDROOT
BRANCH   1  33
ATOM     33  C   UNL     1       5.435  -1.670   1.325  0.00  0.00    -0.050 C 
BRANCH  33  34
ATOM     34  N   UNL     1       4.098  -1.061   1.348  0.00  0.00    +0.383 N 
ATOM     35  H   UNL     1       4.133  -0.194   1.862  0.00  0.00    -0.085 HD
ATOM     36  H   UNL     1       3.450  -1.692   1.796  0.00  0.00    -0.085 HD
BRANCH  34  37
ATOM     37  C   UNL     1       3.656  -0.798  -0.028  0.00  0.00    -0.047 C 
BRANCH  37  41
ATOM     38  C   UNL     1      -0.232   0.972   0.039  0.00  0.00    +0.000 A 
ATOM     39  C   UNL     1       0.894   1.774   0.077  0.00  0.00    +0.000 A 
ATOM     40  C   UNL     1       2.152   1.201   0.056  0.00  0.00    +0.002 A 
ATOM     41  C   UNL     1       2.284  -0.174  -0.003  0.00  0.00    -0.064 A 
ATOM     42  C   UNL     1       1.159  -0.976  -0.041  0.00  0.00    +0.002 A 
ATOM     43  C   UNL     1      -0.099  -0.403  -0.021  0.00  0.00    +0.000 A 
ENDBRANCH  37  41
ENDBRANCH  34  37
ENDBRANCH  33  34
ENDBRANCH   1  33
TORSDOF 4
