REMARK  Name = CHEMBL175845
REMARK  8 active torsions:
REMARK  status: ('A' for Active; 'I' for Inactive)
REMARK    1  A    between atoms: C_1  and  N_2
REMARK    2  A    between atoms: N_5  and  C_8
REMARK    3  A    between atoms: C_8  and  C_9
REMARK    4  A    between atoms: C_9  and  C_10
REMARK    5  A    between atoms: C_10  and  N_11
REMARK    6  A    between atoms: C_18  and  C_20
REMARK    7  A    between atoms: C_21  and  C_27
REMARK    8  A    between atoms: N_29  and  C_36
REMARK                            x       y       z     vdW  Elec       q    Type
REMARK                         _______ _______ _______ _____ _____    ______ ____
ROOT
ATOM      1  C   UNL     1       0.364  -7.867   6.916  0.00  0.00    +0.077 C 
ATOM      2  C   UNL     1      -0.868  -8.382   7.306  0.00  0.00    +0.060 C 
ATOM      3  C   UNL     1      -0.745  -8.687   8.750  0.00  0.00    +0.252 C 
ATOM      4  O   UNL     1      -1.618  -9.155   9.452  0.00  0.00    -0.270 OA
ATOM      5  N   UNL     1       0.494  -8.359   9.152  0.00  0.00    -0.248 N 
ATOM      6  C   UNL     1       1.211  -7.873   8.124  0.00  0.00    +0.253 C 
ATOM      7  O   UNL     1       2.365  -7.497   8.181  0.00  0.00    -0.270 OA
ATOM      8  H   UNL     1       0.827  -8.462  10.057  0.00  0.00    +0.158 HD
ENDROOT
BRANCH   1  16
ATOM      9  N   UNL     1       0.656  -6.711   3.462  0.00  0.00    -0.263 N 
ATOM     10  C   UNL     1       1.998  -6.790   3.739  0.00  0.00    +0.070 A 
ATOM     11  C   UNL     1       3.149  -6.530   2.998  0.00  0.00    +0.028 A 
ATOM     12  C   UNL     1       4.386  -6.709   3.574  0.00  0.00    +0.002 A 
ATOM     13  C   UNL     1       4.498  -7.146   4.888  0.00  0.00    +0.001 A 
ATOM     14  C   UNL     1       3.383  -7.407   5.631  0.00  0.00    +0.012 A 
ATOM     15  C   UNL     1       2.117  -7.232   5.069  0.00  0.00    +0.028 A 
ATOM     16  C   UNL     1       0.748  -7.412   5.568  0.00  0.00    +0.106 A 
ATOM     17  N   UNL     1      -0.074  -7.090   4.593  0.00  0.00    -0.170 NA
BRANCH   9  18
ATOM     18  C   UNL     1       0.079  -6.291   2.182  0.00  0.00    +0.142 C 
BRANCH  18  19
ATOM     19  C   UNL     1      -0.130  -4.775   2.191  0.00  0.00    +0.005 C 
BRANCH  19  20
ATOM     20  C   UNL     1      -0.733  -4.336   0.855  0.00  0.00    -0.077 C 
BRANCH  20  25
ATOM     21  C   UNL     1      -0.722   1.182  -0.286  0.00  0.00    +0.104 C 
ATOM     22  N   UNL     1      -0.551  -0.277  -0.247  0.00  0.00    -0.309 NA
ATOM     23  C   UNL     1      -1.847  -0.962  -0.354  0.00  0.00    +0.065 C 
ATOM     24  C   UNL     1      -1.621  -2.475  -0.370  0.00  0.00    -0.063 C 
ATOM     25  N   UNL     1      -0.933  -2.881   0.863  0.00  0.00    +0.381 N 
ATOM     26  C   UNL     1       0.369  -2.208   0.943  0.00  0.00    -0.063 C 
ATOM     27  C   UNL     1       0.160  -0.692   0.970  0.00  0.00    +0.065 C 
ATOM     28  H   UNL     1      -1.494  -2.624   1.661  0.00  0.00    -0.082 HD
ENDBRANCH  20  25
ENDBRANCH  19  20
ENDBRANCH  18  19
ENDBRANCH   9  18
ENDBRANCH   1  16
BRANCH   2  29
ATOM     29  C   UNL     1      -2.050  -8.583   6.457  0.00  0.00    +0.013 A 
ATOM     30  C   UNL     1      -2.234  -9.572   5.531  0.00  0.00    +0.101 A 
ATOM     31  N   UNL     1      -3.453  -9.430   4.946  0.00  0.00    -0.315 N 
ATOM     32  C   UNL     1      -4.113  -8.335   5.471  0.00  0.00    +0.054 A 
ATOM     33  C   UNL     1      -3.274  -7.761   6.441  0.00  0.00    +0.008 A 
ATOM     34  C   UNL     1      -3.690  -6.634   7.145  0.00  0.00    +0.010 A 
ATOM     35  C   UNL     1      -4.929  -6.088   6.888  0.00  0.00    +0.001 A 
ATOM     36  C   UNL     1      -5.760  -6.656   5.934  0.00  0.00    +0.002 A 
ATOM     37  C   UNL     1      -5.357  -7.767   5.224  0.00  0.00    +0.027 A 
BRANCH  31  38
ATOM     38  C   UNL     1      -3.965 -10.271   3.952  0.00  0.00    +0.047 A 
ATOM     39  C   UNL     1      -5.255 -10.800   4.089  0.00  0.00    +0.027 A 
ATOM     40  C   UNL     1      -5.777 -11.620   3.140  0.00  0.00    +0.010 A 
ATOM     41  C   UNL     1      -5.020 -11.947   2.001  0.00  0.00    -0.018 A 
ATOM     42  C   UNL     1      -5.535 -12.792   1.003  0.00  0.00    +0.008 A 
ATOM     43  C   UNL     1      -4.776 -13.088  -0.087  0.00  0.00    +0.001 A 
ATOM     44  C   UNL     1      -3.492 -12.567  -0.231  0.00  0.00    +0.001 A 
ATOM     45  C   UNL     1      -2.959 -11.745   0.715  0.00  0.00    +0.008 A 
ATOM     46  C   UNL     1      -3.714 -11.416   1.854  0.00  0.00    -0.016 A 
ATOM     47  C   UNL     1      -3.198 -10.566   2.847  0.00  0.00    +0.034 A 
ENDBRANCH  31  38
ENDBRANCH   2  29
TORSDOF 7
