REMARK  Name = CHEMBL91829
REMARK  4 active torsions:
REMARK  status: ('A' for Active; 'I' for Inactive)
REMARK    1  A    between atoms: C_1  and  N_2
REMARK    2  A    between atoms: N_2  and  C_3
REMARK    3  A    between atoms: N_2  and  C_4
REMARK    4  A    between atoms: C_4  and  C_5
REMARK                            x       y       z     vdW  Elec       q    Type
REMARK                         _______ _______ _______ _____ _____    ______ ____
ROOT
ATOM      1  C   UNL     1      -2.114  -0.005  -1.228  0.00  0.00    +0.104 C 
ATOM      2  C   UNL     1      -3.608  -0.338  -1.117  0.00  0.00    +0.051 C 
ATOM      3  C   UNL     1      -4.374   0.895  -0.644  0.00  0.00    +0.124 C 
ATOM      4  N   UNL     1      -4.891   1.635  -1.797  0.00  0.00    -0.346 N 
ATOM      5  C   UNL     1      -4.161   2.144  -2.827  0.00  0.00    +0.095 A 
ATOM      6  C   UNL     1      -4.977   2.711  -3.750  0.00  0.00    +0.013 A 
ATOM      7  C   UNL     1      -6.355   2.564  -3.220  0.00  0.00    +0.008 A 
ATOM      8  C   UNL     1      -6.228   1.916  -1.985  0.00  0.00    +0.050 A 
ATOM      9  C   UNL     1      -7.357   1.696  -1.203  0.00  0.00    +0.026 A 
ATOM     10  C   UNL     1      -8.598   2.087  -1.665  0.00  0.00    +0.002 A 
ATOM     11  C   UNL     1      -8.728   2.682  -2.912  0.00  0.00    +0.001 A 
ATOM     12  C   UNL     1      -7.619   2.899  -3.699  0.00  0.00    +0.010 A 
ATOM     13  C   UNL     1      -4.670   3.351  -5.037  0.00  0.00    +0.059 C 
ATOM     14  C   UNL     1      -3.626   3.153  -5.937  0.00  0.00    +0.059 C 
ATOM     15  C   UNL     1      -2.527   2.173  -5.928  0.00  0.00    +0.013 A 
ATOM     16  C   UNL     1      -2.251   1.209  -5.002  0.00  0.00    +0.095 A 
ATOM     17  N   UNL     1      -1.059   0.621  -5.282  0.00  0.00    -0.344 N 
ATOM     18  C   UNL     1      -0.580   1.084  -6.492  0.00  0.00    +0.050 A 
ATOM     19  C   UNL     1      -1.498   2.025  -6.981  0.00  0.00    +0.008 A 
ATOM     20  C   UNL     1      -1.316   2.546  -8.257  0.00  0.00    +0.010 A 
ATOM     21  C   UNL     1      -0.168   2.256  -8.964  0.00  0.00    +0.001 A 
ATOM     22  C   UNL     1       0.784   1.399  -8.436  0.00  0.00    +0.002 A 
ATOM     23  C   UNL     1       0.577   0.806  -7.212  0.00  0.00    +0.026 A 
ATOM     24  C   UNL     1      -0.352  -0.356  -4.452  0.00  0.00    +0.150 C 
ATOM     25  C   UNL     1      -0.478  -0.006  -2.974  0.00  0.00    +0.181 C 
ATOM     26  O   UNL     1      -1.611  -0.666  -2.404  0.00  0.00    -0.377 OA
ATOM     27  C   UNL     1      -3.798   4.202  -6.975  0.00  0.00    +0.252 C 
ATOM     28  O   UNL     1      -3.025   4.505  -7.856  0.00  0.00    -0.270 OA
ATOM     29  N   UNL     1      -4.973   4.820  -6.789  0.00  0.00    -0.248 N 
ATOM     30  C   UNL     1      -5.529   4.398  -5.647  0.00  0.00    +0.252 C 
ATOM     31  O   UNL     1      -6.564   4.838  -5.186  0.00  0.00    -0.270 OA
ATOM     32  H   UNL     1      -5.360   5.473  -7.392  0.00  0.00    +0.158 HD
ENDROOT
BRANCH   1  33
ATOM     33  C   UNL     1      -1.376  -0.512   0.012  0.00  0.00    -0.048 C 
BRANCH  33  35
ATOM     34  C   UNL     1       0.102   1.377   0.001  0.00  0.00    -0.096 C 
ATOM     35  N   UNL     1       0.029  -0.090  -0.047  0.00  0.00    +0.378 N 
ATOM     36  C   UNL     1       0.759  -0.654   1.097  0.00  0.00    -0.096 C 
ATOM     37  H   UNL     1       0.444  -0.419  -0.906  0.00  0.00    -0.083 HD
ENDBRANCH  33  35
ENDBRANCH   1  33
TORSDOF 2
