REMARK  Name = CHEMBL283930
REMARK  0 active torsions:
REMARK  status: ('A' for Active; 'I' for Inactive)
REMARK                            x       y       z     vdW  Elec       q    Type
REMARK                         _______ _______ _______ _____ _____    ______ ____
ROOT
ATOM      1  C   UNL     1      -0.088   1.289   0.966  0.00  0.00    +0.001 A 
ATOM      2  C   UNL     1       1.057   2.006   1.267  0.00  0.00    +0.002 A 
ATOM      3  C   UNL     1       2.305   1.411   1.336  0.00  0.00    +0.026 A 
ATOM      4  C   UNL     1       2.370   0.041   1.087  0.00  0.00    +0.052 A 
ATOM      5  C   UNL     1       1.200  -0.690   0.780  0.00  0.00    +0.008 A 
ATOM      6  C   UNL     1      -0.051  -0.072   0.714  0.00  0.00    +0.010 A 
ATOM      7  C   UNL     1       1.610  -2.078   0.579  0.00  0.00    +0.021 A 
ATOM      8  C   UNL     1       0.937  -3.263   0.259  0.00  0.00    +0.035 A 
ATOM      9  C   UNL     1       1.648  -4.468   0.143  0.00  0.00    +0.059 A 
ATOM     10  C   UNL     1       3.029  -4.493   0.345  0.00  0.00    +0.023 A 
ATOM     11  C   UNL     1       4.049  -5.538   0.311  0.00  0.00    +0.008 A 
ATOM     12  C   UNL     1       3.968  -6.908   0.056  0.00  0.00    +0.010 A 
ATOM     13  C   UNL     1       5.153  -7.624   0.106  0.00  0.00    +0.001 A 
ATOM     14  C   UNL     1       6.361  -7.014   0.394  0.00  0.00    +0.002 A 
ATOM     15  C   UNL     1       6.461  -5.657   0.650  0.00  0.00    +0.026 A 
ATOM     16  C   UNL     1       5.282  -4.914   0.607  0.00  0.00    +0.052 A 
ATOM     17  N   UNL     1       5.062  -3.573   0.813  0.00  0.00    -0.314 N 
ATOM     18  C   UNL     1       3.708  -3.299   0.663  0.00  0.00    +0.077 A 
ATOM     19  C   UNL     1       3.004  -2.101   0.778  0.00  0.00    +0.077 A 
ATOM     20  N   UNL     1       3.443  -0.817   1.080  0.00  0.00    -0.314 N 
ATOM     21  C   UNL     1       4.840  -0.465   1.341  0.00  0.00    +0.287 C 
ATOM     22  O   UNL     1       5.558  -1.522   1.919  0.00  0.00    -0.339 OA
ATOM     23  C   UNL     1       6.074  -2.567   1.139  0.00  0.00    +0.287 C 
ATOM     24  C   UNL     1       0.633  -5.495  -0.199  0.00  0.00    +0.270 C 
ATOM     25  O   UNL     1       0.850  -6.678  -0.384  0.00  0.00    -0.268 OA
ATOM     26  N   UNL     1      -0.568  -4.894  -0.269  0.00  0.00    -0.161 NA
ATOM     27  C   UNL     1      -0.475  -3.601  -0.016  0.00  0.00    +0.118 C 
ATOM     28  N   UNL     1      -1.515  -2.719  -0.009  0.00  0.00    -0.344 N 
ATOM     29  H   UNL     1      -1.395  -1.824  -0.362  0.00  0.00    +0.144 HD
ATOM     30  H   UNL     1      -2.376  -2.987   0.350  0.00  0.00    +0.144 HD
ENDROOT
TORSDOF 0
