REMARK  Name = CHEMBL63262
REMARK  6 active torsions:
REMARK  status: ('A' for Active; 'I' for Inactive)
REMARK    1  A    between atoms: C_1  and  C_2
REMARK    2  A    between atoms: C_2  and  C_3
REMARK    3  A    between atoms: C_2  and  C_4
REMARK    4  A    between atoms: CA_8  and  C_23
REMARK    5  A    between atoms: N_21  and  C_22
REMARK    6  A    between atoms: C_23  and  O_24
REMARK                            x       y       z     vdW  Elec       q    Type
REMARK                         _______ _______ _______ _____ _____    ______ ____
ROOT
ATOM      1  C   UNL     1       0.787  -0.604   1.313  0.00  0.00    +0.131 C 
ATOM      2  C   UNL     1       0.047  -0.157   2.520  0.00  0.00    +0.100 C 
ATOM      3  N   UNL     1      -1.130   0.276   2.616  0.00  0.00    -0.273 NA
ATOM      4  CA  UNL     1      -1.708   0.351   3.957  0.00  0.00    +0.136 C 
ATOM      5  C   UNL     1      -1.556  -1.093   4.467  0.00  0.00    +0.066 C 
ATOM      6  C   UNL     1      -2.098  -2.068   3.459  0.00  0.00    -0.019 A 
ATOM      7  C   UNL     1      -3.354  -2.534   3.723  0.00  0.00    +0.087 A 
ATOM      8  N   UNL     1      -3.744  -3.393   2.761  0.00  0.00    -0.360 N 
ATOM      9  H   UNL     1      -4.596  -3.858   2.721  0.00  0.00    +0.165 HD
ATOM     10  C   UNL     1      -2.733  -3.511   1.833  0.00  0.00    +0.049 A 
ATOM     11  C   UNL     1      -1.637  -2.686   2.222  0.00  0.00    +0.024 A 
ATOM     12  C   UNL     1      -0.533  -2.737   1.355  0.00  0.00    +0.040 A 
ATOM     13  C   UNL     1      -0.560  -3.533   0.204  0.00  0.00    +0.024 A 
ATOM     14  C   UNL     1      -1.641  -4.310  -0.143  0.00  0.00    +0.004 A 
ATOM     15  C   UNL     1      -2.734  -4.295   0.685  0.00  0.00    +0.026 A 
ATOM     16  N   UNL     1       0.690  -2.073   1.433  0.00  0.00    -0.323 N 
ATOM     17  C   UNL     1       1.921  -2.854   1.653  0.00  0.00    +0.130 C 
ATOM     18  S   UNL     1       1.071  -0.223   3.952  0.00  0.00    -0.034 SA
ENDROOT
BRANCH   1  20
ATOM     19  C   UNL     1       0.105   1.430   0.038  0.00  0.00    +0.009 C 
ATOM     20  C   UNL     1       0.092  -0.100   0.052  0.00  0.00    +0.010 C 
ATOM     21  C   UNL     1       0.828  -0.628  -1.181  0.00  0.00    +0.009 C 
ENDBRANCH   1  20
BRANCH   4  22
ATOM     22  C   UNL     1      -1.105   1.393   4.883  0.00  0.00    +0.182 C 
BRANCH  22  23
ATOM     23  O   UNL     1      -1.310   2.696   4.332  0.00  0.00    -0.393 OA
ATOM     24  H   UNL     1      -0.950   3.413   4.872  0.00  0.00    +0.209 HD
ENDBRANCH  22  23
ENDBRANCH   4  22
TORSDOF 3
