REMARK  Name = CHEMBL54382
REMARK  6 active torsions:
REMARK  status: ('A' for Active; 'I' for Inactive)
REMARK    1  A    between atoms: C_1  and  C_2
REMARK    2  A    between atoms: C_2  and  N_3
REMARK    3  A    between atoms: C_6  and  N_9
REMARK    4  A    between atoms: C_11  and  C_18
REMARK    5  A    between atoms: C_19  and  C_25
REMARK    6  A    between atoms: N_27  and  C_34
REMARK                            x       y       z     vdW  Elec       q    Type
REMARK                         _______ _______ _______ _____ _____    ______ ____
ROOT
ATOM      1  N   UNL     1       3.394  -2.449   3.788  0.00  0.00    -0.343 N 
ATOM      2  C   UNL     1       2.986  -2.059   5.027  0.00  0.00    +0.095 A 
ATOM      3  C   UNL     1       3.785  -2.628   5.974  0.00  0.00    +0.013 A 
ATOM      4  C   UNL     1       4.777  -3.444   5.251  0.00  0.00    +0.008 A 
ATOM      5  C   UNL     1       4.478  -3.296   3.886  0.00  0.00    +0.050 A 
ATOM      6  C   UNL     1       5.252  -3.962   2.942  0.00  0.00    +0.026 A 
ATOM      7  C   UNL     1       6.299  -4.761   3.351  0.00  0.00    +0.002 A 
ATOM      8  C   UNL     1       6.591  -4.909   4.699  0.00  0.00    +0.001 A 
ATOM      9  C   UNL     1       5.840  -4.251   5.649  0.00  0.00    +0.010 A 
ENDROOT
BRANCH   3  10
ATOM     10  C   UNL     1       3.679  -2.460   7.433  0.00  0.00    +0.059 C 
ATOM     11  C   UNL     1       2.737  -3.040   8.274  0.00  0.00    +0.059 C 
ATOM     12  C   UNL     1       3.055  -2.563   9.636  0.00  0.00    +0.252 C 
ATOM     13  O   UNL     1       2.450  -2.855  10.649  0.00  0.00    -0.270 OA
ATOM     14  N   UNL     1       4.125  -1.753   9.568  0.00  0.00    -0.248 N 
ATOM     15  C   UNL     1       4.556  -1.647   8.300  0.00  0.00    +0.252 C 
ATOM     16  O   UNL     1       5.507  -0.988   7.928  0.00  0.00    -0.270 OA
ATOM     17  H   UNL     1       4.532  -1.310  10.329  0.00  0.00    +0.158 HD
BRANCH  11  18
ATOM     18  C   UNL     1       1.642  -3.946   7.887  0.00  0.00    +0.013 A 
ATOM     19  C   UNL     1       1.754  -5.263   7.549  0.00  0.00    +0.095 A 
ATOM     20  N   UNL     1       0.525  -5.766   7.252  0.00  0.00    -0.349 N 
ATOM     21  C   UNL     1      -0.438  -4.787   7.386  0.00  0.00    +0.049 A 
ATOM     22  C   UNL     1       0.211  -3.610   7.794  0.00  0.00    +0.008 A 
ATOM     23  C   UNL     1      -0.525  -2.448   8.015  0.00  0.00    +0.010 A 
ATOM     24  C   UNL     1      -1.891  -2.462   7.835  0.00  0.00    +0.001 A 
ATOM     25  C   UNL     1      -2.534  -3.625   7.436  0.00  0.00    +0.002 A 
ATOM     26  C   UNL     1      -1.817  -4.779   7.206  0.00  0.00    +0.026 A 
ATOM     27  C   UNL     1       0.262  -7.149   6.847  0.00  0.00    +0.149 C 
ENDBRANCH  11  18
ENDBRANCH   3  10
BRANCH   1  31
ATOM     28  N   UNL     1       0.713  -0.491   1.192  0.00  0.00    +0.380 N 
ATOM     29  C   UNL     1       2.119  -0.074   1.125  0.00  0.00    -0.077 C 
ATOM     30  C   UNL     1       2.844  -0.509   2.400  0.00  0.00    +0.006 C 
ATOM     31  C   UNL     1       2.767  -2.033   2.531  0.00  0.00    +0.084 C 
ATOM     32  C   UNL     1       1.297  -2.462   2.525  0.00  0.00    +0.006 C 
ATOM     33  C   UNL     1       0.629  -1.955   1.246  0.00  0.00    -0.077 C 
ATOM     34  H   UNL     1       0.287  -0.100   2.020  0.00  0.00    -0.082 HD
BRANCH  28  36
ATOM     35  C   UNL     1      -0.019   1.526   0.010  0.00  0.00    -0.017 C 
ATOM     36  C   UNL     1       0.002  -0.004   0.002  0.00  0.00    -0.082 C 
ENDBRANCH  28  36
ENDBRANCH   1  31
TORSDOF 4
