REMARK  Name = CHEMBL48988
REMARK  12 active torsions:
REMARK  status: ('A' for Active; 'I' for Inactive)
REMARK    1  A    between atoms: C_3  and  C_34
REMARK    2  A    between atoms: C_4  and  C_8
REMARK    3  A    between atoms: C_5  and  O_7
REMARK    4  A    between atoms: C_8  and  C_10
REMARK    5  A    between atoms: C_11  and  O_33
REMARK    6  A    between atoms: C_13  and  C_17
REMARK    7  A    between atoms: C_15  and  O_16
REMARK    8  A    between atoms: C_17  and  O_19
REMARK    9  A    between atoms: O_19  and  C_20
REMARK   10  A    between atoms: C_24  and  O_25
REMARK   11  A    between atoms: O_25  and  C_26
REMARK   12  A    between atoms: C_29  and  O_32
REMARK                            x       y       z     vdW  Elec       q    Type
REMARK                         _______ _______ _______ _____ _____    ______ ____
ROOT
ATOM      1  C   UNL     1       4.612  -2.352   0.631  0.00  0.00    +0.105 A 
ATOM      2  C   UNL     1       3.341  -2.925   0.793  0.00  0.00    +0.132 A 
ATOM      3  C   UNL     1       3.205  -4.302   0.833  0.00  0.00    +0.061 A 
ATOM      4  C   UNL     1       4.330  -5.120   0.713  0.00  0.00    +0.066 A 
ATOM      5  C   UNL     1       5.595  -4.554   0.552  0.00  0.00    +0.061 A 
ATOM      6  C   UNL     1       5.739  -3.178   0.505  0.00  0.00    +0.132 A 
ENDROOT
BRANCH   1   7
ATOM      7  C   UNL     1       4.761  -0.887   0.589  0.00  0.00    +0.204 C 
ATOM      8  O   UNL     1       5.870  -0.390   0.546  0.00  0.00    -0.286 OA
BRANCH   7  12
ATOM      9  C   UNL     1       1.308   1.607   0.614  0.00  0.00    +0.004 A 
ATOM     10  C   UNL     1       1.775   1.101  -0.586  0.00  0.00    +0.016 A 
ATOM     11  C   UNL     1       2.902   0.285  -0.609  0.00  0.00    +0.077 A 
ATOM     12  C   UNL     1       3.565  -0.022   0.597  0.00  0.00    +0.078 A 
ATOM     13  C   UNL     1       3.079   0.497   1.801  0.00  0.00    +0.128 A 
ATOM     14  C   UNL     1       1.952   1.310   1.799  0.00  0.00    +0.046 A 
BRANCH  11  15
ATOM     15  C   UNL     1       3.401  -0.256  -1.889  0.00  0.00    +0.387 C 
ATOM     16  O   UNL     1       2.769  -0.069  -2.920  0.00  0.00    -0.241 OA
ATOM     17  O   UNL     1       4.446  -0.890  -1.919  0.00  0.00    -0.241 OA
ENDBRANCH  11  15
BRANCH  13  18
ATOM     18  O   UNL     1       3.707   0.209   2.968  0.00  0.00    -0.506 OA
ATOM     19  H   UNL     1       4.349   0.876   3.245  0.00  0.00    +0.292 HD
ENDBRANCH  13  18
ENDBRANCH   7  12
ENDBRANCH   1   7
BRANCH   6  20
ATOM     20  O   UNL     1       6.969  -2.629   0.343  0.00  0.00    -0.506 OA
ATOM     21  H   UNL     1       7.434  -2.456   1.173  0.00  0.00    +0.292 HD
ENDBRANCH   6  20
BRANCH   4  22
ATOM     22  C   UNL     1       4.179  -6.591   0.756  0.00  0.00    +0.340 C 
ATOM     23  O   UNL     1       3.079  -7.085   0.896  0.00  0.00    -0.245 OA
BRANCH  22  24
ATOM     24  O   UNL     1       5.263  -7.382   0.641  0.00  0.00    -0.454 OA
BRANCH  24  25
ATOM     25  C   UNL     1       5.045  -8.793   0.692  0.00  0.00    +0.217 C 
ATOM     26  C   UNL     1       4.863  -9.352  -0.735  0.00  0.00    +0.048 C 
ATOM     27  C   UNL     1       5.568 -10.730  -0.696  0.00  0.00    +0.007 C 
ATOM     28  C   UNL     1       6.803 -10.458   0.198  0.00  0.00    +0.048 C 
ATOM     29  C   UNL     1       6.278  -9.497   1.285  0.00  0.00    +0.214 C 
BRANCH  29  30
ATOM     30  O   UNL     1       7.281  -8.533   1.612  0.00  0.00    -0.485 OA
BRANCH  30  31
ATOM     31  C   UNL     1       8.177  -8.877   2.576  0.00  0.00    +0.121 A 
ATOM     32  C   UNL     1       8.168 -10.159   3.105  0.00  0.00    +0.049 A 
ATOM     33  C   UNL     1       9.077 -10.508   4.085  0.00  0.00    +0.049 A 
ATOM     34  C   UNL     1      10.000  -9.576   4.538  0.00  0.00    +0.117 A 
ATOM     35  C   UNL     1      10.010  -8.295   4.007  0.00  0.00    +0.049 A 
ATOM     36  C   UNL     1       9.103  -7.947   3.025  0.00  0.00    +0.049 A 
BRANCH  34  37
ATOM     37  O   UNL     1      10.895  -9.920   5.502  0.00  0.00    -0.507 OA
ATOM     38  H   UNL     1      11.724 -10.281   5.159  0.00  0.00    +0.292 HD
ENDBRANCH  34  37
ENDBRANCH  30  31
ENDBRANCH  29  30
ENDBRANCH  24  25
ENDBRANCH  22  24
ENDBRANCH   4  22
BRANCH   2  39
ATOM     39  O   UNL     1       2.248  -2.131   0.910  0.00  0.00    -0.506 OA
ATOM     40  H   UNL     1       1.780  -1.981   0.078  0.00  0.00    +0.292 HD
ENDBRANCH   2  39
TORSDOF 12
