REMARK  Name = CHEMBL175956
REMARK  3 active torsions:
REMARK  status: ('A' for Active; 'I' for Inactive)
REMARK    1  A    between atoms: C_7  and  C_11
REMARK    2  A    between atoms: C_12  and  C_18
REMARK    3  A    between atoms: N_20  and  C_27
REMARK                            x       y       z     vdW  Elec       q    Type
REMARK                         _______ _______ _______ _____ _____    ______ ____
ROOT
ATOM      1  C   UNL     1       0.672  -3.248  -0.021  0.00  0.00    +0.077 C 
ATOM      2  C   UNL     1       1.009  -4.594  -0.122  0.00  0.00    +0.060 C 
ATOM      3  C   UNL     1      -0.270  -5.340  -0.070  0.00  0.00    +0.252 C 
ATOM      4  O   UNL     1      -0.390  -6.547  -0.129  0.00  0.00    -0.270 OA
ATOM      5  N   UNL     1      -1.275  -4.456   0.056  0.00  0.00    -0.248 N 
ATOM      6  C   UNL     1      -0.797  -3.201   0.098  0.00  0.00    +0.253 C 
ATOM      7  O   UNL     1      -1.466  -2.193   0.213  0.00  0.00    -0.270 OA
ATOM      8  H   UNL     1      -2.214  -4.692   0.112  0.00  0.00    +0.158 HD
ENDROOT
BRANCH   1  15
ATOM      9  C   UNL     1       0.216   1.179   1.366  0.00  0.00    +0.001 A 
ATOM     10  C   UNL     1       1.371   1.926   1.173  0.00  0.00    +0.002 A 
ATOM     11  C   UNL     1       2.494   1.351   0.623  0.00  0.00    +0.028 A 
ATOM     12  C   UNL     1       2.474   0.007   0.257  0.00  0.00    +0.066 A 
ATOM     13  C   UNL     1       1.303  -0.745   0.455  0.00  0.00    +0.028 A 
ATOM     14  C   UNL     1       0.175  -0.141   1.014  0.00  0.00    +0.012 A 
ATOM     15  C   UNL     1       1.598  -2.102  -0.025  0.00  0.00    +0.106 A 
ATOM     16  N   UNL     1       2.840  -2.106  -0.457  0.00  0.00    -0.173 NA
ATOM     17  H   UNL     1       4.308  -0.588  -0.546  0.00  0.00    +0.189 HD
ATOM     18  N   UNL     1       3.403  -0.835  -0.300  0.00  0.00    -0.276 N 
ENDBRANCH   1  15
BRANCH   2  19
ATOM     19  C   UNL     1       2.358  -5.160  -0.256  0.00  0.00    +0.013 A 
ATOM     20  C   UNL     1       3.295  -5.280   0.732  0.00  0.00    +0.101 A 
ATOM     21  N   UNL     1       4.421  -5.853   0.227  0.00  0.00    -0.314 N 
ATOM     22  C   UNL     1       4.257  -6.129  -1.117  0.00  0.00    +0.054 A 
ATOM     23  C   UNL     1       2.964  -5.717  -1.479  0.00  0.00    +0.008 A 
ATOM     24  C   UNL     1       2.519  -5.882  -2.788  0.00  0.00    +0.010 A 
ATOM     25  C   UNL     1       3.353  -6.454  -3.725  0.00  0.00    +0.001 A 
ATOM     26  C   UNL     1       4.629  -6.864  -3.369  0.00  0.00    +0.002 A 
ATOM     27  C   UNL     1       5.085  -6.699  -2.078  0.00  0.00    +0.027 A 
BRANCH  21  28
ATOM     28  C   UNL     1       5.580  -6.123   0.964  0.00  0.00    +0.065 A 
ATOM     29  C   UNL     1       6.157  -5.137   1.761  0.00  0.00    +0.029 A 
ATOM     30  C   UNL     1       7.303  -5.452   2.471  0.00  0.00    +0.022 A 
ATOM     31  C   UNL     1       7.834  -6.725   2.367  0.00  0.00    +0.111 A 
ATOM     32  N   UNL     1       7.263  -7.636   1.603  0.00  0.00    -0.261 NA
ATOM     33  C   UNL     1       6.169  -7.380   0.915  0.00  0.00    +0.136 A 
ENDBRANCH  21  28
ENDBRANCH   2  19
TORSDOF 3
