REMARK  Name = CHEMBL422215
REMARK  18 active torsions:
REMARK  status: ('A' for Active; 'I' for Inactive)
REMARK    1  A    between atoms: C_1  and  C_2
REMARK    2  A    between atoms: C_2  and  C_3
REMARK    3  A    between atoms: C_3  and  C_4
REMARK    4  A    between atoms: C_4  and  C_5
REMARK    5  A    between atoms: C_5  and  C_6
REMARK    6  A    between atoms: C_6  and  C_7
REMARK    7  A    between atoms: C_7  and  C_8
REMARK    8  A    between atoms: C_8  and  C_9
REMARK    9  A    between atoms: C_9  and  C_10
REMARK   10  A    between atoms: C_10  and  C_11
REMARK   11  A    between atoms: C_11  and  C_12
REMARK   12  A    between atoms: C_12  and  C_13
REMARK   13  A    between atoms: C_13  and  C_14
REMARK   14  A    between atoms: C_16  and  O_25
REMARK   15  A    between atoms: C_18  and  C_23
REMARK   16  A    between atoms: C_23  and  O_24
REMARK   17  A    between atoms: O_25  and  C_26
REMARK   18  A    between atoms: C_26  and  C_28
REMARK                            x       y       z     vdW  Elec       q    Type
REMARK                         _______ _______ _______ _____ _____    ______ ____
ROOT
ATOM      1  C   UNL     1      -8.486 -12.338   0.017  0.00  0.00    -0.013 C 
ATOM      2  C   UNL     1      -9.129 -13.017   0.964  0.00  0.00    +0.076 C 
ATOM      3  C   UNL     1      -9.224 -14.526   1.134  0.00  0.00    +0.256 C 
ATOM      4  C   UNL     1     -10.416 -14.696   2.099  0.00  0.00    +0.247 C 
ATOM      5  O   UNL     1     -10.896 -13.371   2.367  0.00  0.00    -0.452 OA
ATOM      6  C   UNL     1      -9.912 -12.481   2.098  0.00  0.00    +0.339 C 
ATOM      7  O   UNL     1      -9.710 -11.433   2.680  0.00  0.00    -0.245 OA
ENDROOT
BRANCH   3   8
ATOM      8  O   UNL     1      -8.025 -15.045   1.713  0.00  0.00    -0.453 OA
BRANCH   8   9
ATOM      9  C   UNL     1      -7.064 -15.447   0.866  0.00  0.00    +0.305 C 
ATOM     10  O   UNL     1      -7.236 -15.361  -0.327  0.00  0.00    -0.251 OA
ATOM     11  C   UNL     1      -5.771 -16.005   1.403  0.00  0.00    +0.136 C 
ENDBRANCH   8   9
ENDBRANCH   3   8
BRANCH   4  12
ATOM     12  C   UNL     1     -11.514 -15.533   1.438  0.00  0.00    +0.204 C 
BRANCH  12  13
ATOM     13  O   UNL     1     -12.558 -15.779   2.383  0.00  0.00    -0.391 OA
ATOM     14  H   UNL     1     -13.289 -16.305   2.032  0.00  0.00    +0.210 HD
ENDBRANCH  12  13
ENDBRANCH   4  12
BRANCH   1  15
ATOM     15  C   UNL     1      -8.507 -10.831   0.025  0.00  0.00    +0.028 C 
BRANCH  15  16
ATOM     16  C   UNL     1      -7.071 -10.301   0.014  0.00  0.00    +0.004 C 
BRANCH  16  17
ATOM     17  C   UNL     1      -7.092  -8.771   0.023  0.00  0.00    +0.000 C 
BRANCH  17  18
ATOM     18  C   UNL     1      -5.657  -8.242   0.012  0.00  0.00    +0.000 C 
BRANCH  18  19
ATOM     19  C   UNL     1      -5.677  -6.712   0.020  0.00  0.00    +0.000 C 
BRANCH  19  20
ATOM     20  C   UNL     1      -4.242  -6.182   0.009  0.00  0.00    +0.000 C 
BRANCH  20  21
ATOM     21  C   UNL     1      -4.263  -4.652   0.018  0.00  0.00    -0.000 C 
BRANCH  21  22
ATOM     22  C   UNL     1      -2.827  -4.123   0.007  0.00  0.00    -0.000 C 
BRANCH  22  23
ATOM     23  C   UNL     1      -2.848  -2.593   0.015  0.00  0.00    -0.000 C 
BRANCH  23  24
ATOM     24  C   UNL     1      -1.413  -2.063   0.004  0.00  0.00    -0.000 C 
BRANCH  24  25
ATOM     25  C   UNL     1      -1.433  -0.534   0.013  0.00  0.00    -0.000 C 
BRANCH  25  27
ATOM     26  C   UNL     1      -0.019   1.526   0.010  0.00  0.00    +0.004 C 
ATOM     27  C   UNL     1       0.002  -0.004   0.002  0.00  0.00    -0.003 C 
ENDBRANCH  25  27
ENDBRANCH  24  25
ENDBRANCH  23  24
ENDBRANCH  22  23
ENDBRANCH  21  22
ENDBRANCH  20  21
ENDBRANCH  19  20
ENDBRANCH  18  19
ENDBRANCH  17  18
ENDBRANCH  16  17
ENDBRANCH  15  16
ENDBRANCH   1  15
TORSDOF 16
