REMARK  Name = CHEMBL326971
REMARK  6 active torsions:
REMARK  status: ('A' for Active; 'I' for Inactive)
REMARK    1  A    between atoms: C_5  and  C_7
REMARK    2  A    between atoms: C_8  and  C_14
REMARK    3  A    between atoms: N_16  and  C_23
REMARK    4  A    between atoms: C_23  and  C_24
REMARK    5  A    between atoms: C_24  and  C_25
REMARK    6  A    between atoms: C_25  and  O_26
REMARK                            x       y       z     vdW  Elec       q    Type
REMARK                         _______ _______ _______ _____ _____    ______ ____
ROOT
ATOM      1  C   UNL     1       1.251  -2.160  -0.022  0.00  0.00    +0.058 C 
ATOM      2  C   UNL     1       0.975  -2.992  -1.098  0.00  0.00    +0.059 C 
ATOM      3  C   UNL     1       1.140  -4.378  -0.596  0.00  0.00    +0.252 C 
ATOM      4  O   UNL     1       0.984  -5.392  -1.246  0.00  0.00    -0.270 OA
ATOM      5  N   UNL     1       1.493  -4.322   0.700  0.00  0.00    -0.248 N 
ATOM      6  C   UNL     1       1.585  -3.046   1.109  0.00  0.00    +0.252 C 
ATOM      7  O   UNL     1       1.889  -2.681   2.227  0.00  0.00    -0.270 OA
ATOM      8  H   UNL     1       1.662  -5.095   1.261  0.00  0.00    +0.158 HD
ENDROOT
BRANCH   2   9
ATOM      9  C   UNL     1       0.595  -2.584  -2.457  0.00  0.00    +0.015 A 
ATOM     10  C   UNL     1       1.420  -2.069  -3.418  0.00  0.00    +0.097 A 
ATOM     11  N   UNL     1       0.705  -1.813  -4.545  0.00  0.00    -0.331 N 
ATOM     12  C   UNL     1      -0.618  -2.152  -4.364  0.00  0.00    +0.141 A 
ATOM     13  C   UNL     1      -0.748  -2.654  -3.058  0.00  0.00    +0.027 A 
ATOM     14  C   UNL     1      -1.994  -3.082  -2.605  0.00  0.00    +0.013 A 
ATOM     15  C   UNL     1      -3.067  -2.997  -3.476  0.00  0.00    +0.020 A 
ATOM     16  C   UNL     1      -2.868  -2.495  -4.751  0.00  0.00    +0.113 A 
ATOM     17  N   UNL     1      -1.682  -2.090  -5.154  0.00  0.00    -0.237 NA
BRANCH  11  18
ATOM     18  C   UNL     1       1.263  -1.255  -5.779  0.00  0.00    +0.125 C 
BRANCH  18  19
ATOM     19  C   UNL     1       1.068   0.263  -5.785  0.00  0.00    +0.049 C 
BRANCH  19  20
ATOM     20  C   UNL     1       1.650   0.846  -7.074  0.00  0.00    +0.157 C 
BRANCH  20  21
ATOM     21  O   UNL     1       1.468   2.264  -7.081  0.00  0.00    -0.395 OA
ATOM     22  H   UNL     1       1.815   2.701  -7.870  0.00  0.00    +0.209 HD
ENDBRANCH  20  21
ENDBRANCH  19  20
ENDBRANCH  18  19
ENDBRANCH  11  18
ENDBRANCH   2   9
BRANCH   1  27
ATOM     23  C   UNL     1      -0.017   1.375   0.010  0.00  0.00    +0.001 A 
ATOM     24  C   UNL     1       1.170   2.087   0.002  0.00  0.00    +0.001 A 
ATOM     25  C   UNL     1       2.384   1.423  -0.013  0.00  0.00    +0.020 A 
ATOM     26  C   UNL     1       2.418   0.042  -0.021  0.00  0.00    +0.049 A 
ATOM     27  C   UNL     1       1.223  -0.683  -0.013  0.00  0.00    +0.006 A 
ATOM     28  C   UNL     1       0.002  -0.004   0.002  0.00  0.00    +0.010 A 
ATOM     29 CL   UNL     1       3.942  -0.790  -0.041  0.00  0.00    -0.083 Cl
ENDBRANCH   1  27
TORSDOF 6
