REMARK  Name = CHEMBL106384
REMARK  2 active torsions:
REMARK  status: ('A' for Active; 'I' for Inactive)
REMARK    1  A    between atoms: C_1  and  N_2
REMARK    2  A    between atoms: N_30  and  C_33
REMARK                            x       y       z     vdW  Elec       q    Type
REMARK                         _______ _______ _______ _____ _____    ______ ____
ROOT
ATOM      1  C   UNL     1      -0.018   1.500   0.010  0.00  0.00    +0.104 C 
ATOM      2  N   UNL     1       0.002  -0.004   0.002  0.00  0.00    -0.305 NA
ATOM      3  C   UNL     1      -1.424  -0.414   0.253  0.00  0.00    +0.105 C 
ATOM      4  C   UNL     1      -2.233  -0.021  -0.972  0.00  0.00    +0.137 C 
ATOM      5  N   UNL     1      -3.425  -0.851  -1.141  0.00  0.00    -0.345 N 
ATOM      6  C   UNL     1      -3.518  -2.208  -1.150  0.00  0.00    +0.095 A 
ATOM      7  C   UNL     1      -4.797  -2.593  -1.378  0.00  0.00    +0.013 A 
ATOM      8  C   UNL     1      -5.592  -1.333  -1.449  0.00  0.00    +0.008 A 
ATOM      9  C   UNL     1      -4.675  -0.287  -1.333  0.00  0.00    +0.050 A 
ATOM     10  C   UNL     1      -5.115   1.028  -1.435  0.00  0.00    +0.026 A 
ATOM     11  C   UNL     1      -6.454   1.301  -1.617  0.00  0.00    +0.002 A 
ATOM     12  C   UNL     1      -7.375   0.262  -1.672  0.00  0.00    +0.001 A 
ATOM     13  C   UNL     1      -6.946  -1.044  -1.573  0.00  0.00    +0.010 A 
ATOM     14  C   UNL     1      -5.445  -3.901  -1.558  0.00  0.00    +0.059 C 
ATOM     15  C   UNL     1      -5.220  -5.190  -1.102  0.00  0.00    +0.059 C 
ATOM     16  C   UNL     1      -4.255  -5.837  -0.197  0.00  0.00    +0.013 A 
ATOM     17  C   UNL     1      -3.018  -5.467   0.221  0.00  0.00    +0.095 A 
ATOM     18  N   UNL     1      -2.469  -6.440   0.996  0.00  0.00    -0.344 N 
ATOM     19  C   UNL     1      -3.359  -7.485   1.140  0.00  0.00    +0.050 A 
ATOM     20  C   UNL     1      -4.528  -7.149   0.450  0.00  0.00    +0.008 A 
ATOM     21  C   UNL     1      -5.631  -7.990   0.526  0.00  0.00    +0.010 A 
ATOM     22  C   UNL     1      -5.550  -9.201   1.176  0.00  0.00    +0.001 A 
ATOM     23  C   UNL     1      -4.364  -9.572   1.797  0.00  0.00    +0.002 A 
ATOM     24  C   UNL     1      -3.283  -8.721   1.783  0.00  0.00    +0.026 A 
ATOM     25  C   UNL     1      -1.149  -6.453   1.618  0.00  0.00    +0.150 C 
ATOM     26  C   UNL     1      -0.529  -5.058   1.659  0.00  0.00    +0.181 C 
ATOM     27  O   UNL     1       0.883  -5.201   1.851  0.00  0.00    -0.380 OA
ATOM     28  C   UNL     1       1.549  -4.065   2.401  0.00  0.00    +0.141 C 
ATOM     29  C   UNL     1       2.170  -3.240   1.268  0.00  0.00    -0.051 C 
ATOM     30  N   UNL     1       2.566  -1.921   1.782  0.00  0.00    +0.380 N 
ATOM     31  C   UNL     1       2.124  -0.884   0.838  0.00  0.00    -0.064 C 
ATOM     32  C   UNL     1       0.748  -0.365   1.255  0.00  0.00    +0.065 C 
ATOM     33  C   UNL     1       4.028  -1.866   1.911  0.00  0.00    -0.096 C 
ATOM     34  C   UNL     1      -6.231  -6.036  -1.806  0.00  0.00    +0.252 C 
ATOM     35  O   UNL     1      -6.281  -7.248  -1.804  0.00  0.00    -0.270 OA
ATOM     36  N   UNL     1      -7.074  -5.257  -2.485  0.00  0.00    -0.248 N 
ATOM     37  C   UNL     1      -6.643  -3.998  -2.443  0.00  0.00    +0.252 C 
ATOM     38  O   UNL     1      -7.143  -3.087  -3.075  0.00  0.00    -0.270 OA
ATOM     39  H   UNL     1      -7.875  -5.561  -2.936  0.00  0.00    +0.158 HD
ATOM     40  H   UNL     1       2.141  -1.763   2.682  0.00  0.00    -0.082 HD
ENDROOT
TORSDOF 0
