REMARK  Name = CHEMBL291975
REMARK  6 active torsions:
REMARK  status: ('A' for Active; 'I' for Inactive)
REMARK    1  A    between atoms: C_1  and  N_2
REMARK    2  A    between atoms: C_4  and  C_11
REMARK    3  A    between atoms: C_12  and  C_18
REMARK    4  A    between atoms: N_20  and  C_27
REMARK    5  A    between atoms: N_30  and  C_32
REMARK    6  A    between atoms: C_32  and  C_33
REMARK                            x       y       z     vdW  Elec       q    Type
REMARK                         _______ _______ _______ _____ _____    ______ ____
ROOT
ATOM      1  C   UNL     1       2.478  -3.150  -2.464  0.00  0.00    +0.013 A 
ATOM      2  C   UNL     1       3.436  -3.275  -1.502  0.00  0.00    +0.096 A 
ATOM      3  N   UNL     1       4.564  -2.619  -1.891  0.00  0.00    -0.342 N 
ATOM      4  C   UNL     1       4.378  -2.040  -3.129  0.00  0.00    +0.050 A 
ATOM      5  C   UNL     1       3.073  -2.348  -3.548  0.00  0.00    +0.008 A 
ATOM      6  C   UNL     1       2.609  -1.893  -4.780  0.00  0.00    +0.010 A 
ATOM      7  C   UNL     1       3.437  -1.142  -5.585  0.00  0.00    +0.001 A 
ATOM      8  C   UNL     1       4.727  -0.840  -5.175  0.00  0.00    +0.002 A 
ATOM      9  C   UNL     1       5.197  -1.277  -3.955  0.00  0.00    +0.026 A 
ENDROOT
BRANCH   1  11
ATOM     10  C   UNL     1       0.040  -3.248  -1.685  0.00  0.00    +0.059 C 
ATOM     11  C   UNL     1       1.117  -3.712  -2.430  0.00  0.00    +0.059 C 
ATOM     12  C   UNL     1       0.621  -4.884  -3.181  0.00  0.00    +0.252 C 
ATOM     13  O   UNL     1       1.275  -5.564  -3.946  0.00  0.00    -0.270 OA
ATOM     14  N   UNL     1      -0.674  -5.073  -2.875  0.00  0.00    -0.248 N 
ATOM     15  C   UNL     1      -1.090  -4.149  -1.992  0.00  0.00    +0.252 C 
ATOM     16  O   UNL     1      -2.209  -4.067  -1.526  0.00  0.00    -0.270 OA
ATOM     17  H   UNL     1      -1.230  -5.779  -3.238  0.00  0.00    +0.158 HD
BRANCH  10  21
ATOM     18  C   UNL     1      -0.018   1.461   0.010  0.00  0.00    +0.149 C 
ATOM     19  N   UNL     1       0.002  -0.004   0.002  0.00  0.00    -0.349 N 
ATOM     20  C   UNL     1       0.008  -0.776  -1.119  0.00  0.00    +0.095 A 
ATOM     21  C   UNL     1       0.028  -2.094  -0.770  0.00  0.00    +0.013 A 
ATOM     22  C   UNL     1       0.035  -2.137   0.703  0.00  0.00    +0.008 A 
ATOM     23  C   UNL     1       0.024  -0.798   1.130  0.00  0.00    +0.049 A 
ATOM     24  C   UNL     1       0.031  -0.516   2.492  0.00  0.00    +0.026 A 
ATOM     25  C   UNL     1       0.053  -1.546   3.407  0.00  0.00    +0.002 A 
ATOM     26  C   UNL     1       0.068  -2.868   2.985  0.00  0.00    +0.001 A 
ATOM     27  C   UNL     1       0.054  -3.168   1.640  0.00  0.00    +0.010 A 
ENDBRANCH  10  21
ENDBRANCH   1  11
BRANCH   3  28
ATOM     28  C   UNL     1       5.799  -2.539  -1.107  0.00  0.00    +0.102 C 
ATOM     29  C   UNL     1       5.506  -1.960   0.297  0.00  0.00    +0.042 C 
ATOM     30  C   UNL     1       5.377  -3.230   1.175  0.00  0.00    +0.087 C 
ATOM     31  N   UNL     1       6.410  -4.138   0.616  0.00  0.00    -0.296 NA
ATOM     32  C   UNL     1       6.361  -3.950  -0.851  0.00  0.00    +0.109 C 
BRANCH  31  33
ATOM     33  C   UNL     1       6.136  -5.535   0.977  0.00  0.00    +0.119 C 
BRANCH  33  34
ATOM     34  C   UNL     1       6.369  -5.727   2.453  0.00  0.00    -0.033 A 
ATOM     35  C   UNL     1       7.620  -6.091   2.914  0.00  0.00    +0.005 A 
ATOM     36  C   UNL     1       7.834  -6.267   4.268  0.00  0.00    +0.000 A 
ATOM     37  C   UNL     1       6.797  -6.079   5.162  0.00  0.00    +0.000 A 
ATOM     38  C   UNL     1       5.545  -5.715   4.701  0.00  0.00    +0.000 A 
ATOM     39  C   UNL     1       5.332  -5.534   3.347  0.00  0.00    +0.005 A 
ENDBRANCH  33  34
ENDBRANCH  31  33
ENDBRANCH   3  28
TORSDOF 5
