REMARK  Name = CHEMBL95692
REMARK  5 active torsions:
REMARK  status: ('A' for Active; 'I' for Inactive)
REMARK    1  A    between atoms: C_1  and  O_2
REMARK    2  A    between atoms: O_2  and  C_3
REMARK    3  A    between atoms: C_7  and  C_9
REMARK    4  A    between atoms: C_10  and  C_20
REMARK    5  A    between atoms: N_13  and  C_14
REMARK                            x       y       z     vdW  Elec       q    Type
REMARK                         _______ _______ _______ _____ _____    ______ ____
ROOT
ATOM      1  C   UNL     1       1.491  -4.034  -2.196  0.00  0.00    +0.093 A 
ATOM      2  C   UNL     1       1.421  -4.901  -1.119  0.00  0.00    +0.073 A 
ATOM      3  N   UNL     1       1.187  -6.131  -1.609  0.00  0.00    -0.345 N 
ATOM      4  C   UNL     1       1.109  -6.077  -2.910  0.00  0.00    +0.175 A 
ATOM      5  N   UNL     1       1.283  -4.804  -3.320  0.00  0.00    -0.327 N 
ATOM      6  H   UNL     1       1.092  -6.937  -1.076  0.00  0.00    +0.167 HD
ENDROOT
BRANCH   5   7
ATOM      7  C   UNL     1       1.260  -4.327  -4.705  0.00  0.00    +0.085 C 
ATOM      8  C   UNL     1      -0.035  -4.783  -5.382  0.00  0.00    +0.006 C 
ATOM      9  C   UNL     1      -0.017  -4.351  -6.850  0.00  0.00    -0.081 C 
ATOM     10  N   UNL     1       1.132  -4.962  -7.529  0.00  0.00    +0.379 N 
ATOM     11  C   UNL     1       2.381  -4.473  -6.932  0.00  0.00    -0.081 C 
ATOM     12  C   UNL     1       2.455  -4.910  -5.467  0.00  0.00    +0.006 C 
ATOM     13  H   UNL     1       1.085  -5.965  -7.433  0.00  0.00    -0.086 HD
ATOM     14  H   UNL     1       1.111  -4.718  -8.508  0.00  0.00    -0.086 HD
ENDBRANCH   5   7
BRANCH   2  15
ATOM     15  C   UNL     1       1.576  -4.540   0.309  0.00  0.00    +0.001 A 
ATOM     16  C   UNL     1       2.605  -3.687   0.708  0.00  0.00    +0.013 A 
ATOM     17  C   UNL     1       2.746  -3.354   2.039  0.00  0.00    +0.039 A 
ATOM     18  C   UNL     1       1.867  -3.865   2.980  0.00  0.00    +0.123 A 
ATOM     19  C   UNL     1       0.843  -4.714   2.589  0.00  0.00    +0.039 A 
ATOM     20  C   UNL     1       0.691  -5.048   1.260  0.00  0.00    +0.013 A 
ATOM     21  F   UNL     1       2.008  -3.536   4.282  0.00  0.00    -0.205 F 
ENDBRANCH   2  15
BRANCH   1  26
ATOM     22  C   UNL     1       1.575  -0.563  -1.043  0.00  0.00    +0.318 A 
ATOM     23  N   UNL     1       2.161   0.080  -2.042  0.00  0.00    -0.203 NA
ATOM     24  C   UNL     1       2.557  -0.564  -3.130  0.00  0.00    +0.118 A 
ATOM     25  C   UNL     1       2.354  -1.927  -3.221  0.00  0.00    +0.050 A 
ATOM     26  C   UNL     1       1.731  -2.581  -2.150  0.00  0.00    +0.096 A 
ATOM     27  N   UNL     1       1.364  -1.866  -1.084  0.00  0.00    -0.193 NA
BRANCH  22  29
ATOM     28  C   UNL     1       1.436   1.542   0.046  0.00  0.00    +0.280 C 
ATOM     29  O   UNL     1       1.186   0.135   0.051  0.00  0.00    -0.466 OA
ENDBRANCH  22  29
ENDBRANCH   1  26
TORSDOF 4
