REMARK  Name = CHEMBL105620
REMARK  2 active torsions:
REMARK  status: ('A' for Active; 'I' for Inactive)
REMARK    1  A    between atoms: C_1  and  N_2
REMARK    2  A    between atoms: N_27  and  C_36
REMARK                            x       y       z     vdW  Elec       q    Type
REMARK                         _______ _______ _______ _____ _____    ______ ____
ROOT
ATOM      1  C   UNL     1      -0.018   1.462   0.010  0.00  0.00    -0.096 C 
ATOM      2  N   UNL     1       0.002  -0.004   0.002  0.00  0.00    +0.380 N 
ATOM      3  C   UNL     1      -1.357  -0.539  -0.074  0.00  0.00    -0.057 C 
ATOM      4  C   UNL     1      -2.160  -0.281   1.196  0.00  0.00    +0.103 C 
ATOM      5  N   UNL     1      -3.575  -0.572   0.945  0.00  0.00    -0.348 N 
ATOM      6  C   UNL     1      -4.064  -1.754   0.468  0.00  0.00    +0.095 A 
ATOM      7  C   UNL     1      -5.406  -1.687   0.317  0.00  0.00    +0.013 A 
ATOM      8  C   UNL     1      -5.800  -0.333   0.801  0.00  0.00    +0.008 A 
ATOM      9  C   UNL     1      -4.608   0.318   1.146  0.00  0.00    +0.050 A 
ATOM     10  C   UNL     1      -4.654   1.643   1.581  0.00  0.00    +0.026 A 
ATOM     11  C   UNL     1      -5.874   2.280   1.702  0.00  0.00    +0.002 A 
ATOM     12  C   UNL     1      -7.055   1.614   1.409  0.00  0.00    +0.001 A 
ATOM     13  C   UNL     1      -7.024   0.304   0.973  0.00  0.00    +0.010 A 
ATOM     14  C   UNL     1      -6.401  -2.641  -0.200  0.00  0.00    +0.059 C 
ATOM     15  C   UNL     1      -6.510  -4.022  -0.219  0.00  0.00    +0.059 C 
ATOM     16  C   UNL     1      -5.725  -5.137   0.339  0.00  0.00    +0.013 A 
ATOM     17  C   UNL     1      -4.466  -5.170   0.832  0.00  0.00    +0.095 A 
ATOM     18  N   UNL     1      -4.130  -6.443   1.191  0.00  0.00    -0.348 N 
ATOM     19  C   UNL     1      -5.188  -7.295   0.947  0.00  0.00    +0.050 A 
ATOM     20  C   UNL     1      -6.252  -6.519   0.460  0.00  0.00    +0.008 A 
ATOM     21  C   UNL     1      -7.499  -7.103   0.249  0.00  0.00    +0.010 A 
ATOM     22  C   UNL     1      -7.656  -8.467   0.380  0.00  0.00    +0.001 A 
ATOM     23  C   UNL     1      -6.579  -9.248   0.774  0.00  0.00    +0.002 A 
ATOM     24  C   UNL     1      -5.356  -8.673   1.065  0.00  0.00    +0.026 A 
ATOM     25  C   UNL     1      -2.838  -6.828   1.770  0.00  0.00    +0.103 C 
ATOM     26  C   UNL     1      -1.763  -6.968   0.698  0.00  0.00    -0.057 C 
ATOM     27  N   UNL     1      -0.584  -7.664   1.224  0.00  0.00    +0.380 N 
ATOM     28  C   UNL     1       0.648  -7.057   0.699  0.00  0.00    -0.051 C 
ATOM     29  C   UNL     1       1.219  -6.095   1.739  0.00  0.00    +0.141 C 
ATOM     30  O   UNL     1       2.586  -5.797   1.450  0.00  0.00    -0.379 OA
ATOM     31  C   UNL     1       3.054  -4.595   2.069  0.00  0.00    +0.187 C 
ATOM     32  C   UNL     1       2.972  -3.436   1.073  0.00  0.00    +0.187 C 
ATOM     33  O   UNL     1       2.140  -2.403   1.606  0.00  0.00    -0.379 OA
ATOM     34  C   UNL     1       1.967  -1.266   0.757  0.00  0.00    +0.141 C 
ATOM     35  C   UNL     1       0.708  -0.503   1.184  0.00  0.00    -0.051 C 
ATOM     36  C   UNL     1      -0.634  -9.077   0.820  0.00  0.00    -0.096 C 
ATOM     37  C   UNL     1      -7.702  -4.298  -1.079  0.00  0.00    +0.252 C 
ATOM     38  O   UNL     1      -8.046  -5.373  -1.520  0.00  0.00    -0.270 OA
ATOM     39  N   UNL     1      -8.344  -3.157  -1.336  0.00  0.00    -0.248 N 
ATOM     40  C   UNL     1      -7.622  -2.128  -0.896  0.00  0.00    +0.252 C 
ATOM     41  O   UNL     1      -7.914  -0.963  -1.078  0.00  0.00    -0.270 OA
ATOM     42  H   UNL     1      -9.203  -3.087  -1.776  0.00  0.00    +0.158 HD
ATOM     43  H   UNL     1       0.510  -0.305  -0.829  0.00  0.00    -0.082 HD
ATOM     44  H   UNL     1      -0.586  -7.606   2.232  0.00  0.00    -0.082 HD
ENDROOT
TORSDOF 0
