REMARK  Name = CHEMBL315357
REMARK  2 active torsions:
REMARK  status: ('A' for Active; 'I' for Inactive)
REMARK    1  A    between atoms: C_12  and  C_33
REMARK    2  A    between atoms: C_33  and  N_34
REMARK                            x       y       z     vdW  Elec       q    Type
REMARK                         _______ _______ _______ _____ _____    ______ ____
ROOT
ATOM      1  C   UNL     1       0.488   1.684   0.748  0.00  0.00    +0.001 A 
ATOM      2  C   UNL     1       1.658   2.381   0.490  0.00  0.00    +0.002 A 
ATOM      3  C   UNL     1       2.853   1.713   0.327  0.00  0.00    +0.026 A 
ATOM      4  C   UNL     1       2.883   0.325   0.423  0.00  0.00    +0.050 A 
ATOM      5  C   UNL     1       1.706  -0.380   0.717  0.00  0.00    +0.008 A 
ATOM      6  C   UNL     1       0.505   0.310   0.858  0.00  0.00    +0.010 A 
ATOM      7  C   UNL     1       2.097  -1.804   0.835  0.00  0.00    +0.013 A 
ATOM      8  C   UNL     1       3.434  -1.843   0.595  0.00  0.00    +0.095 A 
ATOM      9  N   UNL     1       3.891  -0.606   0.260  0.00  0.00    -0.346 N 
ATOM     10  C   UNL     1       5.223  -0.263  -0.238  0.00  0.00    +0.124 C 
ATOM     11  C   UNL     1       6.125  -1.494  -0.243  0.00  0.00    +0.054 C 
ATOM     12  C   UNL     1       5.831  -2.338  -1.484  0.00  0.00    +0.134 C 
ATOM     13  O   UNL     1       6.059  -3.712  -1.162  0.00  0.00    -0.373 OA
ATOM     14  C   UNL     1       5.596  -4.630  -2.154  0.00  0.00    +0.181 C 
ATOM     15  C   UNL     1       5.239  -5.952  -1.474  0.00  0.00    +0.150 C 
ATOM     16  N   UNL     1       3.889  -5.881  -0.913  0.00  0.00    -0.344 N 
ATOM     17  C   UNL     1       3.264  -4.771  -0.442  0.00  0.00    +0.095 A 
ATOM     18  C   UNL     1       2.058  -5.100   0.097  0.00  0.00    +0.013 A 
ATOM     19  C   UNL     1       1.856  -6.534  -0.207  0.00  0.00    +0.008 A 
ATOM     20  C   UNL     1       3.056  -6.974  -0.790  0.00  0.00    +0.050 A 
ATOM     21  C   UNL     1       3.227  -8.319  -1.106  0.00  0.00    +0.026 A 
ATOM     22  C   UNL     1       2.192  -9.206  -0.905  0.00  0.00    +0.002 A 
ATOM     23  C   UNL     1       0.977  -8.758  -0.409  0.00  0.00    +0.001 A 
ATOM     24  C   UNL     1       0.799  -7.428  -0.084  0.00  0.00    +0.010 A 
ATOM     25  C   UNL     1       1.143  -4.251   0.882  0.00  0.00    +0.059 C 
ATOM     26  C   UNL     1       1.161  -2.893   1.163  0.00  0.00    +0.059 C 
ATOM     27  C   UNL     1      -0.044  -2.638   2.006  0.00  0.00    +0.252 C 
ATOM     28  O   UNL     1      -0.373  -1.573   2.487  0.00  0.00    -0.270 OA
ATOM     29  N   UNL     1      -0.709  -3.784   2.172  0.00  0.00    -0.248 N 
ATOM     30  C   UNL     1      -0.042  -4.792   1.598  0.00  0.00    +0.252 C 
ATOM     31  O   UNL     1      -0.356  -5.957   1.724  0.00  0.00    -0.270 OA
ATOM     32  H   UNL     1      -1.562  -3.873   2.625  0.00  0.00    +0.158 HD
ENDROOT
BRANCH  12  33
ATOM     33  C   UNL     1       6.756  -1.919  -2.627  0.00  0.00    +0.116 C 
BRANCH  33  34
ATOM     34  N   UNL     1       6.435  -0.546  -3.039  0.00  0.00    -0.296 NA
ATOM     35  C   UNL     1       5.158  -0.499  -3.766  0.00  0.00    +0.112 C 
ATOM     36  C   UNL     1       4.833   0.954  -4.123  0.00  0.00    +0.175 C 
ATOM     37  O   UNL     1       5.911   1.504  -4.885  0.00  0.00    -0.377 OA
ATOM     38  C   UNL     1       7.170   1.475  -4.207  0.00  0.00    +0.175 C 
ATOM     39  C   UNL     1       7.518   0.027  -3.851  0.00  0.00    +0.112 C 
ENDBRANCH  33  34
ENDBRANCH  12  33
TORSDOF 2
