REMARK  Name = CHEMBL368720
REMARK  19 active torsions:
REMARK  status: ('A' for Active; 'I' for Inactive)
REMARK    1  A    between atoms: C_1  and  C_2
REMARK    2  A    between atoms: C_2  and  C_3
REMARK    3  A    between atoms: C_3  and  C_4
REMARK    4  A    between atoms: C_4  and  C_5
REMARK    5  A    between atoms: C_5  and  C_6
REMARK    6  A    between atoms: C_6  and  C_7
REMARK    7  A    between atoms: C_7  and  C_8
REMARK    8  A    between atoms: C_8  and  C_9
REMARK    9  A    between atoms: C_9  and  C_10
REMARK   10  A    between atoms: C_10  and  C_11
REMARK   11  A    between atoms: C_11  and  C_12
REMARK   12  A    between atoms: C_12  and  O_14
REMARK   13  A    between atoms: O_14  and  C_15
REMARK   14  A    between atoms: C_21  and  C_33
REMARK   15  A    between atoms: C_21  and  C_34
REMARK   16  A    between atoms: CA_26  and  C_31
REMARK   17  A    between atoms: C_31  and  O_32
REMARK   18  A    between atoms: C_34  and  C_35
REMARK   19  A    between atoms: C_34  and  C_36
REMARK                            x       y       z     vdW  Elec       q    Type
REMARK                         _______ _______ _______ _____ _____    ______ ____
ROOT
ATOM      1  C   UNL     1      -8.258 -12.323  -0.019  0.00  0.00    +0.132 A 
ATOM      2  C   UNL     1      -7.077 -13.050   0.009  0.00  0.00    +0.046 A 
ATOM      3  C   UNL     1      -7.116 -14.428  -0.034  0.00  0.00    +0.008 A 
ATOM      4  C   UNL     1      -8.331 -15.092  -0.103  0.00  0.00    -0.038 A 
ATOM      5  C   UNL     1      -9.509 -14.370  -0.130  0.00  0.00    -0.033 A 
ATOM      6  C   UNL     1      -9.473 -12.987  -0.083  0.00  0.00    +0.050 A 
ATOM      7  C   UNL     1     -10.688 -15.316  -0.203  0.00  0.00    +0.007 C 
ATOM      8  C   UNL     1     -10.103 -16.668  -0.653  0.00  0.00    +0.095 C 
ATOM      9  C   UNL     1      -8.631 -16.575  -0.160  0.00  0.00    +0.054 C 
ATOM     10  CA  UNL     1      -7.867 -17.193  -1.351  0.00  0.00    +0.106 C 
ATOM     11  N   UNL     1      -8.725 -16.982  -2.523  0.00  0.00    -0.309 N 
ATOM     12  C   UNL     1     -10.003 -16.699  -2.160  0.00  0.00    +0.218 C 
ATOM     13  O   UNL     1     -10.925 -16.494  -2.921  0.00  0.00    -0.275 OA
ATOM     14  C   UNL     1     -11.708 -14.812  -1.226  0.00  0.00    +0.017 C 
ATOM     15  H   UNL     1      -8.421 -17.044  -3.442  0.00  0.00    +0.149 HD
ENDROOT
BRANCH   7  16
ATOM     16  C   UNL     1     -11.342 -15.454   1.174  0.00  0.00    -0.006 C 
ATOM     17  C   UNL     1     -11.862 -14.089   1.631  0.00  0.00    +0.008 C 
ATOM     18  C   UNL     1     -12.509 -16.440   1.087  0.00  0.00    +0.008 C 
ENDBRANCH   7  16
BRANCH   1  19
ATOM     19  O   UNL     1      -8.225 -10.965   0.022  0.00  0.00    -0.426 OA
BRANCH  19  20
ATOM     20  C   UNL     1      -7.899 -10.309  -1.103  0.00  0.00    +0.312 C 
ATOM     21  O   UNL     1      -7.561 -10.925  -2.086  0.00  0.00    -0.250 OA
BRANCH  20  22
ATOM     22  C   UNL     1      -7.956  -8.803  -1.141  0.00  0.00    +0.121 C 
BRANCH  22  23
ATOM     23  C   UNL     1      -7.540  -8.311  -2.528  0.00  0.00    +0.011 C 
BRANCH  23  24
ATOM     24  C   UNL     1      -7.598  -6.783  -2.566  0.00  0.00    +0.001 C 
BRANCH  24  25
ATOM     25  C   UNL     1      -7.182  -6.291  -3.954  0.00  0.00    +0.000 C 
BRANCH  25  26
ATOM     26  C   UNL     1      -7.239  -4.763  -3.991  0.00  0.00    +0.000 C 
BRANCH  26  27
ATOM     27  C   UNL     1      -6.823  -4.271  -5.379  0.00  0.00    +0.000 C 
BRANCH  27  28
ATOM     28  C   UNL     1      -6.881  -2.742  -5.417  0.00  0.00    -0.000 C 
BRANCH  28  29
ATOM     29  C   UNL     1      -6.465  -2.250  -6.805  0.00  0.00    -0.000 C 
BRANCH  29  30
ATOM     30  C   UNL     1      -6.523  -0.722  -6.843  0.00  0.00    -0.000 C 
BRANCH  30  32
ATOM     31  C   UNL     1      -6.165   1.299  -8.268  0.00  0.00    +0.004 C 
ATOM     32  C   UNL     1      -6.107  -0.230  -8.230  0.00  0.00    -0.003 C 
ENDBRANCH  30  32
ENDBRANCH  29  30
ENDBRANCH  28  29
ENDBRANCH  27  28
ENDBRANCH  26  27
ENDBRANCH  25  26
ENDBRANCH  24  25
ENDBRANCH  23  24
ENDBRANCH  22  23
ENDBRANCH  20  22
ENDBRANCH  19  20
ENDBRANCH   1  19
BRANCH  10  33
ATOM     33  C   UNL     1      -7.646 -18.689  -1.118  0.00  0.00    +0.178 C 
BRANCH  33  34
ATOM     34  O   UNL     1      -6.839 -19.221  -2.171  0.00  0.00    -0.393 OA
ATOM     35  H   UNL     1      -6.658 -20.167  -2.088  0.00  0.00    +0.209 HD
ENDBRANCH  33  34
ENDBRANCH  10  33
TORSDOF 15
