REMARK  Name = CHEMBL300549
REMARK  6 active torsions:
REMARK  status: ('A' for Active; 'I' for Inactive)
REMARK    1  A    between atoms: C_1  and  N_2
REMARK    2  A    between atoms: C_4  and  C_11
REMARK    3  A    between atoms: C_12  and  C_18
REMARK    4  A    between atoms: N_20  and  C_27
REMARK    5  A    between atoms: N_30  and  C_33
REMARK    6  A    between atoms: C_33  and  C_34
REMARK                            x       y       z     vdW  Elec       q    Type
REMARK                         _______ _______ _______ _____ _____    ______ ____
ROOT
ATOM      1  C   UNL     1       2.478  -3.150  -2.464  0.00  0.00    +0.013 A 
ATOM      2  C   UNL     1       3.436  -3.275  -1.502  0.00  0.00    +0.095 A 
ATOM      3  N   UNL     1       4.564  -2.619  -1.891  0.00  0.00    -0.343 N 
ATOM      4  C   UNL     1       4.378  -2.040  -3.129  0.00  0.00    +0.050 A 
ATOM      5  C   UNL     1       3.073  -2.348  -3.548  0.00  0.00    +0.008 A 
ATOM      6  C   UNL     1       2.609  -1.893  -4.780  0.00  0.00    +0.010 A 
ATOM      7  C   UNL     1       3.437  -1.142  -5.585  0.00  0.00    +0.001 A 
ATOM      8  C   UNL     1       4.727  -0.840  -5.175  0.00  0.00    +0.002 A 
ATOM      9  C   UNL     1       5.197  -1.277  -3.955  0.00  0.00    +0.026 A 
ENDROOT
BRANCH   1  11
ATOM     10  C   UNL     1       0.040  -3.248  -1.685  0.00  0.00    +0.059 C 
ATOM     11  C   UNL     1       1.117  -3.712  -2.430  0.00  0.00    +0.059 C 
ATOM     12  C   UNL     1       0.621  -4.884  -3.181  0.00  0.00    +0.252 C 
ATOM     13  O   UNL     1       1.275  -5.564  -3.946  0.00  0.00    -0.270 OA
ATOM     14  N   UNL     1      -0.674  -5.073  -2.875  0.00  0.00    -0.248 N 
ATOM     15  C   UNL     1      -1.090  -4.149  -1.992  0.00  0.00    +0.252 C 
ATOM     16  O   UNL     1      -2.209  -4.067  -1.526  0.00  0.00    -0.270 OA
ATOM     17  H   UNL     1      -1.230  -5.779  -3.238  0.00  0.00    +0.158 HD
BRANCH  10  21
ATOM     18  C   UNL     1      -0.018   1.461   0.010  0.00  0.00    +0.149 C 
ATOM     19  N   UNL     1       0.002  -0.004   0.002  0.00  0.00    -0.349 N 
ATOM     20  C   UNL     1       0.008  -0.776  -1.119  0.00  0.00    +0.095 A 
ATOM     21  C   UNL     1       0.028  -2.094  -0.770  0.00  0.00    +0.013 A 
ATOM     22  C   UNL     1       0.035  -2.137   0.703  0.00  0.00    +0.008 A 
ATOM     23  C   UNL     1       0.024  -0.798   1.130  0.00  0.00    +0.049 A 
ATOM     24  C   UNL     1       0.031  -0.516   2.492  0.00  0.00    +0.026 A 
ATOM     25  C   UNL     1       0.053  -1.546   3.407  0.00  0.00    +0.002 A 
ATOM     26  C   UNL     1       0.068  -2.868   2.985  0.00  0.00    +0.001 A 
ATOM     27  C   UNL     1       0.054  -3.168   1.640  0.00  0.00    +0.010 A 
ENDBRANCH  10  21
ENDBRANCH   1  11
BRANCH   3  28
ATOM     28  C   UNL     1       5.799  -2.539  -1.107  0.00  0.00    +0.084 C 
ATOM     29  C   UNL     1       6.337  -3.950  -0.854  0.00  0.00    +0.006 C 
ATOM     30  C   UNL     1       7.582  -3.865   0.032  0.00  0.00    -0.076 C 
ATOM     31  N   UNL     1       7.233  -3.236   1.312  0.00  0.00    +0.382 N 
ATOM     32  C   UNL     1       6.784  -1.858   1.084  0.00  0.00    -0.076 C 
ATOM     33  C   UNL     1       5.509  -1.866   0.238  0.00  0.00    +0.006 C 
ATOM     34  H   UNL     1       6.493  -3.761   1.753  0.00  0.00    -0.081 HD
BRANCH  31  35
ATOM     35  C   UNL     1       8.412  -3.227   2.188  0.00  0.00    -0.043 C 
BRANCH  35  36
ATOM     36  C   UNL     1       8.026  -2.695   3.544  0.00  0.00    -0.064 A 
ATOM     37  C   UNL     1       8.104  -1.339   3.802  0.00  0.00    +0.002 A 
ATOM     38  C   UNL     1       7.749  -0.851   5.046  0.00  0.00    +0.000 A 
ATOM     39  C   UNL     1       7.317  -1.718   6.032  0.00  0.00    +0.000 A 
ATOM     40  C   UNL     1       7.238  -3.074   5.773  0.00  0.00    +0.000 A 
ATOM     41  C   UNL     1       7.588  -3.562   4.528  0.00  0.00    +0.002 A 
ENDBRANCH  35  36
ENDBRANCH  31  35
ENDBRANCH   3  28
TORSDOF 5
