REMARK  Name = CHEMBL103055
REMARK  2 active torsions:
REMARK  status: ('A' for Active; 'I' for Inactive)
REMARK    1  A    between atoms: C_1  and  C_2
REMARK    2  A    between atoms: C_2  and  N_3
REMARK                            x       y       z     vdW  Elec       q    Type
REMARK                         _______ _______ _______ _____ _____    ______ ____
ROOT
ATOM      1  N   UNL     1       0.687  -0.476  -1.201  0.00  0.00    +0.382 N 
ATOM      2  C   UNL     1      -0.033  -0.019  -2.401  0.00  0.00    -0.050 C 
ATOM      3  C   UNL     1      -1.492  -0.477  -2.366  0.00  0.00    +0.141 C 
ATOM      4  O   UNL     1      -1.964  -0.740  -3.687  0.00  0.00    -0.380 OA
ATOM      5  C   UNL     1      -2.691  -1.973  -3.803  0.00  0.00    +0.181 C 
ATOM      6  C   UNL     1      -3.395  -1.991  -5.165  0.00  0.00    +0.150 C 
ATOM      7  N   UNL     1      -3.947  -3.305  -5.471  0.00  0.00    -0.344 N 
ATOM      8  C   UNL     1      -3.449  -4.522  -5.100  0.00  0.00    +0.095 A 
ATOM      9  C   UNL     1      -4.239  -5.519  -5.568  0.00  0.00    +0.013 A 
ATOM     10  C   UNL     1      -5.363  -4.860  -6.277  0.00  0.00    +0.008 A 
ATOM     11  C   UNL     1      -5.096  -3.482  -6.219  0.00  0.00    +0.050 A 
ATOM     12  C   UNL     1      -5.942  -2.610  -6.888  0.00  0.00    +0.026 A 
ATOM     13  C   UNL     1      -7.055  -3.078  -7.546  0.00  0.00    +0.002 A 
ATOM     14  C   UNL     1      -7.362  -4.430  -7.543  0.00  0.00    +0.001 A 
ATOM     15  C   UNL     1      -6.526  -5.316  -6.894  0.00  0.00    +0.010 A 
ATOM     16  C   UNL     1      -4.123  -6.981  -5.468  0.00  0.00    +0.059 C 
ATOM     17  C   UNL     1      -3.547  -7.858  -4.562  0.00  0.00    +0.059 C 
ATOM     18  C   UNL     1      -2.828  -7.716  -3.288  0.00  0.00    +0.013 A 
ATOM     19  C   UNL     1      -2.176  -6.664  -2.727  0.00  0.00    +0.095 A 
ATOM     20  N   UNL     1      -1.586  -7.039  -1.559  0.00  0.00    -0.344 N 
ATOM     21  C   UNL     1      -1.869  -8.368  -1.295  0.00  0.00    +0.050 A 
ATOM     22  C   UNL     1      -2.692  -8.840  -2.321  0.00  0.00    +0.008 A 
ATOM     23  C   UNL     1      -3.219 -10.123  -2.239  0.00  0.00    +0.010 A 
ATOM     24  C   UNL     1      -2.831 -10.966  -1.224  0.00  0.00    +0.001 A 
ATOM     25  C   UNL     1      -1.947 -10.522  -0.252  0.00  0.00    +0.002 A 
ATOM     26  C   UNL     1      -1.477  -9.229  -0.279  0.00  0.00    +0.026 A 
ATOM     27  C   UNL     1      -0.767  -6.221  -0.665  0.00  0.00    +0.150 C 
ATOM     28  C   UNL     1      -0.756  -4.751  -1.063  0.00  0.00    +0.181 C 
ATOM     29  O   UNL     1       0.250  -4.071  -0.297  0.00  0.00    -0.380 OA
ATOM     30  C   UNL     1       0.044  -2.655  -0.159  0.00  0.00    +0.141 C 
ATOM     31  C   UNL     1       0.853  -1.928  -1.231  0.00  0.00    -0.050 C 
ATOM     32  C   UNL     1      -3.729  -9.227  -5.162  0.00  0.00    +0.252 C 
ATOM     33  O   UNL     1      -3.246 -10.265  -4.763  0.00  0.00    -0.270 OA
ATOM     34  N   UNL     1      -4.499  -9.131  -6.249  0.00  0.00    -0.248 N 
ATOM     35  C   UNL     1      -4.724  -7.848  -6.533  0.00  0.00    +0.252 C 
ATOM     36  O   UNL     1      -5.295  -7.467  -7.534  0.00  0.00    -0.270 OA
ATOM     37  H   UNL     1      -4.851  -9.885  -6.753  0.00  0.00    +0.158 HD
ATOM     38  H   UNL     1       1.616  -0.048  -1.219  0.00  0.00    -0.082 HD
ENDROOT
BRANCH   1  40
ATOM     39  C   UNL     1      -0.019   1.526   0.010  0.00  0.00    -0.017 C 
ATOM     40  C   UNL     1       0.002  -0.004   0.002  0.00  0.00    -0.082 C 
ENDBRANCH   1  40
TORSDOF 1
