REMARK  Name = CHEMBL162621
REMARK  8 active torsions:
REMARK  status: ('A' for Active; 'I' for Inactive)
REMARK    1  A    between atoms: C_8  and  C_10
REMARK    2  A    between atoms: C_11  and  C_26
REMARK    3  A    between atoms: N_18  and  C_19
REMARK    4  A    between atoms: C_19  and  C_20
REMARK    5  A    between atoms: C_20  and  C_21
REMARK    6  A    between atoms: C_21  and  S_22
REMARK    7  A    between atoms: S_22  and  C_23
REMARK    8  A    between atoms: C_27  and  C_33
REMARK                            x       y       z     vdW  Elec       q    Type
REMARK                         _______ _______ _______ _____ _____    ______ ____
ROOT
ATOM      1  C   UNL     1       3.141  -4.005  -0.049  0.00  0.00    +0.065 A 
ATOM      2  C   UNL     1       2.613  -5.030   0.755  0.00  0.00    +0.022 A 
ATOM      3  C   UNL     1       3.354  -6.253   0.395  0.00  0.00    +0.008 A 
ATOM      4  C   UNL     1       3.296  -7.574   0.834  0.00  0.00    +0.010 A 
ATOM      5  C   UNL     1       4.145  -8.513   0.289  0.00  0.00    +0.001 A 
ATOM      6  C   UNL     1       5.054  -8.147  -0.692  0.00  0.00    +0.002 A 
ATOM      7  C   UNL     1       5.122  -6.843  -1.135  0.00  0.00    +0.026 A 
ATOM      8  C   UNL     1       4.274  -5.880  -0.598  0.00  0.00    +0.050 A 
ATOM      9  N   UNL     1       4.118  -4.529  -0.846  0.00  0.00    -0.339 N 
ENDROOT
BRANCH   1  17
ATOM     10  C   UNL     1      -0.016   1.353   0.009  0.00  0.00    +0.001 A 
ATOM     11  C   UNL     1       1.157   2.098   0.002  0.00  0.00    +0.001 A 
ATOM     12  C   UNL     1       2.375   1.448  -0.013  0.00  0.00    +0.015 A 
ATOM     13  C   UNL     1       2.411   0.070  -0.021  0.00  0.00    +0.020 A 
ATOM     14  C   UNL     1       1.232  -0.714  -0.014  0.00  0.00    -0.010 A 
ATOM     15  C   UNL     1       0.002  -0.004   0.002  0.00  0.00    +0.009 A 
ATOM     16  C   UNL     1       1.430  -2.104  -0.023  0.00  0.00    +0.026 A 
ATOM     17  C   UNL     1       2.711  -2.607  -0.038  0.00  0.00    +0.037 A 
ATOM     18  S   UNL     1       3.716  -1.133  -0.040  0.00  0.00    -0.087 S 
ENDBRANCH   1  17
BRANCH   2  19
ATOM     19  C   UNL     1       1.585  -4.913   1.712  0.00  0.00    +0.069 C 
ATOM     20  C   UNL     1       0.205  -5.075   1.500  0.00  0.00    +0.126 C 
ATOM     21  C   UNL     1      -0.435  -4.851   2.802  0.00  0.00    +0.262 C 
ATOM     22  O   UNL     1      -1.630  -4.906   3.020  0.00  0.00    -0.269 OA
ATOM     23  N   UNL     1       0.512  -4.576   3.713  0.00  0.00    -0.248 N 
ATOM     24  C   UNL     1       1.735  -4.598   3.156  0.00  0.00    +0.253 C 
ATOM     25  O   UNL     1       2.783  -4.392   3.734  0.00  0.00    -0.270 OA
ATOM     26  H   UNL     1       0.337  -4.391   4.649  0.00  0.00    +0.158 HD
BRANCH  20  27
ATOM     27  C   UNL     1      -0.445  -5.394   0.264  0.00  0.00    +0.105 C 
ATOM     28  N   UNL     1      -0.960  -5.647  -0.716  0.00  0.00    -0.191 NA
ENDBRANCH  20  27
ENDBRANCH   2  19
BRANCH   9  29
ATOM     29  C   UNL     1       4.895  -3.765  -1.825  0.00  0.00    +0.123 C 
BRANCH  29  30
ATOM     30  C   UNL     1       6.151  -3.203  -1.154  0.00  0.00    +0.033 C 
BRANCH  30  31
ATOM     31  C   UNL     1       6.962  -2.406  -2.177  0.00  0.00    +0.079 C 
BRANCH  31  32
ATOM     32  S   UNL     1       8.450  -1.740  -1.381  0.00  0.00    -0.093 S 
BRANCH  32  33
ATOM     33  C   UNL     1       9.266  -0.860  -2.671  0.00  0.00    +0.123 C 
ATOM     34  N   UNL     1      10.015   0.204  -2.382  0.00  0.00    -0.382 N 
ATOM     35  N   UNL     1       9.135  -1.259  -3.936  0.00  0.00    -0.340 N 
ATOM     36  H   UNL     1      10.110   0.494  -1.461  0.00  0.00    +0.158 HD
ATOM     37  H   UNL     1       8.591  -2.034  -4.147  0.00  0.00    +0.144 HD
ATOM     38  H   UNL     1       9.585  -0.774  -4.647  0.00  0.00    +0.144 HD
ATOM     39  H   UNL     1      10.464   0.689  -3.092  0.00  0.00    +0.158 HD
ENDBRANCH  32  33
ENDBRANCH  31  32
ENDBRANCH  30  31
ENDBRANCH  29  30
ENDBRANCH   9  29
TORSDOF 8
