REMARK  Name = CHEMBL12988
REMARK  19 active torsions:
REMARK  status: ('A' for Active; 'I' for Inactive)
REMARK    1  A    between atoms: C_1  and  C_2
REMARK    2  A    between atoms: C_2  and  C_3
REMARK    3  A    between atoms: C_3  and  C_4
REMARK    4  A    between atoms: C_4  and  C_5
REMARK    5  A    between atoms: C_5  and  C_6
REMARK    6  A    between atoms: C_6  and  C_7
REMARK    7  A    between atoms: C_7  and  C_8
REMARK    8  A    between atoms: C_8  and  C_9
REMARK    9  A    between atoms: C_9  and  C_10
REMARK   10  A    between atoms: C_10  and  C_11
REMARK   11  A    between atoms: C_11  and  C_12
REMARK   12  A    between atoms: C_12  and  C_13
REMARK   13  A    between atoms: C_13  and  C_14
REMARK   14  A    between atoms: C_14  and  C_15
REMARK   15  A    between atoms: C_17  and  O_26
REMARK   16  A    between atoms: C_19  and  C_24
REMARK   17  A    between atoms: C_24  and  O_25
REMARK   18  A    between atoms: O_26  and  C_27
REMARK   19  A    between atoms: C_27  and  C_29
REMARK                            x       y       z     vdW  Elec       q    Type
REMARK                         _______ _______ _______ _____ _____    ______ ____
ROOT
ATOM      1  C   UNL     1       4.423 -12.144  -7.601  0.00  0.00    +0.018 C 
ENDROOT
BRANCH   1   2
ATOM      2  C   UNL     1       5.139 -12.637  -8.860  0.00  0.00    +0.142 C 
ATOM      3  C   UNL     1       5.108 -14.185  -8.932  0.00  0.00    +0.233 C 
ATOM      4  C   UNL     1       6.556 -14.482  -9.405  0.00  0.00    +0.243 C 
ATOM      5  O   UNL     1       7.323 -13.451  -8.746  0.00  0.00    -0.455 OA
ATOM      6  C   UNL     1       6.617 -12.301  -8.798  0.00  0.00    +0.314 C 
ATOM      7  O   UNL     1       7.084 -11.186  -8.795  0.00  0.00    -0.250 OA
BRANCH   3   8
ATOM      8  O   UNL     1       4.149 -14.637  -9.890  0.00  0.00    -0.457 OA
BRANCH   8   9
ATOM      9  C   UNL     1       3.566 -15.824  -9.655  0.00  0.00    +0.304 C 
ATOM     10  O   UNL     1       3.861 -16.457  -8.670  0.00  0.00    -0.251 OA
ATOM     11  C   UNL     1       2.545 -16.366 -10.622  0.00  0.00    +0.136 C 
ENDBRANCH   8   9
ENDBRANCH   3   8
BRANCH   4  12
ATOM     12  C   UNL     1       7.003 -15.872  -8.946  0.00  0.00    +0.204 C 
BRANCH  12  13
ATOM     13  O   UNL     1       8.291 -16.163  -9.492  0.00  0.00    -0.391 OA
ATOM     14  H   UNL     1       8.637 -17.031  -9.242  0.00  0.00    +0.210 HD
ENDBRANCH  12  13
ENDBRANCH   4  12
ENDBRANCH   1   2
BRANCH   1  15
ATOM     15  C   UNL     1       4.403 -10.614  -7.593  0.00  0.00    +0.001 C 
BRANCH  15  16
ATOM     16  C   UNL     1       3.687 -10.120  -6.334  0.00  0.00    +0.000 C 
BRANCH  16  17
ATOM     17  C   UNL     1       3.666  -8.591  -6.326  0.00  0.00    +0.000 C 
BRANCH  17  18
ATOM     18  C   UNL     1       2.950  -8.097  -5.067  0.00  0.00    +0.000 C 
BRANCH  18  19
ATOM     19  C   UNL     1       2.929  -6.567  -5.058  0.00  0.00    -0.000 C 
BRANCH  19  20
ATOM     20  C   UNL     1       2.213  -6.074  -3.800  0.00  0.00    -0.000 C 
BRANCH  20  21
ATOM     21  C   UNL     1       2.192  -4.544  -3.791  0.00  0.00    -0.000 C 
BRANCH  21  22
ATOM     22  C   UNL     1       1.476  -4.051  -2.532  0.00  0.00    -0.000 C 
BRANCH  22  23
ATOM     23  C   UNL     1       1.455  -2.521  -2.524  0.00  0.00    -0.000 C 
BRANCH  23  24
ATOM     24  C   UNL     1       0.739  -2.027  -1.265  0.00  0.00    -0.000 C 
BRANCH  24  25
ATOM     25  C   UNL     1       0.718  -0.497  -1.257  0.00  0.00    -0.000 C 
BRANCH  25  27
ATOM     26  C   UNL     1      -0.019   1.526   0.010  0.00  0.00    +0.004 C 
ATOM     27  C   UNL     1       0.002  -0.004   0.002  0.00  0.00    -0.003 C 
ENDBRANCH  25  27
ENDBRANCH  24  25
ENDBRANCH  23  24
ENDBRANCH  22  23
ENDBRANCH  21  22
ENDBRANCH  20  21
ENDBRANCH  19  20
ENDBRANCH  18  19
ENDBRANCH  17  18
ENDBRANCH  16  17
ENDBRANCH  15  16
ENDBRANCH   1  15
TORSDOF 17
