REMARK  Name = CHEMBL95692
REMARK  5 active torsions:
REMARK  status: ('A' for Active; 'I' for Inactive)
REMARK    1  A    between atoms: C_1  and  O_2
REMARK    2  A    between atoms: O_2  and  C_3
REMARK    3  A    between atoms: C_7  and  C_9
REMARK    4  A    between atoms: C_10  and  C_20
REMARK    5  A    between atoms: N_13  and  C_14
REMARK                            x       y       z     vdW  Elec       q    Type
REMARK                         _______ _______ _______ _____ _____    ______ ____
ROOT
ATOM      1  C   UNL     1       1.238  -4.057   2.281  0.00  0.00    +0.095 A 
ATOM      2  C   UNL     1       0.348  -4.928   1.677  0.00  0.00    +0.098 A 
ATOM      3  N   UNL     1       0.892  -6.157   1.729  0.00  0.00    -0.235 NA
ATOM      4  C   UNL     1       2.052  -6.098   2.322  0.00  0.00    +0.200 A 
ATOM      5  N   UNL     1       2.314  -4.823   2.676  0.00  0.00    -0.325 N 
ENDROOT
BRANCH   5   6
ATOM      6  C   UNL     1       3.518  -4.341   3.359  0.00  0.00    +0.085 C 
ATOM      7  C   UNL     1       4.758  -4.762   2.566  0.00  0.00    +0.006 C 
ATOM      8  C   UNL     1       6.014  -4.325   3.324  0.00  0.00    -0.081 C 
ATOM      9  N   UNL     1       6.037  -4.962   4.647  0.00  0.00    +0.379 N 
ATOM     10  C   UNL     1       4.888  -4.507   5.439  0.00  0.00    -0.081 C 
ATOM     11  C   UNL     1       3.589  -4.951   4.762  0.00  0.00    +0.006 C 
ATOM     12  H   UNL     1       5.993  -5.964   4.537  0.00  0.00    -0.086 HD
ATOM     13  H   UNL     1       6.891  -4.715   5.123  0.00  0.00    -0.086 HD
ENDBRANCH   5   6
BRANCH   2  14
ATOM     14  C   UNL     1      -0.962  -4.573   1.084  0.00  0.00    +0.003 A 
ATOM     15  C   UNL     1      -1.738  -3.564   1.656  0.00  0.00    +0.013 A 
ATOM     16  C   UNL     1      -2.958  -3.237   1.100  0.00  0.00    +0.039 A 
ATOM     17  C   UNL     1      -3.412  -3.908  -0.025  0.00  0.00    +0.123 A 
ATOM     18  C   UNL     1      -2.644  -4.910  -0.596  0.00  0.00    +0.039 A 
ATOM     19  C   UNL     1      -1.421  -5.241  -0.051  0.00  0.00    +0.013 A 
ATOM     20  F   UNL     1      -4.606  -3.583  -0.565  0.00  0.00    -0.205 F 
ENDBRANCH   2  14
BRANCH   1  25
ATOM     21  C   UNL     1       0.392  -0.554   1.649  0.00  0.00    +0.318 A 
ATOM     22  N   UNL     1       0.759   0.058   2.764  0.00  0.00    -0.203 NA
ATOM     23  C   UNL     1       1.294  -0.617   3.771  0.00  0.00    +0.118 A 
ATOM     24  C   UNL     1       1.470  -1.982   3.651  0.00  0.00    +0.050 A 
ATOM     25  C   UNL     1       1.072  -2.604   2.460  0.00  0.00    +0.096 A 
ATOM     26  N   UNL     1       0.536  -1.858   1.491  0.00  0.00    -0.193 NA
BRANCH  21  28
ATOM     27  C   UNL     1      -0.287   1.581   0.864  0.00  0.00    +0.280 C 
ATOM     28  O   UNL     1      -0.152   0.175   0.645  0.00  0.00    -0.466 OA
ENDBRANCH  21  28
ENDBRANCH   1  25
TORSDOF 4
