REMARK  Name = CHEMBL60455
REMARK  13 active torsions:
REMARK  status: ('A' for Active; 'I' for Inactive)
REMARK    1  A    between atoms: C_3  and  C_39
REMARK    2  A    between atoms: C_4  and  C_8
REMARK    3  A    between atoms: C_5  and  O_7
REMARK    4  A    between atoms: C_8  and  C_10
REMARK    5  A    between atoms: C_11  and  O_38
REMARK    6  A    between atoms: C_13  and  C_17
REMARK    7  A    between atoms: C_15  and  O_16
REMARK    8  A    between atoms: C_17  and  O_19
REMARK    9  A    between atoms: O_19  and  C_20
REMARK   10  A    between atoms: C_20  and  C_21
REMARK   11  A    between atoms: C_26  and  N_28
REMARK   12  A    between atoms: C_29  and  C_31
REMARK   13  A    between atoms: C_34  and  O_37
REMARK                            x       y       z     vdW  Elec       q    Type
REMARK                         _______ _______ _______ _____ _____    ______ ____
ROOT
ATOM      1  C   UNL     1       3.661  -2.174   0.539  0.00  0.00    +0.105 A 
ATOM      2  C   UNL     1       2.434  -2.855   0.502  0.00  0.00    +0.132 A 
ATOM      3  C   UNL     1       2.409  -4.236   0.583  0.00  0.00    +0.061 A 
ATOM      4  C   UNL     1       3.600  -4.952   0.700  0.00  0.00    +0.066 A 
ATOM      5  C   UNL     1       4.822  -4.280   0.737  0.00  0.00    +0.061 A 
ATOM      6  C   UNL     1       4.857  -2.899   0.650  0.00  0.00    +0.132 A 
ENDROOT
BRANCH   1   7
ATOM      7  C   UNL     1       3.693  -0.704   0.454  0.00  0.00    +0.204 C 
ATOM      8  O   UNL     1       4.746  -0.110   0.585  0.00  0.00    -0.286 OA
BRANCH   7  12
ATOM      9  C   UNL     1       0.096   1.467  -0.251  0.00  0.00    +0.004 A 
ATOM     10  C   UNL     1       0.815   0.970  -1.325  0.00  0.00    +0.016 A 
ATOM     11  C   UNL     1       1.991   0.259  -1.109  0.00  0.00    +0.077 A 
ATOM     12  C   UNL     1       2.447   0.049   0.209  0.00  0.00    +0.078 A 
ATOM     13  C   UNL     1       1.709   0.558   1.282  0.00  0.00    +0.128 A 
ATOM     14  C   UNL     1       0.536   1.265   1.041  0.00  0.00    +0.046 A 
BRANCH  11  15
ATOM     15  C   UNL     1       2.758  -0.272  -2.253  0.00  0.00    +0.387 C 
ATOM     16  O   UNL     1       2.310  -0.175  -3.387  0.00  0.00    -0.241 OA
ATOM     17  O   UNL     1       3.841  -0.809  -2.067  0.00  0.00    -0.241 OA
ENDBRANCH  11  15
BRANCH  13  18
ATOM     18  O   UNL     1       2.136   0.362   2.554  0.00  0.00    -0.506 OA
ATOM     19  H   UNL     1       2.659   1.094   2.910  0.00  0.00    +0.292 HD
ENDBRANCH  13  18
ENDBRANCH   7  12
ENDBRANCH   1   7
BRANCH   6  20
ATOM     20  O   UNL     1       6.046  -2.246   0.680  0.00  0.00    -0.506 OA
ATOM     21  H   UNL     1       6.340  -2.005   1.569  0.00  0.00    +0.292 HD
ENDBRANCH   6  20
BRANCH   4  22
ATOM     22  C   UNL     1       3.568  -6.429   0.786  0.00  0.00    +0.339 C 
ATOM     23  O   UNL     1       2.506  -7.016   0.754  0.00  0.00    -0.245 OA
BRANCH  22  24
ATOM     24  O   UNL     1       4.717  -7.122   0.899  0.00  0.00    -0.461 OA
BRANCH  24  25
ATOM     25  C   UNL     1       4.612  -8.545   0.977  0.00  0.00    +0.237 C 
BRANCH  25  26
ATOM     26  C   UNL     1       6.010  -9.154   1.101  0.00  0.00    +0.047 C 
ATOM     27  C   UNL     1       6.802  -8.927  -0.203  0.00  0.00    +0.009 C 
ATOM     28  C   UNL     1       7.625 -10.228  -0.378  0.00  0.00    +0.002 C 
ATOM     29  C   UNL     1       6.639 -11.323   0.099  0.00  0.00    +0.023 C 
ATOM     30  C   UNL     1       5.906 -10.677   1.295  0.00  0.00    +0.080 C 
BRANCH  30  31
ATOM     31  N   UNL     1       6.550 -11.069   2.551  0.00  0.00    -0.308 N 
ATOM     32  C   UNL     1       6.173 -12.201   3.177  0.00  0.00    +0.244 C 
ATOM     33  O   UNL     1       5.298 -12.897   2.700  0.00  0.00    -0.270 OA
ATOM     34  H   UNL     1       7.248 -10.513   2.932  0.00  0.00    +0.149 HD
BRANCH  32  35
ATOM     35  C   UNL     1       6.822 -12.595   4.443  0.00  0.00    +0.037 A 
ATOM     36  C   UNL     1       7.824 -11.793   4.996  0.00  0.00    +0.016 A 
ATOM     37  C   UNL     1       8.426 -12.165   6.177  0.00  0.00    +0.046 A 
ATOM     38  C   UNL     1       8.040 -13.335   6.819  0.00  0.00    +0.117 A 
ATOM     39  C   UNL     1       7.044 -14.136   6.272  0.00  0.00    +0.046 A 
ATOM     40  C   UNL     1       6.432 -13.769   5.094  0.00  0.00    +0.016 A 
BRANCH  38  41
ATOM     41  O   UNL     1       8.637 -13.698   7.982  0.00  0.00    -0.507 OA
ATOM     42  H   UNL     1       8.200 -13.354   8.773  0.00  0.00    +0.292 HD
ENDBRANCH  38  41
ENDBRANCH  32  35
ENDBRANCH  30  31
ENDBRANCH  25  26
ENDBRANCH  24  25
ENDBRANCH  22  24
ENDBRANCH   4  22
BRANCH   2  43
ATOM     43  O   UNL     1       1.275  -2.159   0.389  0.00  0.00    -0.506 OA
ATOM     44  H   UNL     1       0.952  -2.078  -0.519  0.00  0.00    +0.292 HD
ENDBRANCH   2  43
TORSDOF 13
