REMARK  Name = CHEMBL359486
REMARK  9 active torsions:
REMARK  status: ('A' for Active; 'I' for Inactive)
REMARK    1  A    between atoms: C_1  and  N_2
REMARK    2  A    between atoms: N_2  and  C_3
REMARK    3  A    between atoms: N_2  and  C_4
REMARK    4  A    between atoms: C_4  and  C_5
REMARK    5  A    between atoms: C_5  and  C_6
REMARK    6  A    between atoms: C_6  and  N_7
REMARK    7  A    between atoms: C_14  and  C_16
REMARK    8  A    between atoms: C_17  and  C_23
REMARK    9  A    between atoms: N_25  and  C_32
REMARK                            x       y       z     vdW  Elec       q    Type
REMARK                         _______ _______ _______ _____ _____    ______ ____
ROOT
ATOM      1  C   UNL     1      -5.146  -0.852  -5.994  0.00  0.00    +0.077 C 
ATOM      2  C   UNL     1      -4.632  -1.998  -6.591  0.00  0.00    +0.060 C 
ATOM      3  C   UNL     1      -5.180  -2.023  -7.966  0.00  0.00    +0.252 C 
ATOM      4  O   UNL     1      -4.959  -2.876  -8.803  0.00  0.00    -0.270 OA
ATOM      5  N   UNL     1      -5.964  -0.944  -8.133  0.00  0.00    -0.248 N 
ATOM      6  C   UNL     1      -5.999  -0.207  -7.011  0.00  0.00    +0.253 C 
ATOM      7  O   UNL     1      -6.627   0.822  -6.859  0.00  0.00    -0.270 OA
ATOM      8  H   UNL     1      -6.442  -0.730  -8.950  0.00  0.00    +0.158 HD
ENDROOT
BRANCH   1  16
ATOM      9  N   UNL     1      -3.994  -0.090  -2.610  0.00  0.00    -0.263 N 
ATOM     10  C   UNL     1      -5.093   0.732  -2.616  0.00  0.00    +0.070 A 
ATOM     11  C   UNL     1      -5.649   1.600  -1.678  0.00  0.00    +0.028 A 
ATOM     12  C   UNL     1      -6.789   2.304  -1.990  0.00  0.00    +0.002 A 
ATOM     13  C   UNL     1      -7.392   2.159  -3.233  0.00  0.00    +0.001 A 
ATOM     14  C   UNL     1      -6.864   1.313  -4.167  0.00  0.00    +0.012 A 
ATOM     15  C   UNL     1      -5.708   0.589  -3.872  0.00  0.00    +0.028 A 
ATOM     16  C   UNL     1      -4.895  -0.380  -4.620  0.00  0.00    +0.106 A 
ATOM     17  N   UNL     1      -3.900  -0.745  -3.842  0.00  0.00    -0.170 NA
BRANCH   9  18
ATOM     18  C   UNL     1      -3.062  -0.250  -1.492  0.00  0.00    +0.142 C 
BRANCH  18  19
ATOM     19  C   UNL     1      -1.934   0.776  -1.617  0.00  0.00    +0.005 C 
BRANCH  19  20
ATOM     20  C   UNL     1      -0.960   0.608  -0.449  0.00  0.00    -0.078 C 
BRANCH  20  22
ATOM     21  C   UNL     1      -0.428   2.947  -0.424  0.00  0.00    -0.097 C 
ATOM     22  N   UNL     1       0.123   1.593  -0.569  0.00  0.00    +0.376 N 
ATOM     23  C   UNL     1       1.120   1.355   0.484  0.00  0.00    -0.097 C 
ATOM     24  H   UNL     1       0.561   1.503  -1.473  0.00  0.00    -0.083 HD
ENDBRANCH  20  22
ENDBRANCH  19  20
ENDBRANCH  18  19
ENDBRANCH   9  18
ENDBRANCH   1  16
BRANCH   2  25
ATOM     25  C   UNL     1      -3.728  -2.982  -5.981  0.00  0.00    +0.013 A 
ATOM     26  C   UNL     1      -4.060  -3.938  -5.062  0.00  0.00    +0.101 A 
ATOM     27  N   UNL     1      -2.956  -4.661  -4.734  0.00  0.00    -0.314 N 
ATOM     28  C   UNL     1      -1.856  -4.200  -5.431  0.00  0.00    +0.054 A 
ATOM     29  C   UNL     1      -2.286  -3.138  -6.244  0.00  0.00    +0.008 A 
ATOM     30  C   UNL     1      -1.378  -2.480  -7.071  0.00  0.00    +0.010 A 
ATOM     31  C   UNL     1      -0.059  -2.878  -7.088  0.00  0.00    +0.001 A 
ATOM     32  C   UNL     1       0.366  -3.928  -6.289  0.00  0.00    +0.002 A 
ATOM     33  C   UNL     1      -0.520  -4.583  -5.460  0.00  0.00    +0.027 A 
BRANCH  27  34
ATOM     34  C   UNL     1      -2.937  -5.721  -3.820  0.00  0.00    +0.065 A 
ATOM     35  C   UNL     1      -3.502  -5.569  -2.568  0.00  0.00    +0.037 A 
ATOM     36  C   UNL     1      -3.458  -6.663  -1.686  0.00  0.00    +0.002 A 
ATOM     37  C   UNL     1      -4.012  -6.585  -0.397  0.00  0.00    +0.010 A 
ATOM     38  C   UNL     1      -3.950  -7.666   0.428  0.00  0.00    +0.001 A 
ATOM     39  C   UNL     1      -3.344  -8.850   0.012  0.00  0.00    +0.002 A 
ATOM     40  C   UNL     1      -2.798  -8.960  -1.229  0.00  0.00    +0.028 A 
ATOM     41  C   UNL     1      -2.841  -7.867  -2.112  0.00  0.00    +0.071 A 
ATOM     42  N   UNL     1      -2.313  -7.951  -3.336  0.00  0.00    -0.253 NA
ATOM     43  C   UNL     1      -2.350  -6.942  -4.171  0.00  0.00    +0.137 A 
ENDBRANCH  27  34
ENDBRANCH   2  25
TORSDOF 7
