REMARK  Name = CHEMBL91126
REMARK  11 active torsions:
REMARK  status: ('A' for Active; 'I' for Inactive)
REMARK    1  A    between atoms: C_3  and  O_39
REMARK    2  A    between atoms: C_6  and  C_7
REMARK    3  A    between atoms: N_9  and  C_10
REMARK    4  A    between atoms: C_14  and  O_15
REMARK    5  A    between atoms: O_15  and  C_16
REMARK    6  A    between atoms: C_16  and  C_18
REMARK    7  A    between atoms: C_20  and  O_38
REMARK    8  A    between atoms: C_21  and  C_25
REMARK    9  A    between atoms: C_22  and  O_24
REMARK   10  A    between atoms: C_25  and  C_27
REMARK   11  A    between atoms: C_28  and  O_37
REMARK                            x       y       z     vdW  Elec       q    Type
REMARK                         _______ _______ _______ _____ _____    ______ ____
ROOT
ATOM      1  C   UNL     1      -3.403  -5.572   3.909  0.00  0.00    +0.066 A 
ATOM      2  C   UNL     1      -4.645  -4.939   3.956  0.00  0.00    +0.061 A 
ATOM      3  C   UNL     1      -5.477  -5.125   5.046  0.00  0.00    +0.132 A 
ATOM      4  C   UNL     1      -5.069  -5.951   6.105  0.00  0.00    +0.105 A 
ATOM      5  C   UNL     1      -3.819  -6.585   6.053  0.00  0.00    +0.132 A 
ATOM      6  C   UNL     1      -2.996  -6.398   4.956  0.00  0.00    +0.061 A 
ENDROOT
BRANCH   1   7
ATOM      7  C   UNL     1      -2.516  -5.370   2.741  0.00  0.00    +0.340 C 
ATOM      8  O   UNL     1      -1.436  -5.923   2.696  0.00  0.00    -0.245 OA
BRANCH   7   9
ATOM      9  O   UNL     1      -2.907  -4.572   1.729  0.00  0.00    -0.455 OA
BRANCH   9  14
ATOM     10  C   UNL     1      -2.170  -3.034  -0.015  0.00  0.00    +0.129 C 
ATOM     11  C   UNL     1      -2.597  -3.320  -1.471  0.00  0.00    +0.107 C 
ATOM     12  N   UNL     1      -2.092  -4.690  -1.747  0.00  0.00    -0.311 NA
ATOM     13  C   UNL     1      -2.341  -5.432  -0.484  0.00  0.00    +0.127 C 
ATOM     14  C   UNL     1      -2.002  -4.423   0.634  0.00  0.00    +0.212 C 
ATOM     15  H   UNL     1      -2.589  -5.110  -2.518  0.00  0.00    +0.122 HD
BRANCH  10  18
ATOM     16  C   UNL     1      -0.897  -0.957  -0.023  0.00  0.00    +0.244 C 
ATOM     17  O   UNL     1      -1.947  -0.347  -0.070  0.00  0.00    -0.270 OA
ATOM     18  N   UNL     1      -0.900  -2.304   0.008  0.00  0.00    -0.304 N 
ATOM     19  H   UNL     1      -0.062  -2.790   0.045  0.00  0.00    +0.149 HD
BRANCH  16  25
ATOM     20  C   UNL     1       0.389   1.176  -0.032  0.00  0.00    +0.016 A 
ATOM     21  C   UNL     1       1.584   1.858  -0.009  0.00  0.00    +0.046 A 
ATOM     22  C   UNL     1       2.785   1.159   0.045  0.00  0.00    +0.117 A 
ATOM     23  C   UNL     1       2.783  -0.230   0.077  0.00  0.00    +0.046 A 
ATOM     24  C   UNL     1       1.592  -0.920   0.055  0.00  0.00    +0.016 A 
ATOM     25  C   UNL     1       0.383  -0.221   0.001  0.00  0.00    +0.037 A 
BRANCH  22  26
ATOM     26  O   UNL     1       3.961   1.836   0.067  0.00  0.00    -0.507 OA
ATOM     27  H   UNL     1       4.274   2.052   0.956  0.00  0.00    +0.292 HD
ENDBRANCH  22  26
ENDBRANCH  16  25
ENDBRANCH  10  18
ENDBRANCH   9  14
ENDBRANCH   7   9
ENDBRANCH   1   7
BRANCH   5  28
ATOM     28  O   UNL     1      -3.420  -7.385   7.074  0.00  0.00    -0.506 OA
ATOM     29  H   UNL     1      -3.604  -8.324   6.933  0.00  0.00    +0.292 HD
ENDBRANCH   5  28
BRANCH   4  30
ATOM     30  C   UNL     1      -5.952  -6.151   7.268  0.00  0.00    +0.204 C 
ATOM     31  O   UNL     1      -6.989  -5.522   7.360  0.00  0.00    -0.286 OA
BRANCH  30  32
ATOM     32  C   UNL     1      -5.578  -7.114   8.321  0.00  0.00    +0.067 A 
ATOM     33  C   UNL     1      -5.896  -8.469   8.173  0.00  0.00    +0.128 A 
ATOM     34  C   UNL     1      -5.541  -9.366   9.169  0.00  0.00    +0.046 A 
ATOM     35  C   UNL     1      -4.882  -8.917  10.293  0.00  0.00    +0.007 A 
ATOM     36  C   UNL     1      -4.563  -7.570  10.447  0.00  0.00    -0.043 A 
ATOM     37  C   UNL     1      -4.897  -6.671   9.466  0.00  0.00    -0.030 A 
ATOM     38  C   UNL     1      -4.563  -5.205   9.558  0.00  0.00    +0.036 C 
ATOM     39  C   UNL     1      -4.231  -4.818  10.998  0.00  0.00    +0.005 C 
ATOM     40  C   UNL     1      -3.179  -5.798  11.530  0.00  0.00    +0.005 C 
ATOM     41  C   UNL     1      -3.849  -7.162  11.710  0.00  0.00    +0.035 C 
BRANCH  33  42
ATOM     42  O   UNL     1      -6.548  -8.902   7.064  0.00  0.00    -0.506 OA
ATOM     43  H   UNL     1      -5.967  -9.093   6.316  0.00  0.00    +0.292 HD
ENDBRANCH  33  42
ENDBRANCH  30  32
ENDBRANCH   4  30
BRANCH   3  44
ATOM     44  O   UNL     1      -6.685  -4.509   5.092  0.00  0.00    -0.506 OA
ATOM     45  H   UNL     1      -7.405  -5.026   4.705  0.00  0.00    +0.292 HD
ENDBRANCH   3  44
TORSDOF 11
