REMARK  Name = CHEMBL367107
REMARK  7 active torsions:
REMARK  status: ('A' for Active; 'I' for Inactive)
REMARK    1  A    between atoms: C_6  and  N_11
REMARK    2  A    between atoms: C_13  and  C_20
REMARK    3  A    between atoms: C_21  and  C_27
REMARK    4  A    between atoms: N_34  and  C_36
REMARK    5  A    between atoms: C_36  and  C_37
REMARK    6  A    between atoms: C_37  and  C_38
REMARK    7  A    between atoms: C_38  and  N_39
REMARK                            x       y       z     vdW  Elec       q    Type
REMARK                         _______ _______ _______ _____ _____    ______ ____
ROOT
ATOM      1  C   UNL     1       7.701  -3.452  -1.405  0.00  0.00    +0.060 C 
ATOM      2  C   UNL     1       8.840  -2.654  -1.395  0.00  0.00    +0.077 C 
ATOM      3  C   UNL     1       9.758  -3.238  -2.391  0.00  0.00    +0.253 C 
ATOM      4  O   UNL     1      10.863  -2.816  -2.668  0.00  0.00    -0.270 OA
ATOM      5  N   UNL     1       9.171  -4.315  -2.941  0.00  0.00    -0.248 N 
ATOM      6  C   UNL     1       7.954  -4.513  -2.407  0.00  0.00    +0.252 C 
ATOM      7  O   UNL     1       7.189  -5.409  -2.699  0.00  0.00    -0.270 OA
ATOM      8  H   UNL     1       9.572  -4.873  -3.624  0.00  0.00    +0.158 HD
ENDROOT
BRANCH   1  11
ATOM      9  N   UNL     1       4.545  -2.518   0.181  0.00  0.00    -0.315 N 
ATOM     10  C   UNL     1       5.492  -2.373  -0.784  0.00  0.00    +0.101 A 
ATOM     11  C   UNL     1       6.494  -3.280  -0.585  0.00  0.00    +0.013 A 
ATOM     12  C   UNL     1       6.127  -4.054   0.616  0.00  0.00    +0.008 A 
ATOM     13  C   UNL     1       4.900  -3.528   1.055  0.00  0.00    +0.054 A 
ATOM     14  C   UNL     1       4.297  -4.060   2.188  0.00  0.00    +0.027 A 
ATOM     15  C   UNL     1       4.905  -5.091   2.872  0.00  0.00    +0.002 A 
ATOM     16  C   UNL     1       6.118  -5.607   2.440  0.00  0.00    +0.001 A 
ATOM     17  C   UNL     1       6.727  -5.099   1.312  0.00  0.00    +0.010 A 
BRANCH   9  23
ATOM     18  C   UNL     1      -0.040   1.868   0.643  0.00  0.00    +0.001 A 
ATOM     19  C   UNL     1       1.198   2.507   0.622  0.00  0.00    +0.001 A 
ATOM     20  C   UNL     1       2.353   1.794   0.527  0.00  0.00    +0.008 A 
ATOM     21  C   UNL     1       2.300   0.391   0.450  0.00  0.00    -0.016 A 
ATOM     22  C   UNL     1       3.472  -0.377   0.352  0.00  0.00    +0.034 A 
ATOM     23  C   UNL     1       3.379  -1.749   0.279  0.00  0.00    +0.047 A 
ATOM     24  C   UNL     1       2.131  -2.383   0.301  0.00  0.00    +0.027 A 
ATOM     25  C   UNL     1       0.983  -1.662   0.395  0.00  0.00    +0.010 A 
ATOM     26  C   UNL     1       1.041  -0.259   0.472  0.00  0.00    -0.018 A 
ATOM     27  C   UNL     1      -0.130   0.512   0.571  0.00  0.00    +0.008 A 
ENDBRANCH   9  23
ENDBRANCH   1  11
BRANCH   2  28
ATOM     28  C   UNL     1       9.081  -1.465  -0.559  0.00  0.00    +0.106 A 
ATOM     29  C   UNL     1      10.391  -0.926  -0.172  0.00  0.00    +0.028 A 
ATOM     30  C   UNL     1      11.709  -1.307  -0.430  0.00  0.00    +0.012 A 
ATOM     31  C   UNL     1      12.741  -0.579   0.088  0.00  0.00    +0.001 A 
ATOM     32  C   UNL     1      12.492   0.540   0.873  0.00  0.00    +0.002 A 
ATOM     33  C   UNL     1      11.201   0.935   1.141  0.00  0.00    +0.028 A 
ATOM     34  C   UNL     1      10.133   0.206   0.622  0.00  0.00    +0.070 A 
ATOM     35  N   UNL     1       8.770   0.337   0.704  0.00  0.00    -0.263 N 
ATOM     36  N   UNL     1       8.162  -0.689  -0.027  0.00  0.00    -0.170 NA
BRANCH  35  37
ATOM     37  C   UNL     1       8.062   1.389   1.438  0.00  0.00    +0.142 C 
BRANCH  37  38
ATOM     38  C   UNL     1       7.929   2.628   0.551  0.00  0.00    +0.005 C 
BRANCH  38  39
ATOM     39  C   UNL     1       7.301   3.767   1.357  0.00  0.00    -0.077 C 
BRANCH  39  40
ATOM     40  N   UNL     1       7.070   4.920   0.477  0.00  0.00    +0.380 N 
ATOM     41  C   UNL     1       5.990   4.614  -0.495  0.00  0.00    -0.079 C 
ATOM     42  C   UNL     1       5.492   6.017  -0.926  0.00  0.00    -0.020 C 
ATOM     43  C   UNL     1       5.573   6.830   0.386  0.00  0.00    -0.020 C 
ATOM     44  C   UNL     1       6.587   6.075   1.266  0.00  0.00    -0.079 C 
ATOM     45  H   UNL     1       7.920   5.163  -0.010  0.00  0.00    -0.082 HD
ENDBRANCH  39  40
ENDBRANCH  38  39
ENDBRANCH  37  38
ENDBRANCH  35  37
ENDBRANCH   2  28
TORSDOF 7
