REMARK  Name = CHEMBL426587
REMARK  9 active torsions:
REMARK  status: ('A' for Active; 'I' for Inactive)
REMARK    1  A    between atoms: C_1  and  N_2
REMARK    2  A    between atoms: N_2  and  C_3
REMARK    3  A    between atoms: N_2  and  C_4
REMARK    4  A    between atoms: C_4  and  C_5
REMARK    5  A    between atoms: C_5  and  C_6
REMARK    6  A    between atoms: C_6  and  N_7
REMARK    7  A    between atoms: C_14  and  C_16
REMARK    8  A    between atoms: C_17  and  C_23
REMARK    9  A    between atoms: N_25  and  C_32
REMARK                            x       y       z     vdW  Elec       q    Type
REMARK                         _______ _______ _______ _____ _____    ______ ____
ROOT
ATOM      1  C   UNL     1      -2.594  -0.892   7.463  0.00  0.00    +0.077 C 
ATOM      2  C   UNL     1      -3.339  -2.058   7.320  0.00  0.00    +0.060 C 
ATOM      3  C   UNL     1      -4.255  -2.103   8.483  0.00  0.00    +0.252 C 
ATOM      4  O   UNL     1      -5.067  -2.976   8.713  0.00  0.00    -0.270 OA
ATOM      5  N   UNL     1      -4.034  -1.016   9.242  0.00  0.00    -0.248 N 
ATOM      6  C   UNL     1      -3.064  -0.256   8.707  0.00  0.00    +0.253 C 
ATOM      7  O   UNL     1      -2.644   0.786   9.171  0.00  0.00    -0.270 OA
ATOM      8  H   UNL     1      -4.507  -0.810  10.063  0.00  0.00    +0.158 HD
ENDROOT
BRANCH   1  16
ATOM      9  N   UNL     1      -0.261  -0.079   4.769  0.00  0.00    -0.263 N 
ATOM     10  C   UNL     1       0.264   0.758   5.721  0.00  0.00    +0.070 A 
ATOM     11  C   UNL     1       1.332   1.653   5.730  0.00  0.00    +0.028 A 
ATOM     12  C   UNL     1       1.614   2.369   6.871  0.00  0.00    +0.002 A 
ATOM     13  C   UNL     1       0.843   2.208   8.016  0.00  0.00    +0.001 A 
ATOM     14  C   UNL     1      -0.208   1.335   8.029  0.00  0.00    +0.012 A 
ATOM     15  C   UNL     1      -0.513   0.599   6.883  0.00  0.00    +0.028 A 
ATOM     16  C   UNL     1      -1.542  -0.397   6.556  0.00  0.00    +0.106 A 
ATOM     17  N   UNL     1      -1.358  -0.760   5.306  0.00  0.00    -0.170 NA
BRANCH   9  18
ATOM     18  C   UNL     1       0.245  -0.232   3.403  0.00  0.00    +0.142 C 
BRANCH  18  19
ATOM     19  C   UNL     1      -0.453   0.774   2.486  0.00  0.00    +0.005 C 
BRANCH  19  20
ATOM     20  C   UNL     1       0.076   0.615   1.059  0.00  0.00    -0.078 C 
BRANCH  20  22
ATOM     21  C   UNL     1      -0.227   2.946   0.578  0.00  0.00    -0.097 C 
ATOM     22  N   UNL     1      -0.594   1.581   0.178  0.00  0.00    +0.376 N 
ATOM     23  C   UNL     1      -0.176   1.349  -1.211  0.00  0.00    -0.097 C 
ATOM     24  H   UNL     1      -1.594   1.467   0.252  0.00  0.00    -0.083 HD
ENDBRANCH  20  22
ENDBRANCH  19  20
ENDBRANCH  18  19
ENDBRANCH   9  18
ENDBRANCH   1  16
BRANCH   2  25
ATOM     25  C   UNL     1      -3.239  -3.044   6.235  0.00  0.00    +0.013 A 
ATOM     26  C   UNL     1      -2.246  -3.984   6.062  0.00  0.00    +0.101 A 
ATOM     27  N   UNL     1      -2.502  -4.713   4.946  0.00  0.00    -0.314 N 
ATOM     28  C   UNL     1      -3.668  -4.281   4.344  0.00  0.00    +0.054 A 
ATOM     29  C   UNL     1      -4.184  -3.229   5.119  0.00  0.00    +0.008 A 
ATOM     30  C   UNL     1      -5.370  -2.602   4.745  0.00  0.00    +0.010 A 
ATOM     31  C   UNL     1      -6.036  -3.021   3.613  0.00  0.00    +0.001 A 
ATOM     32  C   UNL     1      -5.529  -4.062   2.849  0.00  0.00    +0.002 A 
ATOM     33  C   UNL     1      -4.353  -4.686   3.204  0.00  0.00    +0.027 A 
BRANCH  27  34
ATOM     34  C   UNL     1      -1.694  -5.758   4.469  0.00  0.00    +0.061 A 
ATOM     35  C   UNL     1      -1.548  -6.888   5.185  0.00  0.00    +0.072 A 
ATOM     36  S   UNL     1      -0.457  -7.879   4.183  0.00  0.00    -0.095 S 
ATOM     37  C   UNL     1      -0.224  -6.754   2.831  0.00  0.00    +0.021 A 
ATOM     38  C   UNL     1      -1.006  -5.635   3.188  0.00  0.00    +0.013 A 
ATOM     39  C   UNL     1      -1.020  -4.553   2.278  0.00  0.00    +0.011 A 
ATOM     40  C   UNL     1      -0.311  -4.612   1.118  0.00  0.00    +0.001 A 
ATOM     41  C   UNL     1       0.447  -5.726   0.787  0.00  0.00    +0.001 A 
ATOM     42  C   UNL     1       0.494  -6.799   1.655  0.00  0.00    +0.016 A 
ENDBRANCH  27  34
ENDBRANCH   2  25
TORSDOF 7
