REMARK  Name = CHEMBL97822
REMARK  5 active torsions:
REMARK  status: ('A' for Active; 'I' for Inactive)
REMARK    1  A    between atoms: N_17  and  C_22
REMARK    2  A    between atoms: C_22  and  C_23
REMARK    3  A    between atoms: C_23  and  C_24
REMARK    4  A    between atoms: N_26  and  C_27
REMARK    5  A    between atoms: C_27  and  C_28
REMARK                            x       y       z     vdW  Elec       q    Type
REMARK                         _______ _______ _______ _____ _____    ______ ____
ROOT
ATOM      1  C   UNL     1      -0.017   1.373   0.010  0.00  0.00    +0.001 A 
ATOM      2  C   UNL     1       1.172   2.089   0.002  0.00  0.00    +0.002 A 
ATOM      3  C   UNL     1       2.384   1.435  -0.013  0.00  0.00    +0.026 A 
ATOM      4  C   UNL     1       2.425   0.044  -0.022  0.00  0.00    +0.048 A 
ATOM      5  C   UNL     1       1.222  -0.680  -0.014  0.00  0.00    +0.008 A 
ATOM      6  C   UNL     1       0.002  -0.004   0.002  0.00  0.00    +0.010 A 
ATOM      7  C   UNL     1       1.591  -2.104  -0.026  0.00  0.00    +0.022 A 
ATOM      8  C   UNL     1       0.833  -3.297  -0.025  0.00  0.00    +0.052 A 
ATOM      9  C   UNL     1       1.490  -4.523  -0.039  0.00  0.00    -0.008 A 
ATOM     10  C   UNL     1       2.879  -4.577  -0.053  0.00  0.00    +0.015 A 
ATOM     11  C   UNL     1       3.847  -5.691  -0.070  0.00  0.00    +0.008 A 
ATOM     12  C   UNL     1       3.712  -7.078  -0.078  0.00  0.00    +0.010 A 
ATOM     13  C   UNL     1       4.836  -7.875  -0.096  0.00  0.00    +0.001 A 
ATOM     14  C   UNL     1       6.099  -7.301  -0.105  0.00  0.00    +0.002 A 
ATOM     15  C   UNL     1       6.246  -5.931  -0.097  0.00  0.00    +0.026 A 
ATOM     16  C   UNL     1       5.123  -5.110  -0.080  0.00  0.00    +0.050 A 
ATOM     17  N   UNL     1       4.974  -3.735  -0.070  0.00  0.00    -0.338 N 
ATOM     18  C   UNL     1       3.636  -3.397  -0.054  0.00  0.00    +0.075 A 
ATOM     19  C   UNL     1       2.986  -2.155  -0.040  0.00  0.00    +0.073 A 
ATOM     20  N   UNL     1       3.472  -0.858  -0.038  0.00  0.00    -0.352 N 
ATOM     21  H   UNL     1       4.412  -0.617  -0.046  0.00  0.00    +0.166 HD
ATOM     22  C   UNL     1       0.417  -5.584  -0.034  0.00  0.00    +0.141 C 
ATOM     23  N   UNL     1      -0.864  -4.868  -0.016  0.00  0.00    -0.307 N 
ATOM     24  C   UNL     1      -0.616  -3.547  -0.011  0.00  0.00    +0.245 C 
ATOM     25  O   UNL     1      -1.470  -2.681   0.003  0.00  0.00    -0.270 OA
ATOM     26  H   UNL     1      -1.742  -5.280  -0.010  0.00  0.00    +0.149 HD
ENDROOT
BRANCH  17  27
ATOM     27  C   UNL     1       6.080  -2.774  -0.076  0.00  0.00    +0.131 C 
BRANCH  27  28
ATOM     28  C   UNL     1       6.449  -2.430  -1.520  0.00  0.00    +0.117 C 
BRANCH  28  29
ATOM     29  C   UNL     1       7.587  -1.442  -1.526  0.00  0.00    +0.215 C 
ATOM     30  O   UNL     1       8.056  -1.051  -0.478  0.00  0.00    -0.276 OA
ATOM     31  N   UNL     1       8.083  -0.992  -2.696  0.00  0.00    -0.315 N 
ATOM     32  H   UNL     1       7.708  -1.305  -3.534  0.00  0.00    +0.149 HD
BRANCH  31  33
ATOM     33  C   UNL     1       9.189  -0.031  -2.701  0.00  0.00    +0.110 C 
BRANCH  33  34
ATOM     34  C   UNL     1       9.558   0.313  -4.146  0.00  0.00    +0.034 C 
ATOM     35  C   UNL     1      10.742   1.318  -4.189  0.00  0.00    +0.035 C 
ATOM     36  C   UNL     1      11.380   0.961  -5.555  0.00  0.00    +0.160 C 
ATOM     37  O   UNL     1      11.242  -0.463  -5.673  0.00  0.00    -0.379 OA
ATOM     38  C   UNL     1      10.146  -0.917  -4.870  0.00  0.00    +0.165 C 
ENDBRANCH  33  34
ENDBRANCH  31  33
ENDBRANCH  28  29
ENDBRANCH  27  28
ENDBRANCH  17  27
TORSDOF 5
