REMARK  Name = CHEMBL300422
REMARK  12 active torsions:
REMARK  status: ('A' for Active; 'I' for Inactive)
REMARK    1  A    between atoms: C_3  and  C_34
REMARK    2  A    between atoms: C_4  and  C_8
REMARK    3  A    between atoms: C_5  and  O_7
REMARK    4  A    between atoms: C_8  and  C_10
REMARK    5  A    between atoms: C_11  and  O_33
REMARK    6  A    between atoms: C_13  and  C_17
REMARK    7  A    between atoms: C_15  and  O_16
REMARK    8  A    between atoms: C_17  and  O_19
REMARK    9  A    between atoms: O_19  and  C_20
REMARK   10  A    between atoms: C_24  and  C_25
REMARK   11  A    between atoms: C_25  and  C_26
REMARK   12  A    between atoms: C_29  and  O_32
REMARK                            x       y       z     vdW  Elec       q    Type
REMARK                         _______ _______ _______ _____ _____    ______ ____
ROOT
ATOM      1  C   UNL     1       3.661  -2.174   0.539  0.00  0.00    +0.105 A 
ATOM      2  C   UNL     1       2.434  -2.855   0.502  0.00  0.00    +0.132 A 
ATOM      3  C   UNL     1       2.409  -4.236   0.583  0.00  0.00    +0.061 A 
ATOM      4  C   UNL     1       3.600  -4.952   0.700  0.00  0.00    +0.066 A 
ATOM      5  C   UNL     1       4.822  -4.280   0.737  0.00  0.00    +0.061 A 
ATOM      6  C   UNL     1       4.857  -2.899   0.650  0.00  0.00    +0.132 A 
ENDROOT
BRANCH   1   7
ATOM      7  C   UNL     1       3.693  -0.704   0.454  0.00  0.00    +0.204 C 
ATOM      8  O   UNL     1       4.746  -0.110   0.585  0.00  0.00    -0.286 OA
BRANCH   7  12
ATOM      9  C   UNL     1       0.096   1.467  -0.251  0.00  0.00    +0.004 A 
ATOM     10  C   UNL     1       0.815   0.970  -1.325  0.00  0.00    +0.016 A 
ATOM     11  C   UNL     1       1.991   0.259  -1.109  0.00  0.00    +0.077 A 
ATOM     12  C   UNL     1       2.447   0.049   0.209  0.00  0.00    +0.078 A 
ATOM     13  C   UNL     1       1.709   0.558   1.282  0.00  0.00    +0.128 A 
ATOM     14  C   UNL     1       0.536   1.265   1.041  0.00  0.00    +0.046 A 
BRANCH  11  15
ATOM     15  C   UNL     1       2.758  -0.272  -2.253  0.00  0.00    +0.387 C 
ATOM     16  O   UNL     1       2.310  -0.175  -3.387  0.00  0.00    -0.241 OA
ATOM     17  O   UNL     1       3.841  -0.809  -2.067  0.00  0.00    -0.241 OA
ENDBRANCH  11  15
BRANCH  13  18
ATOM     18  O   UNL     1       2.136   0.362   2.554  0.00  0.00    -0.506 OA
ATOM     19  H   UNL     1       2.659   1.094   2.910  0.00  0.00    +0.292 HD
ENDBRANCH  13  18
ENDBRANCH   7  12
ENDBRANCH   1   7
BRANCH   6  20
ATOM     20  O   UNL     1       6.046  -2.246   0.680  0.00  0.00    -0.506 OA
ATOM     21  H   UNL     1       6.340  -2.005   1.569  0.00  0.00    +0.292 HD
ENDBRANCH   6  20
BRANCH   4  22
ATOM     22  C   UNL     1       3.568  -6.429   0.786  0.00  0.00    +0.340 C 
ATOM     23  O   UNL     1       2.506  -7.016   0.754  0.00  0.00    -0.245 OA
BRANCH  22  24
ATOM     24  O   UNL     1       4.717  -7.122   0.899  0.00  0.00    -0.460 OA
BRANCH  24  25
ATOM     25  C   UNL     1       4.612  -8.545   0.977  0.00  0.00    +0.162 C 
ATOM     26  C   UNL     1       4.592  -9.001   2.452  0.00  0.00    -0.037 C 
ATOM     27  N   UNL     1       5.370 -10.266   2.463  0.00  0.00    +0.382 N 
ATOM     28  C   UNL     1       6.495 -10.011   1.528  0.00  0.00    -0.075 C 
ATOM     29  C   UNL     1       5.864  -9.209   0.369  0.00  0.00    +0.015 C 
ATOM     30  H   UNL     1       5.718 -10.458   3.391  0.00  0.00    -0.086 HD
ATOM     31  H   UNL     1       4.803 -11.032   2.132  0.00  0.00    -0.086 HD
BRANCH  29  32
ATOM     32  C   UNL     1       6.840  -8.144  -0.133  0.00  0.00    +0.040 C 
BRANCH  32  33
ATOM     33  C   UNL     1       7.997  -8.811  -0.832  0.00  0.00    -0.047 A 
ATOM     34  C   UNL     1       9.119  -9.177  -0.112  0.00  0.00    +0.007 A 
ATOM     35  C   UNL     1      10.181  -9.789  -0.750  0.00  0.00    +0.045 A 
ATOM     36  C   UNL     1      10.120 -10.036  -2.114  0.00  0.00    +0.117 A 
ATOM     37  C   UNL     1       8.992  -9.668  -2.834  0.00  0.00    +0.045 A 
ATOM     38  C   UNL     1       7.931  -9.061  -2.190  0.00  0.00    +0.007 A 
BRANCH  36  39
ATOM     39  O   UNL     1      11.163 -10.637  -2.744  0.00  0.00    -0.507 OA
ATOM     40  H   UNL     1      11.106 -11.602  -2.767  0.00  0.00    +0.292 HD
ENDBRANCH  36  39
ENDBRANCH  32  33
ENDBRANCH  29  32
ENDBRANCH  24  25
ENDBRANCH  22  24
ENDBRANCH   4  22
BRANCH   2  41
ATOM     41  O   UNL     1       1.275  -2.159   0.389  0.00  0.00    -0.506 OA
ATOM     42  H   UNL     1       0.952  -2.078  -0.519  0.00  0.00    +0.292 HD
ENDBRANCH   2  41
TORSDOF 12
