REMARK  Name = CHEMBL435868
REMARK  7 active torsions:
REMARK  status: ('A' for Active; 'I' for Inactive)
REMARK    1  A    between atoms: C_8  and  C_10
REMARK    2  A    between atoms: C_11  and  C_26
REMARK    3  A    between atoms: N_18  and  C_19
REMARK    4  A    between atoms: C_19  and  C_20
REMARK    5  A    between atoms: C_20  and  C_21
REMARK    6  A    between atoms: C_21  and  S_22
REMARK    7  A    between atoms: S_22  and  C_23
REMARK                            x       y       z     vdW  Elec       q    Type
REMARK                         _______ _______ _______ _____ _____    ______ ____
ROOT
ATOM      1  C   UNL     1       3.798  -3.318  -0.053  0.00  0.00    +0.094 A 
ATOM      2  C   UNL     1       3.597  -4.450   0.743  0.00  0.00    +0.023 A 
ATOM      3  C   UNL     1       4.664  -5.399   0.384  0.00  0.00    +0.008 A 
ATOM      4  C   UNL     1       4.997  -6.681   0.821  0.00  0.00    +0.010 A 
ATOM      5  C   UNL     1       6.085  -7.328   0.276  0.00  0.00    +0.001 A 
ATOM      6  C   UNL     1       6.848  -6.708  -0.703  0.00  0.00    +0.002 A 
ATOM      7  C   UNL     1       6.531  -5.441  -1.144  0.00  0.00    +0.026 A 
ATOM      8  C   UNL     1       5.436  -4.771  -0.607  0.00  0.00    +0.050 A 
ATOM      9  N   UNL     1       4.889  -3.526  -0.853  0.00  0.00    -0.337 N 
ENDROOT
BRANCH   1  17
ATOM     10  C   UNL     1      -0.017   1.362   0.009  0.00  0.00    +0.001 A 
ATOM     11  C   UNL     1       1.171   2.082   0.002  0.00  0.00    +0.004 A 
ATOM     12  C   UNL     1       2.388   1.433  -0.013  0.00  0.00    +0.047 A 
ATOM     13  C   UNL     1       2.432   0.045  -0.021  0.00  0.00    +0.136 A 
ATOM     14  C   UNL     1       1.225  -0.680  -0.013  0.00  0.00    +0.021 A 
ATOM     15  C   UNL     1       0.002  -0.004   0.002  0.00  0.00    +0.011 A 
ATOM     16  C   UNL     1       1.609  -2.090  -0.025  0.00  0.00    +0.060 A 
ATOM     17  C   UNL     1       2.972  -2.109  -0.039  0.00  0.00    +0.153 A 
ATOM     18  O   UNL     1       3.444  -0.846  -0.036  0.00  0.00    -0.453 OA
ENDBRANCH   1  17
BRANCH   2  19
ATOM     19  C   UNL     1       2.541  -4.650   1.734  0.00  0.00    +0.052 C 
ATOM     20  C   UNL     1       1.291  -5.203   1.523  0.00  0.00    +0.081 C 
ATOM     21  C   UNL     1       0.615  -5.194   2.762  0.00  0.00    +0.244 C 
ATOM     22  O   UNL     1      -0.514  -5.608   2.944  0.00  0.00    -0.270 OA
ATOM     23  N   UNL     1       1.401  -4.660   3.711  0.00  0.00    -0.249 N 
ATOM     24  C   UNL     1       2.588  -4.308   3.182  0.00  0.00    +0.251 C 
ATOM     25  O   UNL     1       3.521  -3.803   3.773  0.00  0.00    -0.270 OA
ATOM     26  H   UNL     1       1.152  -4.548   4.641  0.00  0.00    +0.158 HD
ENDBRANCH   2  19
BRANCH   9  27
ATOM     27  C   UNL     1       5.406  -2.564  -1.829  0.00  0.00    +0.123 C 
BRANCH  27  28
ATOM     28  C   UNL     1       6.438  -1.658  -1.155  0.00  0.00    +0.033 C 
BRANCH  28  29
ATOM     29  C   UNL     1       6.978  -0.653  -2.175  0.00  0.00    +0.079 C 
BRANCH  29  30
ATOM     30  S   UNL     1       8.202   0.421  -1.375  0.00  0.00    -0.093 S 
BRANCH  30  31
ATOM     31  C   UNL     1       8.721   1.507  -2.662  0.00  0.00    +0.123 C 
ATOM     32  N   UNL     1       9.121   2.744  -2.370  0.00  0.00    -0.382 N 
ATOM     33  N   UNL     1       8.715   1.090  -3.929  0.00  0.00    -0.340 N 
ATOM     34  H   UNL     1       9.125   3.048  -1.448  0.00  0.00    +0.158 HD
ATOM     35  H   UNL     1       8.425   0.190  -4.141  0.00  0.00    +0.144 HD
ATOM     36  H   UNL     1       9.001   1.688  -4.637  0.00  0.00    +0.144 HD
ATOM     37  H   UNL     1       9.407   3.342  -3.078  0.00  0.00    +0.158 HD
ENDBRANCH  30  31
ENDBRANCH  29  30
ENDBRANCH  28  29
ENDBRANCH  27  28
ENDBRANCH   9  27
TORSDOF 7
