REMARK  Name = ZINC32911947
REMARK  9 active torsions:
REMARK  status: ('A' for Active; 'I' for Inactive)
REMARK    1  A    between atoms: C_5  and  N_7
REMARK    2  A    between atoms: N_7  and  S_8
REMARK    3  A    between atoms: S_8  and  C_11
REMARK    4  A    between atoms: C_15  and  C_17
REMARK    5  A    between atoms: N_19  and  C_20
REMARK    6  A    between atoms: C_20  and  C_21
REMARK    7  A    between atoms: C_21  and  C_22
REMARK    8  A    between atoms: C_22  and  N_23
REMARK    9  A    between atoms: C_27  and  C_30
REMARK                            x       y       z     vdW  Elec       q    Type
REMARK                         _______ _______ _______ _____ _____    ______ ____
ROOT
ATOM      1  C   UNL     1      -3.113   4.710  10.611  0.00  0.00    +0.244 C 
ATOM      2  O   UNL     1      -1.925   4.601  10.843  0.00  0.00    -0.270 OA
ATOM      3  N   UNL     1      -3.602   4.344   9.410  0.00  0.00    -0.311 N 
ATOM      4  H   UNL     1      -4.677   4.444   9.200  0.00  0.00    +0.149 HD
ENDROOT
BRANCH   1   9
ATOM      5  C   UNL     1      -4.372   6.125  13.855  0.00  0.00    +0.109 A 
ATOM      6  C   UNL     1      -5.724   6.250  13.587  0.00  0.00    +0.029 A 
ATOM      7  C   UNL     1      -6.229   5.875  12.355  0.00  0.00    +0.003 A 
ATOM      8  C   UNL     1      -5.386   5.378  11.383  0.00  0.00    +0.013 A 
ATOM      9  C   UNL     1      -4.022   5.246  11.647  0.00  0.00    +0.039 A 
ATOM     10  C   UNL     1      -3.519   5.626  12.893  0.00  0.00    +0.041 A 
BRANCH   5  11
ATOM     11  S   UNL     1      -3.739   6.606  15.427  0.00  0.00    +0.072 S 
ATOM     12  O   UNL     1      -4.824   6.531  16.342  0.00  0.00    -0.150 OA
ATOM     13  O   UNL     1      -2.531   5.882  15.617  0.00  0.00    -0.150 OA
BRANCH  11  14
ATOM     14  N   UNL     1      -3.321   8.204  15.319  0.00  0.00    -0.213 N 
ATOM     15  H   UNL     1      -2.279   8.513  15.490  0.00  0.00    +0.174 HD
BRANCH  14  20
ATOM     16  C   UNL     1      -6.545   9.966  15.185  0.00  0.00    +0.002 A 
ATOM     17  C   UNL     1      -6.217  11.056  14.401  0.00  0.00    +0.003 A 
ATOM     18  C   UNL     1      -4.928  11.203  13.920  0.00  0.00    +0.040 A 
ATOM     19  C   UNL     1      -3.965  10.259  14.222  0.00  0.00    +0.146 A 
ATOM     20  C   UNL     1      -4.293   9.162  15.011  0.00  0.00    +0.083 A 
ATOM     21  C   UNL     1      -5.589   9.017  15.488  0.00  0.00    +0.027 A 
ATOM     22  F   UNL     1      -2.706  10.402  13.752  0.00  0.00    -0.204 F 
ENDBRANCH  14  20
ENDBRANCH  11  14
ENDBRANCH   5  11
ENDBRANCH   1   9
BRANCH   3  23
ATOM     23  C   UNL     1      -2.702   3.814   8.383  0.00  0.00    +0.106 C 
BRANCH  23  24
ATOM     24  C   UNL     1      -3.504   3.478   7.125  0.00  0.00    +0.037 C 
BRANCH  24  25
ATOM     25  C   UNL     1      -2.564   2.924   6.053  0.00  0.00    +0.104 C 
BRANCH  25  26
ATOM     26  N   UNL     1      -3.332   2.603   4.848  0.00  0.00    -0.329 N 
ATOM     27  C   UNL     1      -2.689   2.082   3.731  0.00  0.00    +0.119 A 
ATOM     28  C   UNL     1      -1.314   1.867   3.765  0.00  0.00    +0.044 A 
ATOM     29  C   UNL     1      -0.687   1.348   2.648  0.00  0.00    +0.017 A 
ATOM     30  C   UNL     1      -1.458   1.059   1.529  0.00  0.00    +0.073 A 
ATOM     31  C   UNL     1      -2.816   1.302   1.563  0.00  0.00    +0.125 A 
ATOM     32  N   UNL     1      -3.389   1.794   2.645  0.00  0.00    -0.240 NA
ATOM     33  H   UNL     1      -4.419   2.774   4.826  0.00  0.00    +0.147 HD
BRANCH  30  34
ATOM     34  C   UNL     1      -0.816   0.492   0.289  0.00  0.00    +0.419 C 
ATOM     35  F   UNL     1      -0.820  -0.905   0.359  0.00  0.00    -0.166 F 
ATOM     36  F   UNL     1       0.502   0.951   0.194  0.00  0.00    -0.166 F 
ATOM     37  F   UNL     1      -1.536   0.904  -0.838  0.00  0.00    -0.166 F 
ENDBRANCH  30  34
ENDBRANCH  25  26
ENDBRANCH  24  25
ENDBRANCH  23  24
ENDBRANCH   3  23
TORSDOF 9
