REMARK  Name = ZINC63584608
REMARK  7 active torsions:
REMARK  status: ('A' for Active; 'I' for Inactive)
REMARK    1  A    between atoms: C_1  and  C_2
REMARK    2  A    between atoms: C_5  and  C_8
REMARK    3  A    between atoms: C_8  and  N_9
REMARK    4  A    between atoms: C_18  and  N_19
REMARK    5  A    between atoms: N_19  and  C_20
REMARK    6  A    between atoms: C_20  and  C_21
REMARK    7  A    between atoms: C_21  and  C_22
REMARK                            x       y       z     vdW  Elec       q    Type
REMARK                         _______ _______ _______ _____ _____    ______ ____
ROOT
ATOM      1  N   UNL     1       1.581  -4.484  -0.296  0.00  0.00    -0.197 N 
ATOM      2  C   UNL     1       2.392  -4.844  -1.395  0.00  0.00    +0.070 A 
ATOM      3  C   UNL     1       1.923  -4.954  -2.700  0.00  0.00    +0.033 A 
ATOM      4  C   UNL     1       2.776  -5.296  -3.692  0.00  0.00    +0.048 A 
ATOM      5  S   UNL     1       4.258  -5.489  -2.920  0.00  0.00    -0.091 S 
ATOM      6  C   UNL     1       3.752  -5.122  -1.263  0.00  0.00    +0.083 A 
ATOM      7  C   UNL     1       4.558  -5.120  -0.051  0.00  0.00    +0.222 C 
ATOM      8  O   UNL     1       5.701  -5.548  -0.026  0.00  0.00    -0.285 OA
ATOM      9  C   UNL     1       3.891  -4.560   1.153  0.00  0.00    +0.170 C 
ATOM     10  C   UNL     1       4.559  -3.883   2.108  0.00  0.00    +0.100 C 
ATOM     11  S   UNL     1       2.143  -4.849   1.230  0.00  0.00    +0.080 S 
ATOM     12  O   UNL     1       1.964  -6.247   1.415  0.00  0.00    -0.150 OA
ATOM     13  O   UNL     1       1.600  -3.879   2.115  0.00  0.00    -0.150 OA
ENDROOT
BRANCH  10  14
ATOM     14  N   UNL     1       3.919  -3.517   3.262  0.00  0.00    -0.348 N 
ATOM     15  H   UNL     1       3.011  -3.815   3.428  0.00  0.00    +0.146 HD
BRANCH  14  16
ATOM     16  C   UNL     1       4.606  -2.675   4.244  0.00  0.00    +0.105 C 
BRANCH  16  17
ATOM     17  C   UNL     1       3.676  -2.415   5.431  0.00  0.00    +0.052 C 
BRANCH  17  18
ATOM     18  C   UNL     1       4.383  -1.549   6.442  0.00  0.00    -0.040 C 
ATOM     19  C   UNL     1       4.304  -0.203   6.556  0.00  0.00    -0.001 A 
ATOM     20  C   UNL     1       3.567   0.818   5.802  0.00  0.00    +0.010 A 
ATOM     21  C   UNL     1       3.692   2.116   6.160  0.00  0.00    +0.001 A 
ATOM     22  C   UNL     1       4.507   2.510   7.231  0.00  0.00    +0.002 A 
ATOM     23  C   UNL     1       5.215   1.631   7.971  0.00  0.00    +0.026 A 
ATOM     24  C   UNL     1       5.157   0.239   7.683  0.00  0.00    +0.043 A 
ATOM     25  N   UNL     1       5.740  -0.793   8.243  0.00  0.00    -0.380 N 
ATOM     26  C   UNL     1       5.317  -2.009   7.538  0.00  0.00    +0.144 C 
ATOM     27  H   UNL     1       6.346  -0.759   9.000  0.00  0.00    +0.160 HD
ENDBRANCH  17  18
ENDBRANCH  16  17
ENDBRANCH  14  16
ENDBRANCH  10  14
BRANCH   1  28
ATOM     28  C   UNL     1       0.295  -3.809  -0.490  0.00  0.00    +0.166 C 
BRANCH  28  33
ATOM     29  C   UNL     1       1.158   1.883  -0.981  0.00  0.00    +0.044 C 
ATOM     30  C   UNL     1       0.933   0.399  -0.853  0.00  0.00    -0.050 A 
ATOM     31  C   UNL     1       0.947  -0.402  -1.980  0.00  0.00    +0.003 A 
ATOM     32  C   UNL     1       0.740  -1.764  -1.862  0.00  0.00    +0.005 A 
ATOM     33  C   UNL     1       0.521  -2.325  -0.618  0.00  0.00    -0.028 A 
ATOM     34  C   UNL     1       0.508  -1.524   0.509  0.00  0.00    +0.005 A 
ATOM     35  C   UNL     1       0.719  -0.163   0.392  0.00  0.00    +0.003 A 
ENDBRANCH  28  33
ENDBRANCH   1  28
TORSDOF 6
