REMARK  Name = ZINC17157642
REMARK  3 active torsions:
REMARK  status: ('A' for Active; 'I' for Inactive)
REMARK    1  A    between atoms: C_1  and  C_2
REMARK    2  A    between atoms: C_2  and  C_8
REMARK    3  A    between atoms: N_3  and  N_4
REMARK                            x       y       z     vdW  Elec       q    Type
REMARK                         _______ _______ _______ _____ _____    ______ ____
ROOT
ATOM      1  C   UNL     1       2.336   3.938   1.543  0.00  0.00    +0.063 C 
ATOM      2  C   UNL     1       1.213   2.973   1.268  0.00  0.00    +0.044 C 
ATOM      3  N   UNL     1       0.256   2.848   2.109  0.00  0.00    -0.187 NA
ENDROOT
BRANCH   2   4
ATOM      4  C   UNL     1       1.215   2.154   0.002  0.00  0.00    +0.031 C 
ATOM      5  C   UNL     1       1.134   3.139  -1.166  0.00  0.00    +0.017 C 
ATOM      6  C   UNL     1      -0.170   3.934  -1.062  0.00  0.00    +0.002 C 
ATOM      7  C   UNL     1      -1.368   2.991  -1.175  0.00  0.00    +0.004 C 
ATOM      8  C   UNL     1      -1.361   2.004  -0.002  0.00  0.00    +0.031 C 
ATOM      9  C   UNL     1      -0.016   1.297   0.009  0.00  0.00    -0.062 C 
ATOM     10  C   UNL     1       0.002  -0.004   0.002  0.00  0.00    -0.027 C 
ATOM     11  C   UNL     1       1.285  -0.788  -0.043  0.00  0.00    +0.027 C 
ATOM     12  C   UNL     1       2.336   0.047  -0.784  0.00  0.00    +0.005 C 
ATOM     13  C   UNL     1       2.510   1.369  -0.039  0.00  0.00    +0.017 C 
ENDBRANCH   2   4
BRANCH   3  14
ATOM     14  N   UNL     1       0.254   3.608   3.285  0.00  0.00    -0.191 N 
ATOM     15  C   UNL     1      -0.754   3.477   4.171  0.00  0.00    +0.317 C 
ATOM     16  O   UNL     1      -0.756   4.137   5.192  0.00  0.00    -0.251 OA
ATOM     17  N   UNL     1      -1.759   2.613   3.925  0.00  0.00    -0.312 N 
ATOM     18  H   UNL     1       0.977   4.230   3.462  0.00  0.00    +0.179 HD
ATOM     19  H   UNL     1      -1.757   2.086   3.110  0.00  0.00    +0.147 HD
ATOM     20  H   UNL     1      -2.484   2.518   4.562  0.00  0.00    +0.147 HD
ENDBRANCH   3  14
TORSDOF 2
