REMARK  Name = ZINC14745803
REMARK  13 active torsions:
REMARK  status: ('A' for Active; 'I' for Inactive)
REMARK    1  A    between atoms: C_1  and  C_2
REMARK    2  A    between atoms: C_2  and  C_10
REMARK    3  A    between atoms: C_3  and  C_4
REMARK    4  A    between atoms: C_10  and  N_11
REMARK    5  A    between atoms: N_11  and  C_12
REMARK    6  A    between atoms: C_14  and  C_26
REMARK    7  A    between atoms: C_16  and  S_18
REMARK    8  A    between atoms: S_18  and  N_21
REMARK    9  A    between atoms: N_21  and  C_22
REMARK   10  A    between atoms: C_22  and  C_23
REMARK   11  A    between atoms: C_22  and  C_24
REMARK   12  A    between atoms: C_22  and  C_25
REMARK   13  A    between atoms: C_34  and  N_73
REMARK                            x       y       z     vdW  Elec       q    Type
REMARK                         _______ _______ _______ _____ _____    ______ ____
ROOT
ATOM      1  C   UNL     1      -0.599   0.614   4.820  0.00  0.00    +0.030 A 
ATOM      2  C   UNL     1      -1.823   0.002   4.601  0.00  0.00    +0.036 A 
ATOM      3  C   UNL     1      -2.025  -0.749   3.443  0.00  0.00    +0.040 A 
ATOM      4  C   UNL     1      -0.992  -0.879   2.512  0.00  0.00    +0.041 A 
ATOM      5  C   UNL     1       0.223  -0.266   2.740  0.00  0.00    +0.108 A 
ATOM      6  C   UNL     1       0.425   0.474   3.890  0.00  0.00    +0.051 A 
ENDROOT
BRANCH   3   7
ATOM      7  C   UNL     1      -3.328  -1.404   3.201  0.00  0.00    +0.247 C 
ATOM      8  O   UNL     1      -4.359  -0.842   3.515  0.00  0.00    -0.270 OA
ATOM      9  N   UNL     1      -3.373  -2.625   2.631  0.00  0.00    -0.299 N 
ATOM     10  C   UNL     1      -4.673  -3.319   2.542  0.00  0.00    +0.106 C 
ATOM     11  C   UNL     1      -4.842  -4.006   1.172  0.00  0.00    +0.000 C 
ATOM     12  C   UNL     1      -4.293  -3.114   0.081  0.00  0.00    -0.078 C 
ATOM     13  C   UNL     1      -1.937  -2.808   0.655  0.00  0.00    -0.060 C 
ATOM     14  C   UNL     1      -2.143  -3.208   2.135  0.00  0.00    +0.089 C 
ATOM     15  C   UNL     1      -2.553  -3.322  -1.582  0.00  0.00    -0.096 C 
ATOM     16  N   UNL     1      -2.881  -3.526  -0.166  0.00  0.00    +0.379 N 
ATOM     17  H   UNL     1      -2.797  -4.526   0.053  0.00  0.00    -0.082 HD
ENDBRANCH   3   7
BRANCH   5  18
ATOM     18  S   UNL     1       1.525  -0.433   1.564  0.00  0.00    +0.059 S 
ATOM     19  O   UNL     1       1.395  -1.729   0.996  0.00  0.00    -0.153 OA
ATOM     20  O   UNL     1       2.714  -0.001   2.210  0.00  0.00    -0.153 OA
BRANCH  18  21
ATOM     21  N   UNL     1       1.227   0.649   0.347  0.00  0.00    -0.185 NA
ATOM     22  H   UNL     1       0.991   0.331  -0.539  0.00  0.00    +0.149 HD
BRANCH  21  23
ATOM     23  C   UNL     1       1.319   2.088   0.607  0.00  0.00    +0.032 C 
ATOM     24  C   UNL     1       2.775   2.463   0.890  0.00  0.00    +0.029 C 
ATOM     25  C   UNL     1       0.821   2.861  -0.616  0.00  0.00    +0.029 C 
ATOM     26  C   UNL     1       0.456   2.443   1.820  0.00  0.00    +0.029 C 
ENDBRANCH  21  23
ENDBRANCH  18  21
ENDBRANCH   5  18
BRANCH   1  27
ATOM     27  N   UNL     1      -0.392   1.367   5.979  0.00  0.00    -0.340 N 
ATOM     28  H   UNL     1       0.465   1.795   6.132  0.00  0.00    +0.146 HD
BRANCH  27  29
ATOM     29  C   UNL     1      -1.469   1.510   6.961  0.00  0.00    +0.132 C 
BRANCH  29  31
ATOM     30  C   UNL     1      -0.231   1.737   9.248  0.00  0.00    +0.040 C 
ATOM     31  C   UNL     1      -0.992   2.364   8.108  0.00  0.00    -0.055 C 
ATOM     32  C   UNL     1      -1.242   3.666   8.114  0.00  0.00    +0.008 C 
BRANCH  32  33
ATOM     33  C   UNL     1      -0.634   4.530   9.148  0.00  0.00    -0.025 A 
ATOM     34  C   UNL     1      -1.335   5.631   9.642  0.00  0.00    +0.008 A 
ATOM     35  C   UNL     1      -0.765   6.430  10.612  0.00  0.00    +0.001 A 
ATOM     36  C   UNL     1       0.504   6.149  11.085  0.00  0.00    +0.000 A 
ATOM     37  C   UNL     1       1.207   5.063  10.595  0.00  0.00    +0.001 A 
ATOM     38  C   UNL     1       0.645   4.252   9.630  0.00  0.00    +0.008 A 
ENDBRANCH  32  33
ENDBRANCH  29  31
ENDBRANCH  27  29
ENDBRANCH   1  27
TORSDOF 8
