REMARK  Name = ZINC13023264
REMARK  7 active torsions:
REMARK  status: ('A' for Active; 'I' for Inactive)
REMARK    1  A    between atoms: C_1  and  C_2
REMARK    2  A    between atoms: C_4  and  C_29
REMARK    3  A    between atoms: C_6  and  S_10
REMARK    4  A    between atoms: C_7  and  C_8
REMARK    5  A    between atoms: S_10  and  C_11
REMARK    6  A    between atoms: C_11  and  C_12
REMARK    7  A    between atoms: C_23  and  C_25
REMARK                            x       y       z     vdW  Elec       q    Type
REMARK                         _______ _______ _______ _____ _____    ______ ____
ROOT
ATOM      1  C   UNL     1      -2.412   7.230   0.064  0.00  0.00    +0.230 C 
ATOM      2  O   UNL     1      -1.528   8.060   0.060  0.00  0.00    -0.274 OA
ATOM      3  N   UNL     1      -3.702   7.619   0.079  0.00  0.00    -0.260 N 
ATOM      4  C   UNL     1      -4.793   6.633   0.078  0.00  0.00    +0.209 C 
ATOM      5  C   UNL     1      -5.877   7.094  -0.856  0.00  0.00    +0.235 C 
ATOM      6  O   UNL     1      -6.576   6.274  -1.413  0.00  0.00    -0.274 OA
ATOM      7  N   UNL     1      -6.078   8.405  -1.086  0.00  0.00    -0.283 N 
ATOM      8  C   UNL     1      -5.254   9.370  -0.496  0.00  0.00    +0.056 A 
ATOM      9  C   UNL     1      -4.048   8.980   0.089  0.00  0.00    +0.058 A 
ATOM     10  C   UNL     1      -3.217   9.923   0.666  0.00  0.00    +0.026 A 
ATOM     11  C   UNL     1      -3.588  11.257   0.665  0.00  0.00    +0.014 A 
ATOM     12  C   UNL     1      -4.784  11.645   0.090  0.00  0.00    +0.057 A 
ATOM     13  C   UNL     1      -5.618  10.706  -0.490  0.00  0.00    +0.037 A 
ATOM     14  H   UNL     1      -6.803   8.685  -1.667  0.00  0.00    +0.155 HD
ENDROOT
BRANCH  12  15
ATOM     15  C   UNL     1      -5.181  13.099   0.095  0.00  0.00    +0.417 C 
ATOM     16  F   UNL     1      -5.915  13.378   1.252  0.00  0.00    -0.166 F 
ATOM     17  F   UNL     1      -4.032  13.896   0.068  0.00  0.00    -0.166 F 
ATOM     18  F   UNL     1      -5.964  13.372  -1.032  0.00  0.00    -0.166 F 
ENDBRANCH  12  15
BRANCH   1  19
ATOM     19  C   UNL     1      -2.068   5.763   0.053  0.00  0.00    +0.172 C 
BRANCH  19  20
ATOM     20  S   UNL     1      -0.269   5.565   0.035  0.00  0.00    -0.096 S 
BRANCH  20  26
ATOM     21  C   UNL     1       2.502   1.077  -0.017  0.00  0.00    +0.045 C 
ATOM     22  C   UNL     1       1.173   1.789   0.001  0.00  0.00    -0.032 A 
ATOM     23  C   UNL     1      -0.013   1.076   0.008  0.00  0.00    +0.027 A 
ATOM     24  C   UNL     1      -1.218   1.756   0.017  0.00  0.00    +0.040 A 
ATOM     25  N   UNL     1      -1.259   3.074   0.030  0.00  0.00    -0.245 NA
ATOM     26  C   UNL     1      -0.155   3.807   0.024  0.00  0.00    +0.112 A 
ATOM     27  C   UNL     1       1.109   3.187   0.009  0.00  0.00    +0.098 A 
ATOM     28  C   UNL     1      -2.507   0.976   0.019  0.00  0.00    +0.065 C 
BRANCH  27  29
ATOM     29  C   UNL     1       2.340   3.995   0.002  0.00  0.00    +0.389 C 
ATOM     30  O   UNL     1       2.838   4.334  -1.054  0.00  0.00    -0.240 OA
ATOM     31  O   UNL     1       2.914   4.358   1.166  0.00  0.00    -0.240 OA
ENDBRANCH  27  29
ENDBRANCH  20  26
ENDBRANCH  19  20
ENDBRANCH   1  19
TORSDOF 5
