REMARK  Name = ZINC37593614
REMARK  8 active torsions:
REMARK  status: ('A' for Active; 'I' for Inactive)
REMARK    1  A    between atoms: C_1  and  C_2
REMARK    2  A    between atoms: C_9  and  N_15
REMARK    3  A    between atoms: C_10  and  C_11
REMARK    4  A    between atoms: N_13  and  C_14
REMARK    5  A    between atoms: C_16  and  C_18
REMARK    6  A    between atoms: C_21  and  S_24
REMARK    7  A    between atoms: S_24  and  N_27
REMARK    8  A    between atoms: C_32  and  C_34
REMARK                            x       y       z     vdW  Elec       q    Type
REMARK                         _______ _______ _______ _____ _____    ______ ____
ROOT
ATOM      1  N   UNL     1       1.094  -5.640   2.360  0.00  0.00    -0.275 N 
ATOM      2  C   UNL     1       2.034  -5.944   3.277  0.00  0.00    +0.249 C 
ATOM      3  O   UNL     1       2.773  -5.076   3.699  0.00  0.00    -0.270 OA
ATOM      4  H   UNL     1       0.504  -6.333   2.023  0.00  0.00    +0.156 HD
ENDROOT
BRANCH   1  12
ATOM      5  C   UNL     1       0.830   1.773  -0.029  0.00  0.00    +0.008 C 
ATOM      6  C   UNL     1       0.773   0.244  -0.048  0.00  0.00    -0.009 C 
ATOM      7  C   UNL     1      -0.687  -0.215  -0.080  0.00  0.00    +0.008 C 
ATOM      8  C   UNL     1      -0.754  -1.720  -0.347  0.00  0.00    +0.037 C 
ATOM      9  C   UNL     1       0.148  -2.433   0.649  0.00  0.00    -0.023 A 
ATOM     10  C   UNL     1       1.111  -1.768   1.324  0.00  0.00    -0.004 A 
ATOM     11  S   UNL     1       1.877  -2.997   2.340  0.00  0.00    -0.077 S 
ATOM     12  C   UNL     1       0.971  -4.340   1.898  0.00  0.00    +0.085 A 
ATOM     13  C   UNL     1       0.071  -3.849   0.965  0.00  0.00    +0.069 A 
ATOM     14  C   UNL     1       1.444  -0.311   1.217  0.00  0.00    +0.046 C 
BRANCH  13  15
ATOM     15  C   UNL     1      -0.917  -4.721   0.324  0.00  0.00    +0.246 C 
ATOM     16  O   UNL     1      -0.642  -5.293  -0.715  0.00  0.00    -0.270 OA
ATOM     17  N   UNL     1      -2.131  -4.890   0.884  0.00  0.00    -0.314 N 
ATOM     18  C   UNL     1      -3.119  -5.762   0.243  0.00  0.00    +0.128 C 
ATOM     19  H   UNL     1      -2.351  -4.434   1.712  0.00  0.00    +0.149 HD
ENDBRANCH  13  15
ENDBRANCH   1  12
BRANCH   2  20
ATOM     20  C   UNL     1       2.165  -7.331   3.769  0.00  0.00    +0.037 A 
ATOM     21  C   UNL     1       1.321  -8.331   3.282  0.00  0.00    +0.015 A 
ATOM     22  C   UNL     1       1.450  -9.624   3.746  0.00  0.00    +0.029 A 
ATOM     23  C   UNL     1       2.412  -9.930   4.692  0.00  0.00    +0.106 A 
ATOM     24  C   UNL     1       3.251  -8.944   5.179  0.00  0.00    +0.029 A 
ATOM     25  C   UNL     1       3.137  -7.648   4.720  0.00  0.00    +0.015 A 
BRANCH  23  26
ATOM     26  S   UNL     1       2.568 -11.584   5.279  0.00  0.00    +0.061 S 
ATOM     27  O   UNL     1       3.179 -11.504   6.560  0.00  0.00    -0.153 OA
ATOM     28  O   UNL     1       1.309 -12.210   5.073  0.00  0.00    -0.153 OA
BRANCH  26  29
ATOM     29  N   UNL     1       3.648 -12.355   4.288  0.00  0.00    -0.174 NA
ATOM     30  C   UNL     1       3.178 -13.170   3.159  0.00  0.00    +0.110 C 
ATOM     31  C   UNL     1       3.800 -14.566   3.265  0.00  0.00    +0.017 C 
ATOM     32  C   UNL     1       5.322 -14.436   3.356  0.00  0.00    +0.003 C 
ATOM     33  C   UNL     1       5.695 -13.644   4.611  0.00  0.00    +0.020 C 
ATOM     34  C   UNL     1       5.094 -12.233   4.517  0.00  0.00    +0.077 C 
ATOM     35  C   UNL     1       5.344 -11.479   5.824  0.00  0.00    +0.026 C 
ENDBRANCH  26  29
ENDBRANCH  23  26
ENDBRANCH   2  20
TORSDOF 5
