REMARK  Name = ZINC02450070
REMARK  9 active torsions:
REMARK  status: ('A' for Active; 'I' for Inactive)
REMARK    1  A    between atoms: C_1  and  C_2
REMARK    2  A    between atoms: C_5  and  C_8
REMARK    3  A    between atoms: C_11  and  S_20
REMARK    4  A    between atoms: N_12  and  C_13
REMARK    5  A    between atoms: S_20  and  C_21
REMARK    6  A    between atoms: C_21  and  C_22
REMARK    7  A    between atoms: N_24  and  C_25
REMARK    8  A    between atoms: C_28  and  S_31
REMARK    9  A    between atoms: S_31  and  N_34
REMARK                            x       y       z     vdW  Elec       q    Type
REMARK                         _______ _______ _______ _____ _____    ______ ____
ROOT
ATOM      1  C   UNL     1      -2.393   0.917   0.280  0.00  0.00    +0.169 A 
ATOM      2  N   UNL     1      -2.734  -0.351   0.295  0.00  0.00    -0.128 NA
ATOM      3  N   UNL     1      -4.013  -0.461   0.354  0.00  0.00    -0.122 NA
ATOM      4  C   UNL     1      -4.569   0.730   0.380  0.00  0.00    +0.197 A 
ATOM      5  N   UNL     1      -3.558   1.650   0.340  0.00  0.00    -0.270 N 
ENDROOT
BRANCH   1  10
ATOM      6  C   UNL     1       2.959   3.018   0.046  0.00  0.00    +0.044 C 
ATOM      7  C   UNL     1       1.558   2.467   0.105  0.00  0.00    -0.050 A 
ATOM      8  C   UNL     1       0.484   3.281  -0.211  0.00  0.00    +0.004 A 
ATOM      9  C   UNL     1      -0.801   2.783  -0.160  0.00  0.00    +0.012 A 
ATOM     10  C   UNL     1      -1.018   1.456   0.217  0.00  0.00    +0.020 A 
ATOM     11  C   UNL     1       0.070   0.639   0.529  0.00  0.00    +0.012 A 
ATOM     12  C   UNL     1       1.351   1.150   0.474  0.00  0.00    +0.004 A 
ENDBRANCH   1  10
BRANCH   5  13
ATOM     13  C   UNL     1      -3.681   3.047   0.354  0.00  0.00    +0.051 A 
ATOM     14  C   UNL     1      -3.238   3.773   1.451  0.00  0.00    +0.028 A 
ATOM     15  C   UNL     1      -3.356   5.149   1.460  0.00  0.00    +0.022 A 
ATOM     16  C   UNL     1      -3.924   5.803   0.382  0.00  0.00    +0.041 A 
ATOM     17  C   UNL     1      -4.372   5.081  -0.711  0.00  0.00    +0.022 A 
ATOM     18  C   UNL     1      -4.251   3.705  -0.727  0.00  0.00    +0.028 A 
ATOM     19 CL   UNL     1      -4.076   7.532   0.399  0.00  0.00    -0.084 Cl
ENDBRANCH   5  13
BRANCH   4  20
ATOM     20  S   UNL     1      -6.295   1.076   0.460  0.00  0.00    -0.076 S 
BRANCH  20  21
ATOM     21  C   UNL     1      -6.953  -0.610   0.489  0.00  0.00    +0.173 C 
BRANCH  21  22
ATOM     22  C   UNL     1      -8.457  -0.561   0.559  0.00  0.00    +0.227 C 
ATOM     23  O   UNL     1      -9.029   0.508   0.585  0.00  0.00    -0.275 OA
ATOM     24  N   UNL     1      -9.168  -1.706   0.591  0.00  0.00    -0.285 N 
ATOM     25  H   UNL     1      -8.710  -2.559   0.640  0.00  0.00    +0.155 HD
BRANCH  24  26
ATOM     26  C   UNL     1     -10.566  -1.663   0.554  0.00  0.00    +0.034 A 
ATOM     27  C   UNL     1     -11.310  -2.620   1.231  0.00  0.00    +0.025 A 
ATOM     28  C   UNL     1     -12.690  -2.571   1.198  0.00  0.00    +0.030 A 
ATOM     29  C   UNL     1     -13.331  -1.577   0.481  0.00  0.00    +0.105 A 
ATOM     30  C   UNL     1     -12.593  -0.625  -0.199  0.00  0.00    +0.030 A 
ATOM     31  C   UNL     1     -11.213  -0.665  -0.164  0.00  0.00    +0.025 A 
BRANCH  29  32
ATOM     32  S   UNL     1     -15.091  -1.522   0.435  0.00  0.00    +0.056 S 
ATOM     33  O   UNL     1     -15.549  -2.199   1.597  0.00  0.00    -0.153 OA
ATOM     34  O   UNL     1     -15.448  -0.177   0.147  0.00  0.00    -0.153 OA
BRANCH  32  35
ATOM     35  N   UNL     1     -15.576  -2.429  -0.863  0.00  0.00    -0.204 NA
ATOM     36  H   UNL     1     -16.430  -2.889  -0.842  0.00  0.00    +0.144 HD
ATOM     37  H   UNL     1     -15.005  -2.501  -1.644  0.00  0.00    +0.144 HD
ENDBRANCH  32  35
ENDBRANCH  29  32
ENDBRANCH  24  26
ENDBRANCH  21  22
ENDBRANCH  20  21
ENDBRANCH   4  20
TORSDOF 8
