REMARK  Name = ZINC20612748
REMARK  10 active torsions:
REMARK  status: ('A' for Active; 'I' for Inactive)
REMARK    1  A    between atoms: C_1  and  C_2
REMARK    2  A    between atoms: C_6  and  N_8
REMARK    3  A    between atoms: N_8  and  S_9
REMARK    4  A    between atoms: S_9  and  C_12
REMARK    5  A    between atoms: C_15  and  N_18
REMARK    6  A    between atoms: C_19  and  C_21
REMARK    7  A    between atoms: C_27  and  C_29
REMARK    8  A    between atoms: C_29  and  C_30
REMARK    9  A    between atoms: C_29  and  C_31
REMARK   10  A    between atoms: C_29  and  C_32
REMARK                            x       y       z     vdW  Elec       q    Type
REMARK                         _______ _______ _______ _____ _____    ______ ____
ROOT
ATOM      1  C   UNL     1      -0.659   0.449   8.012  0.00  0.00    +0.111 A 
ATOM      2  C   UNL     1      -0.802  -0.927   8.007  0.00  0.00    +0.031 A 
ATOM      3  C   UNL     1      -2.018  -1.498   8.330  0.00  0.00    +0.025 A 
ATOM      4  C   UNL     1      -3.100  -0.688   8.651  0.00  0.00    +0.034 A 
ATOM      5  C   UNL     1      -2.954   0.693   8.650  0.00  0.00    +0.025 A 
ATOM      6  C   UNL     1      -1.735   1.257   8.331  0.00  0.00    +0.031 A 
ENDROOT
BRANCH   4   7
ATOM      7  N   UNL     1      -4.334  -1.263   8.973  0.00  0.00    -0.285 N 
ATOM      8  C   UNL     1      -5.478  -0.659   8.595  0.00  0.00    +0.220 C 
ATOM      9  O   UNL     1      -5.439   0.331   7.895  0.00  0.00    -0.275 OA
ATOM     10  H   UNL     1      -4.370  -2.208   9.536  0.00  0.00    +0.155 HD
BRANCH   8  11
ATOM     11  C   UNL     1      -6.806  -1.215   9.040  0.00  0.00    +0.078 C 
ATOM     12  C   UNL     1      -6.956  -2.649   8.528  0.00  0.00    +0.032 C 
ATOM     13  C   UNL     1      -8.292  -3.223   9.011  0.00  0.00    +0.108 C 
ATOM     14  N   UNL     1      -9.373  -2.318   8.597  0.00  0.00    -0.301 N 
ATOM     15  C   UNL     1      -9.282  -0.897   8.959  0.00  0.00    +0.108 C 
ATOM     16  C   UNL     1      -7.936  -0.350   8.476  0.00  0.00    +0.032 C 
ATOM     17  C   UNL     1     -10.427  -2.783   7.897  0.00  0.00    +0.221 C 
ATOM     18  O   UNL     1     -11.267  -2.012   7.483  0.00  0.00    -0.275 OA
BRANCH  17  19
ATOM     19  C   UNL     1     -10.562  -4.259   7.630  0.00  0.00    +0.039 C 
ATOM     20  C   UNL     1     -11.921  -4.539   6.984  0.00  0.00    +0.020 C 
ATOM     21  C   UNL     1      -9.446  -4.711   6.685  0.00  0.00    +0.020 C 
ATOM     22  C   UNL     1     -10.456  -5.028   8.948  0.00  0.00    +0.020 C 
ENDBRANCH  17  19
ENDBRANCH   8  11
ENDBRANCH   4   7
BRANCH   1  23
ATOM     23  S   UNL     1       0.895   1.173   7.605  0.00  0.00    +0.094 S 
ATOM     24  O   UNL     1       0.621   2.489   7.146  0.00  0.00    -0.148 OA
ATOM     25  O   UNL     1       1.592   0.219   6.815  0.00  0.00    -0.148 OA
BRANCH  23  26
ATOM     26  N   UNL     1       1.746   1.331   9.017  0.00  0.00    -0.058 NA
BRANCH  26  32
ATOM     27  C   UNL     1       4.502  -0.597  12.429  0.00  0.00    +0.066 C 
ATOM     28  C   UNL     1       3.455  -0.737  11.354  0.00  0.00    +0.043 A 
ATOM     29  C   UNL     1       2.901  -1.976  11.072  0.00  0.00    +0.043 A 
ATOM     30  C   UNL     1       1.936  -2.060  10.080  0.00  0.00    +0.116 A 
ATOM     31  N   UNL     1       1.584  -0.964   9.428  0.00  0.00    -0.220 NA
ATOM     32  C   UNL     1       2.138   0.204   9.718  0.00  0.00    +0.258 A 
ATOM     33  N   UNL     1       3.058   0.320  10.665  0.00  0.00    -0.217 NA
ENDBRANCH  26  32
ENDBRANCH  23  26
ENDBRANCH   1  23
TORSDOF 6
