REMARK  Name = ZINC14982919
REMARK  10 active torsions:
REMARK  status: ('A' for Active; 'I' for Inactive)
REMARK    1  A    between atoms: C_1  and  C_2
REMARK    2  A    between atoms: C_2  and  C_33
REMARK    3  A    between atoms: C_4  and  N_69
REMARK    4  A    between atoms: C_9  and  N_69
REMARK    5  A    between atoms: N_12  and  C_15
REMARK    6  A    between atoms: C_18  and  N_21
REMARK    7  A    between atoms: C_22  and  C_24
REMARK    8  A    between atoms: C_24  and  C_25
REMARK    9  A    between atoms: C_28  and  O_31
REMARK   10  A    between atoms: O_31  and  C_32
REMARK                            x       y       z     vdW  Elec       q    Type
REMARK                         _______ _______ _______ _____ _____    ______ ____
ROOT
ATOM      1  C   UNL     1      -6.190   1.242  -2.105  0.00  0.00    +0.030 A 
ATOM      2  C   UNL     1      -6.976   2.361  -1.862  0.00  0.00    +0.025 A 
ATOM      3  C   UNL     1      -8.352   2.248  -1.851  0.00  0.00    +0.025 A 
ATOM      4  C   UNL     1      -8.949   1.014  -2.071  0.00  0.00    +0.034 A 
ATOM      5  C   UNL     1      -8.163  -0.106  -2.308  0.00  0.00    +0.025 A 
ATOM      6  C   UNL     1      -6.787   0.008  -2.326  0.00  0.00    +0.025 A 
ENDROOT
BRANCH   1  10
ATOM      7  C   UNL     1      -2.169   1.909  -1.059  0.00  0.00    -0.069 C 
ATOM      8  C   UNL     1      -2.657   0.480  -1.313  0.00  0.00    +0.003 C 
ATOM      9  C   UNL     1      -4.179   0.432  -1.164  0.00  0.00    +0.103 C 
ATOM     10  N   UNL     1      -4.796   1.357  -2.123  0.00  0.00    -0.330 N 
ATOM     11  C   UNL     1      -4.379   2.742  -1.869  0.00  0.00    +0.103 C 
ATOM     12  C   UNL     1      -2.862   2.859  -2.039  0.00  0.00    +0.003 C 
BRANCH   7  13
ATOM     13  N   UNL     1      -0.710   1.978  -1.267  0.00  0.00    +0.383 N 
ATOM     14  H   UNL     1      -0.456   1.400  -2.077  0.00  0.00    -0.085 HD
ATOM     15  H   UNL     1      -0.438   2.952  -1.443  0.00  0.00    -0.085 HD
BRANCH  13  19
ATOM     16  C   UNL     1       0.273   1.091   2.839  0.00  0.00    +0.041 C 
ATOM     17  C   UNL     1       1.083   2.141   2.077  0.00  0.00    +0.063 C 
ATOM     18  C   UNL     1       0.269   2.648   0.884  0.00  0.00    +0.019 C 
ATOM     19  C   UNL     1       0.001   1.482  -0.073  0.00  0.00    -0.067 C 
ATOM     20  C   UNL     1       1.339   0.870  -0.500  0.00  0.00    +0.012 C 
ATOM     21  C   UNL     1       2.112   0.432   0.746  0.00  0.00    +0.159 C 
ATOM     22  O   UNL     1       2.300   1.556   1.608  0.00  0.00    -0.374 OA
ATOM     23  C   UNL     1       1.406   3.311   3.009  0.00  0.00    +0.041 C 
ENDBRANCH  13  19
ENDBRANCH   7  13
ENDBRANCH   1  10
BRANCH   4  24
ATOM     24  N   UNL     1     -10.346   0.899  -2.054  0.00  0.00    -0.285 N 
ATOM     25  C   UNL     1     -10.924  -0.217  -1.567  0.00  0.00    +0.222 C 
ATOM     26  O   UNL     1     -10.237  -1.154  -1.219  0.00  0.00    -0.275 OA
ATOM     27  H   UNL     1     -10.897   1.622  -2.392  0.00  0.00    +0.155 HD
BRANCH  25  28
ATOM     28  C   UNL     1     -12.425  -0.302  -1.457  0.00  0.00    +0.131 C 
BRANCH  28  29
ATOM     29  C   UNL     1     -12.812  -1.643  -0.888  0.00  0.00    -0.038 A 
ATOM     30  C   UNL     1     -13.051  -2.709  -1.736  0.00  0.00    +0.007 A 
ATOM     31  C   UNL     1     -13.400  -3.940  -1.217  0.00  0.00    +0.046 A 
ATOM     32  C   UNL     1     -13.523  -4.104   0.155  0.00  0.00    +0.120 A 
ATOM     33  C   UNL     1     -13.288  -3.032   1.003  0.00  0.00    +0.046 A 
ATOM     34  C   UNL     1     -12.933  -1.803   0.480  0.00  0.00    +0.007 A 
BRANCH  32  35
ATOM     35  O   UNL     1     -13.871  -5.314   0.668  0.00  0.00    -0.495 OA
ATOM     36  C   UNL     1     -14.098  -6.372  -0.265  0.00  0.00    +0.277 C 
ENDBRANCH  32  35
ENDBRANCH  28  29
ENDBRANCH  25  28
ENDBRANCH   4  24
TORSDOF 7
