REMARK  Name = ZINC08592253
REMARK  8 active torsions:
REMARK  status: ('A' for Active; 'I' for Inactive)
REMARK    1  A    between atoms: C_1  and  C_2
REMARK    2  A    between atoms: C_5  and  N_9
REMARK    3  A    between atoms: C_6  and  C_8
REMARK    4  A    between atoms: C_10  and  C_12
REMARK    5  A    between atoms: C_13  and  C_31
REMARK    6  A    between atoms: C_20  and  C_22
REMARK    7  A    between atoms: C_27  and  O_28
REMARK    8  A    between atoms: O_28  and  C_29
REMARK                            x       y       z     vdW  Elec       q    Type
REMARK                         _______ _______ _______ _____ _____    ______ ____
ROOT
ATOM      1  C   UNL     1       1.309  -7.357  -2.067  0.00  0.00    +0.060 C 
ATOM      2  C   UNL     1       1.622  -7.852  -3.273  0.00  0.00    +0.018 C 
ATOM      3  N   UNL     1       2.212  -9.083  -3.431  0.00  0.00    -0.286 N 
ATOM      4  C   UNL     1       2.247  -9.919  -2.325  0.00  0.00    +0.240 A 
ATOM      5  N   UNL     1       2.536 -11.185  -2.221  0.00  0.00    -0.092 NA
ATOM      6  N   UNL     1       2.437 -11.567  -0.993  0.00  0.00    -0.021 NA
ATOM      7  N   UNL     1       2.082 -10.576  -0.240  0.00  0.00    -0.042 NA
ATOM      8  N   UNL     1       1.950  -9.470  -1.078  0.00  0.00    -0.201 N 
ATOM      9  C   UNL     1       1.588  -8.088  -0.780  0.00  0.00    +0.182 C 
ATOM     10  C   UNL     1       1.316  -7.030  -4.499  0.00  0.00    +0.061 C 
ATOM     11  H   UNL     1       2.590  -9.356  -4.282  0.00  0.00    +0.155 HD
ENDROOT
BRANCH   9  12
ATOM     12  C   UNL     1       2.722  -7.411  -0.054  0.00  0.00    +0.023 A 
ATOM     13  C   UNL     1       3.991  -7.413  -0.601  0.00  0.00    +0.011 A 
ATOM     14  C   UNL     1       5.033  -6.793   0.065  0.00  0.00    +0.016 A 
ATOM     15  C   UNL     1       4.807  -6.169   1.279  0.00  0.00    +0.021 A 
ATOM     16  C   UNL     1       3.539  -6.165   1.829  0.00  0.00    +0.061 A 
ATOM     17  C   UNL     1       2.492  -6.782   1.160  0.00  0.00    +0.127 A 
ATOM     18 BR   UNL     1       6.233  -5.322   2.186  0.00  0.00    -0.050 Br
BRANCH  17  19
ATOM     19  O   UNL     1       1.243  -6.774   1.696  0.00  0.00    -0.495 OA
ATOM     20  C   UNL     1       1.092  -6.164   2.979  0.00  0.00    +0.277 C 
ENDBRANCH  17  19
ENDBRANCH   9  12
BRANCH   1  22
ATOM     21  N   UNL     1       1.425  -4.970  -2.182  0.00  0.00    -0.281 N 
ATOM     22  C   UNL     1       0.691  -6.086  -2.000  0.00  0.00    +0.248 C 
ATOM     23  O   UNL     1      -0.503  -6.000  -1.778  0.00  0.00    -0.270 OA
ATOM     24  H   UNL     1       2.353  -5.039  -2.453  0.00  0.00    +0.155 HD
BRANCH  21  29
ATOM     25  C   UNL     1      -0.919   0.129  -1.360  0.00  0.00    +0.044 C 
ATOM     26  C   UNL     1      -0.296  -1.226  -1.578  0.00  0.00    -0.050 A 
ATOM     27  C   UNL     1      -1.078  -2.284  -2.004  0.00  0.00    +0.005 A 
ATOM     28  C   UNL     1      -0.511  -3.526  -2.205  0.00  0.00    +0.024 A 
ATOM     29  C   UNL     1       0.847  -3.713  -1.979  0.00  0.00    +0.037 A 
ATOM     30  C   UNL     1       1.629  -2.648  -1.551  0.00  0.00    -0.029 A 
ATOM     31  C   UNL     1       1.056  -1.407  -1.357  0.00  0.00    +0.008 A 
ATOM     32  C   UNL     1       3.103  -2.846  -1.305  0.00  0.00    +0.045 C 
ENDBRANCH  21  29
ENDBRANCH   1  22
TORSDOF 4
