REMARK  Name = ZINC43218761
REMARK  7 active torsions:
REMARK  status: ('A' for Active; 'I' for Inactive)
REMARK    1  A    between atoms: C_1  and  O_2
REMARK    2  A    between atoms: O_2  and  C_3
REMARK    3  A    between atoms: C_8  and  C_9
REMARK    4  A    between atoms: N_17  and  C_20
REMARK    5  A    between atoms: C_24  and  N_26
REMARK    6  A    between atoms: C_29  and  C_31
REMARK    7  A    between atoms: C_29  and  C_37
REMARK                            x       y       z     vdW  Elec       q    Type
REMARK                         _______ _______ _______ _____ _____    ______ ____
ROOT
ATOM      1  C   UNL     1       0.051  -2.828  -0.033  0.00  0.00    -0.023 C 
ATOM      2  C   UNL     1       1.011  -2.957   1.145  0.00  0.00    +0.078 C 
ATOM      3  C   UNL     1       2.002  -3.985   0.479  0.00  0.00    +0.090 C 
ATOM      4  C   UNL     1       3.166  -3.869   1.324  0.00  0.00    +0.229 C 
ATOM      5  O   UNL     1       3.951  -4.743   1.623  0.00  0.00    -0.275 OA
ATOM      6  N   UNL     1       3.191  -2.553   1.715  0.00  0.00    -0.210 N 
ATOM      7  C   UNL     1       2.013  -1.887   1.446  0.00  0.00    +0.229 C 
ATOM      8  O   UNL     1       1.823  -0.690   1.445  0.00  0.00    -0.275 OA
ATOM      9  C   UNL     1       1.110  -5.012  -0.074  0.00  0.00    +0.074 C 
ATOM     10  N   UNL     1      -0.128  -4.246  -0.487  0.00  0.00    +0.398 N 
ATOM     11  H   UNL     1      -0.937  -4.649  -0.040  0.00  0.00    -0.083 HD
ATOM     12  H   UNL     1      -0.240  -4.273  -1.490  0.00  0.00    -0.083 HD
ENDROOT
BRANCH   1  18
ATOM     13  C   UNL     1       0.606  -0.607  -1.056  0.00  0.00    +0.122 A 
ATOM     14  C   UNL     1       1.173   0.161  -2.063  0.00  0.00    +0.046 A 
ATOM     15  C   UNL     1       1.786  -0.455  -3.136  0.00  0.00    +0.004 A 
ATOM     16  C   UNL     1       1.836  -1.835  -3.208  0.00  0.00    +0.000 A 
ATOM     17  C   UNL     1       1.271  -2.602  -2.207  0.00  0.00    +0.005 A 
ATOM     18  C   UNL     1       0.661  -1.991  -1.128  0.00  0.00    -0.019 A 
BRANCH  13  20
ATOM     19  C   UNL     1      -0.017   1.425   0.010  0.00  0.00    +0.277 C 
ATOM     20  O   UNL     1       0.002  -0.004   0.002  0.00  0.00    -0.495 OA
ENDBRANCH  13  20
ENDBRANCH   1  18
BRANCH   6  21
ATOM     21  C   UNL     1       4.293  -1.949   2.336  0.00  0.00    +0.046 A 
ATOM     22  C   UNL     1       5.444  -2.685   2.581  0.00  0.00    +0.024 A 
ATOM     23  C   UNL     1       6.528  -2.087   3.193  0.00  0.00    +0.004 A 
ATOM     24  C   UNL     1       6.467  -0.755   3.561  0.00  0.00    +0.033 A 
ATOM     25  C   UNL     1       5.323  -0.019   3.318  0.00  0.00    +0.128 A 
ATOM     26  C   UNL     1       4.237  -0.611   2.701  0.00  0.00    +0.056 A 
BRANCH  25  27
ATOM     27  N   UNL     1       5.262   1.406   3.714  0.00  0.00    +0.056 N 
ATOM     28  O   UNL     1       6.213   1.926   4.249  0.00  0.00    -0.126 OA
ATOM     29  O   UNL     1       4.261   2.050   3.502  0.00  0.00    -0.126 OA
ENDBRANCH  25  27
ENDBRANCH   6  21
BRANCH   9  30
ATOM     30  C   UNL     1       1.738  -5.661  -1.280  0.00  0.00    -0.047 A 
ATOM     31  C   UNL     1       3.114  -5.766  -1.370  0.00  0.00    +0.003 A 
ATOM     32  C   UNL     1       3.690  -6.362  -2.476  0.00  0.00    +0.000 A 
ATOM     33  C   UNL     1       2.892  -6.851  -3.493  0.00  0.00    +0.000 A 
ATOM     34  C   UNL     1       1.516  -6.746  -3.402  0.00  0.00    +0.000 A 
ATOM     35  C   UNL     1       0.939  -6.155  -2.294  0.00  0.00    +0.003 A 
ENDBRANCH   9  30
BRANCH   9  36
ATOM     36  C   UNL     1       0.788  -6.047   0.973  0.00  0.00    +0.350 C 
ATOM     37  O   UNL     1      -0.369  -6.234   1.310  0.00  0.00    -0.248 OA
ATOM     38  O   UNL     1       1.684  -6.697   1.484  0.00  0.00    -0.248 OA
ENDBRANCH   9  36
TORSDOF 6
