REMARK  Name = ZINC21092545
REMARK  6 active torsions:
REMARK  status: ('A' for Active; 'I' for Inactive)
REMARK    1  A    between atoms: C_6  and  C_7
REMARK    2  A    between atoms: C_10  and  S_13
REMARK    3  A    between atoms: N_11  and  N_12
REMARK    4  A    between atoms: S_13  and  C_14
REMARK    5  A    between atoms: C_14  and  C_15
REMARK    6  A    between atoms: N_17  and  C_18
REMARK                            x       y       z     vdW  Elec       q    Type
REMARK                         _______ _______ _______ _____ _____    ______ ____
ROOT
ATOM      1  C   UNL     1      -1.264  -0.768   0.033  0.00  0.00    +0.182 A 
ATOM      2  N   UNL     1      -2.454  -0.295   0.320  0.00  0.00    -0.127 NA
ATOM      3  N   UNL     1      -3.332  -1.229   0.224  0.00  0.00    -0.121 NA
ATOM      4  C   UNL     1      -2.756  -2.356  -0.129  0.00  0.00    +0.209 A 
ATOM      5  N   UNL     1      -1.421  -2.101  -0.269  0.00  0.00    -0.224 N 
ENDROOT
BRANCH   1  11
ATOM      6  C   UNL     1      -0.013   1.386   0.046  0.00  0.00    +0.014 A 
ATOM      7  C   UNL     1       1.174   2.089   0.043  0.00  0.00    +0.039 A 
ATOM      8  C   UNL     1       2.383   1.411   0.021  0.00  0.00    +0.123 A 
ATOM      9  C   UNL     1       2.407   0.026   0.004  0.00  0.00    +0.039 A 
ATOM     10  C   UNL     1       1.226  -0.686   0.007  0.00  0.00    +0.014 A 
ATOM     11  C   UNL     1       0.005  -0.009   0.029  0.00  0.00    +0.021 A 
ATOM     12  F   UNL     1       3.543   2.104   0.017  0.00  0.00    -0.205 F 
ENDBRANCH   1  11
BRANCH   5  13
ATOM     13  N   UNL     1      -0.445  -2.986  -0.630  0.00  0.00    -0.295 N 
ATOM     14  H   UNL     1      -0.051  -3.441   0.180  0.00  0.00    +0.163 HD
ATOM     15  H   UNL     1      -0.797  -3.663  -1.290  0.00  0.00    +0.163 HD
ENDBRANCH   5  13
BRANCH   4  16
ATOM     16  S   UNL     1      -3.556  -3.904  -0.383  0.00  0.00    -0.075 S 
BRANCH  16  17
ATOM     17  C   UNL     1      -5.304  -3.555  -0.045  0.00  0.00    +0.173 C 
BRANCH  17  18
ATOM     18  C   UNL     1      -6.112  -4.814  -0.229  0.00  0.00    +0.227 C 
ATOM     19  O   UNL     1      -5.563  -5.845  -0.555  0.00  0.00    -0.275 OA
ATOM     20  N   UNL     1      -7.445  -4.794  -0.030  0.00  0.00    -0.285 N 
ATOM     21  H   UNL     1      -7.875  -3.988   0.295  0.00  0.00    +0.155 HD
BRANCH  20  22
ATOM     22  C   UNL     1      -8.209  -5.937  -0.294  0.00  0.00    +0.033 A 
ATOM     23  C   UNL     1      -9.493  -5.812  -0.806  0.00  0.00    +0.024 A 
ATOM     24  C   UNL     1     -10.245  -6.941  -1.066  0.00  0.00    +0.016 A 
ATOM     25  C   UNL     1      -9.719  -8.196  -0.815  0.00  0.00    +0.013 A 
ATOM     26  C   UNL     1      -8.440  -8.323  -0.305  0.00  0.00    +0.016 A 
ATOM     27  C   UNL     1      -7.682  -7.198  -0.049  0.00  0.00    +0.024 A 
ATOM     28  I   UNL     1     -10.863  -9.906  -1.209  0.00  0.00    -0.044 I 
ENDBRANCH  20  22
ENDBRANCH  17  18
ENDBRANCH  16  17
ENDBRANCH   4  16
TORSDOF 6
