REMARK  Name = ZINC40122897
REMARK  6 active torsions:
REMARK  status: ('A' for Active; 'I' for Inactive)
REMARK    1  A    between atoms: C_6  and  C_7
REMARK    2  A    between atoms: C_12  and  N_16
REMARK    3  A    between atoms: N_16  and  C_17
REMARK    4  A    between atoms: N_20  and  C_23
REMARK    5  A    between atoms: C_23  and  C_24
REMARK    6  A    between atoms: N_26  and  C_27
REMARK                            x       y       z     vdW  Elec       q    Type
REMARK                         _______ _______ _______ _____ _____    ______ ____
ROOT
ATOM      1  N   UNL     1       0.486  -1.592  -2.345  0.00  0.00    -0.326 N 
ATOM      2  H   UNL     1       0.849  -0.962  -1.703  0.00  0.00    +0.148 HD
ENDROOT
BRANCH   1   8
ATOM      3  C   UNL     1      -1.292  -0.728  -0.019  0.00  0.00    +0.002 A 
ATOM      4  C   UNL     1      -2.228  -0.496   0.930  0.00  0.00    +0.056 A 
ATOM      5  S   UNL     1      -3.532  -1.639   0.518  0.00  0.00    -0.076 S 
ATOM      6  C   UNL     1      -2.800  -2.399  -0.907  0.00  0.00    +0.114 A 
ATOM      7  C   UNL     1      -1.559  -1.742  -1.035  0.00  0.00    +0.055 A 
ATOM      8  C   UNL     1      -0.754  -2.165  -2.126  0.00  0.00    +0.131 A 
ATOM      9  N   UNL     1      -1.204  -3.115  -2.930  0.00  0.00    -0.220 NA
ATOM     10  C   UNL     1      -2.382  -3.685  -2.754  0.00  0.00    +0.224 A 
ATOM     11  N   UNL     1      -3.169  -3.341  -1.753  0.00  0.00    -0.228 NA
BRANCH   3  17
ATOM     12  C   UNL     1       0.317   0.811  -1.140  0.00  0.00    +0.011 A 
ATOM     13  C   UNL     1       1.500   1.522  -1.146  0.00  0.00    +0.039 A 
ATOM     14  C   UNL     1       2.349   1.466  -0.053  0.00  0.00    +0.123 A 
ATOM     15  C   UNL     1       2.016   0.698   1.051  0.00  0.00    +0.039 A 
ATOM     16  C   UNL     1       0.836  -0.016   1.066  0.00  0.00    +0.011 A 
ATOM     17  C   UNL     1      -0.023   0.036  -0.031  0.00  0.00    -0.016 A 
ATOM     18  F   UNL     1       3.507   2.163  -0.063  0.00  0.00    -0.205 F 
ENDBRANCH   3  17
ENDBRANCH   1   8
BRANCH   1  19
ATOM     19  C   UNL     1       1.250  -1.937  -3.546  0.00  0.00    +0.068 C 
ATOM     20  C   UNL     1       2.059  -3.212  -3.290  0.00  0.00    +0.003 C 
ATOM     21  C   UNL     1       2.916  -3.522  -4.519  0.00  0.00    -0.076 C 
ATOM     22  N   UNL     1       3.831  -2.404  -4.777  0.00  0.00    +0.385 N 
ATOM     23  C   UNL     1       3.062  -1.194  -5.094  0.00  0.00    -0.076 C 
ATOM     24  C   UNL     1       2.212  -0.794  -3.887  0.00  0.00    +0.003 C 
ATOM     25  H   UNL     1       4.396  -2.237  -3.958  0.00  0.00    -0.081 HD
BRANCH  22  26
ATOM     26  C   UNL     1       4.704  -2.738  -5.910  0.00  0.00    +0.019 C 
BRANCH  26  27
ATOM     27  C   UNL     1       5.724  -1.645  -6.098  0.00  0.00    +0.197 C 
ATOM     28  O   UNL     1       5.724  -0.682  -5.361  0.00  0.00    -0.278 OA
ATOM     29  N   UNL     1       6.636  -1.738  -7.086  0.00  0.00    -0.314 N 
ATOM     30  H   UNL     1       6.636  -2.508  -7.676  0.00  0.00    +0.149 HD
BRANCH  29  31
ATOM     31  C   UNL     1       7.628  -0.675  -7.269  0.00  0.00    +0.073 C 
ATOM     32  C   UNL     1       7.907  -0.208  -8.699  0.00  0.00    +0.024 C 
ATOM     33  C   UNL     1       8.945  -1.048  -7.953  0.00  0.00    +0.024 C 
ENDBRANCH  29  31
ENDBRANCH  26  27
ENDBRANCH  22  26
ENDBRANCH   1  19
TORSDOF 6
