REMARK  Name = ZINC04106966
REMARK  14 active torsions:
REMARK  status: ('A' for Active; 'I' for Inactive)
REMARK    1  A    between atoms: C_1  and  C_2
REMARK    2  A    between atoms: N_4  and  C_5
REMARK    3  A    between atoms: C_9  and  C_11
REMARK    4  A    between atoms: C_11  and  N_12
REMARK    5  A    between atoms: N_12  and  C_13
REMARK    6  A    between atoms: N_12  and  S_24
REMARK    7  A    between atoms: C_13  and  C_14
REMARK    8  A    between atoms: C_18  and  N_20
REMARK    9  A    between atoms: C_21  and  C_23
REMARK   10  A    between atoms: S_24  and  C_27
REMARK   11  A    between atoms: C_30  and  C_33
REMARK   12  A    between atoms: C_33  and  C_34
REMARK   13  A    between atoms: C_33  and  C_35
REMARK   14  A    between atoms: C_33  and  C_36
REMARK                            x       y       z     vdW  Elec       q    Type
REMARK                         _______ _______ _______ _____ _____    ______ ____
ROOT
ATOM      1  N   UNL     1      -2.194  -0.134   2.331  0.00  0.00    -0.168 NA
ENDROOT
BRANCH   1   2
ATOM      2  S   UNL     1      -3.329   0.513   3.349  0.00  0.00    +0.061 S 
ATOM      3  O   UNL     1      -2.687   0.708   4.602  0.00  0.00    -0.153 OA
ATOM      4  O   UNL     1      -3.954   1.574   2.640  0.00  0.00    -0.153 OA
BRANCH   2   5
ATOM      5  C   UNL     1      -4.563  -0.719   3.603  0.00  0.00    +0.106 A 
ATOM      6  C   UNL     1      -5.669  -0.770   2.776  0.00  0.00    +0.029 A 
ATOM      7  C   UNL     1      -6.635  -1.739   2.972  0.00  0.00    +0.006 A 
ATOM      8  C   UNL     1      -6.499  -2.651   4.002  0.00  0.00    -0.042 A 
ATOM      9  C   UNL     1      -5.395  -2.598   4.832  0.00  0.00    +0.006 A 
ATOM     10  C   UNL     1      -4.427  -1.631   4.633  0.00  0.00    +0.029 A 
BRANCH   8  11
ATOM     11  C   UNL     1      -7.555  -3.705   4.219  0.00  0.00    -0.013 C 
ATOM     12  C   UNL     1      -8.152  -3.548   5.618  0.00  0.00    +0.015 C 
ATOM     13  C   UNL     1      -8.659  -3.544   3.172  0.00  0.00    +0.015 C 
ATOM     14  C   UNL     1      -6.925  -5.093   4.086  0.00  0.00    +0.015 C 
ENDBRANCH   8  11
ENDBRANCH   2   5
ENDBRANCH   1   2
BRANCH   1  15
ATOM     15  C   UNL     1      -2.262   0.135   0.893  0.00  0.00    +0.145 C 
BRANCH  15  20
ATOM     16  C   UNL     1      -2.817  -3.201  -0.794  0.00  0.00    +0.034 A 
ATOM     17  C   UNL     1      -4.173  -3.138  -1.087  0.00  0.00    +0.023 A 
ATOM     18  C   UNL     1      -4.903  -2.020  -0.734  0.00  0.00    +0.002 A 
ATOM     19  C   UNL     1      -4.285  -0.963  -0.091  0.00  0.00    +0.005 A 
ATOM     20  C   UNL     1      -2.933  -1.021   0.197  0.00  0.00    -0.030 A 
ATOM     21  C   UNL     1      -2.199  -2.139  -0.148  0.00  0.00    +0.028 A 
BRANCH  16  25
ATOM     22  C   UNL     1      -1.651  -6.290  -2.602  0.00  0.00    +0.109 C 
ATOM     23  C   UNL     1      -2.380  -5.013  -2.273  0.00  0.00    +0.214 C 
ATOM     24  O   UNL     1      -3.240  -4.596  -3.019  0.00  0.00    -0.276 OA
ATOM     25  N   UNL     1      -2.075  -4.333  -1.150  0.00  0.00    -0.286 N 
ATOM     26  H   UNL     1      -1.341  -4.628  -0.589  0.00  0.00    +0.155 HD
ENDBRANCH  16  25
ENDBRANCH  15  20
ENDBRANCH   1  15
BRANCH   1  27
ATOM     27  C   UNL     1      -1.121  -0.974   2.869  0.00  0.00    +0.145 C 
BRANCH  27  28
ATOM     28  C   UNL     1       0.109  -0.134   3.098  0.00  0.00    -0.030 A 
ATOM     29  C   UNL     1       0.991   0.097   2.058  0.00  0.00    +0.005 A 
ATOM     30  C   UNL     1       2.118   0.872   2.263  0.00  0.00    +0.002 A 
ATOM     31  C   UNL     1       2.372   1.408   3.510  0.00  0.00    +0.023 A 
ATOM     32  C   UNL     1       1.491   1.173   4.558  0.00  0.00    +0.034 A 
ATOM     33  C   UNL     1       0.357   0.400   4.348  0.00  0.00    +0.028 A 
BRANCH  32  34
ATOM     34  N   UNL     1       1.745   1.715   5.823  0.00  0.00    -0.286 N 
ATOM     35  C   UNL     1       3.011   1.801   6.276  0.00  0.00    +0.214 C 
ATOM     36  O   UNL     1       3.936   1.486   5.557  0.00  0.00    -0.276 OA
ATOM     37  C   UNL     1       3.278   2.288   7.677  0.00  0.00    +0.109 C 
ATOM     38  H   UNL     1       1.010   2.028   6.373  0.00  0.00    +0.155 HD
ENDBRANCH  32  34
ENDBRANCH  27  28
ENDBRANCH   1  27
TORSDOF 9
