REMARK  Name = ZINC16572263
REMARK  9 active torsions:
REMARK  status: ('A' for Active; 'I' for Inactive)
REMARK    1  A    between atoms: C_1  and  C_2
REMARK    2  A    between atoms: C_2  and  C_3
REMARK    3  A    between atoms: C_3  and  C_5
REMARK    4  A    between atoms: C_3  and  C_6
REMARK    5  A    between atoms: C_6  and  C_8
REMARK    6  A    between atoms: C_6  and  N_23
REMARK    7  A    between atoms: C_14  and  C_16
REMARK    8  A    between atoms: N_26  and  C_27
REMARK    9  A    between atoms: C_31  and  C_33
REMARK                            x       y       z     vdW  Elec       q    Type
REMARK                         _______ _______ _______ _____ _____    ______ ____
ROOT
ATOM      1  C   UNL     1      -3.553  -2.502  -0.343  0.00  0.00    +0.163 C 
ENDROOT
BRANCH   1   2
ATOM      2  C   UNL     1      -4.828  -3.174   0.096  0.00  0.00    +0.239 C 
ATOM      3  O   UNL     1      -5.767  -2.505   0.473  0.00  0.00    -0.273 OA
ATOM      4  N   UNL     1      -4.925  -4.518   0.071  0.00  0.00    -0.262 N 
ATOM      5  C   UNL     1      -6.133  -5.133   0.375  0.00  0.00    +0.188 A 
ATOM      6  N   UNL     1      -7.299  -4.600   0.718  0.00  0.00    -0.125 NA
ATOM      7  N   UNL     1      -8.312  -5.311   0.959  0.00  0.00    -0.140 NA
ATOM      8  C   UNL     1      -8.270  -6.637   0.896  0.00  0.00    +0.134 A 
ATOM      9  S   UNL     1      -6.559  -6.872   0.423  0.00  0.00    -0.030 S 
ATOM     10  H   UNL     1      -4.152  -5.056  -0.160  0.00  0.00    +0.157 HD
BRANCH   8  11
ATOM     11  C   UNL     1      -9.332  -7.634   1.146  0.00  0.00    +0.009 A 
ATOM     12  C   UNL     1      -9.059  -8.996   1.013  0.00  0.00    +0.012 A 
ATOM     13  C   UNL     1     -10.053  -9.922   1.252  0.00  0.00    +0.020 A 
ATOM     14  C   UNL     1     -11.322  -9.502   1.613  0.00  0.00    +0.041 A 
ATOM     15  C   UNL     1     -11.600  -8.152   1.741  0.00  0.00    +0.020 A 
ATOM     16  C   UNL     1     -10.613  -7.217   1.509  0.00  0.00    +0.012 A 
ATOM     17 CL   UNL     1     -12.570 -10.674   1.906  0.00  0.00    -0.084 Cl
ENDBRANCH   8  11
ENDBRANCH   1   2
BRANCH   1  18
ATOM     18  N   UNL     1      -3.479  -1.163   0.245  0.00  0.00    -0.288 N 
ATOM     19  C   UNL     1      -2.281  -0.574   0.431  0.00  0.00    +0.304 C 
ATOM     20  O   UNL     1      -1.262  -1.154   0.112  0.00  0.00    -0.252 OA
ATOM     21  N   UNL     1      -2.213   0.659   0.972  0.00  0.00    -0.269 N 
ATOM     22  H   UNL     1      -4.292  -0.699   0.500  0.00  0.00    +0.151 HD
ATOM     23  H   UNL     1      -3.020   1.095   1.288  0.00  0.00    +0.156 HD
BRANCH  21  24
ATOM     24  C   UNL     1      -0.979   1.310   1.078  0.00  0.00    +0.035 A 
ATOM     25  C   UNL     1       0.172   0.580   1.348  0.00  0.00    +0.023 A 
ATOM     26  C   UNL     1       1.389   1.224   1.446  0.00  0.00    +0.002 A 
ATOM     27  C   UNL     1       1.463   2.595   1.282  0.00  0.00    +0.003 A 
ATOM     28  C   UNL     1       0.319   3.325   1.018  0.00  0.00    -0.049 A 
ATOM     29  C   UNL     1      -0.902   2.687   0.919  0.00  0.00    +0.026 A 
ATOM     30  C   UNL     1       0.404   4.819   0.838  0.00  0.00    +0.044 C 
ENDBRANCH  21  24
ENDBRANCH   1  18
BRANCH   1  31
ATOM     31  C   UNL     1      -3.534  -2.392  -1.869  0.00  0.00    +0.015 C 
ATOM     32  C   UNL     1      -4.646  -1.445  -2.325  0.00  0.00    +0.010 C 
BRANCH  31  34
ATOM     33  C   UNL     1      -1.082  -2.857  -1.991  0.00  0.00    +0.004 C 
ATOM     34  C   UNL     1      -2.180  -1.844  -2.324  0.00  0.00    +0.002 C 
ENDBRANCH  31  34
ENDBRANCH   1  31
TORSDOF 6
