REMARK  Name = ZINC09295269
REMARK  6 active torsions:
REMARK  status: ('A' for Active; 'I' for Inactive)
REMARK    1  A    between atoms: C_4  and  O_7
REMARK    2  A    between atoms: O_7  and  C_8
REMARK    3  A    between atoms: C_8  and  C_9
REMARK    4  A    between atoms: C_15  and  C_30
REMARK    5  A    between atoms: C_17  and  C_20
REMARK    6  A    between atoms: N_22  and  C_23
REMARK                            x       y       z     vdW  Elec       q    Type
REMARK                         _______ _______ _______ _____ _____    ______ ____
ROOT
ATOM      1  C   UNL     1      -1.156   7.361   0.083  0.00  0.00    +0.189 A 
ATOM      2  N   UNL     1      -1.056   8.131   1.132  0.00  0.00    -0.128 NA
ATOM      3  N   UNL     1      -0.905   9.358   0.769  0.00  0.00    -0.121 NA
ATOM      4  C   UNL     1      -0.909   9.429  -0.533  0.00  0.00    +0.209 A 
ATOM      5  N   UNL     1      -1.076   8.163  -1.019  0.00  0.00    -0.222 N 
ATOM      6  N   UNL     1      -1.152   7.791  -2.323  0.00  0.00    -0.272 N 
ATOM      7  C   UNL     1      -0.549   8.753  -3.246  0.00  0.00    +0.140 C 
ATOM      8  C   UNL     1      -1.240  10.118  -3.126  0.00  0.00    +0.166 C 
ATOM      9  S   UNL     1      -0.730  10.863  -1.547  0.00  0.00    -0.069 S 
ATOM     10  H   UNL     1      -2.105   7.587  -2.585  0.00  0.00    +0.167 HD
ENDROOT
BRANCH   7  11
ATOM     11  C   UNL     1      -0.691   8.246  -4.658  0.00  0.00    -0.024 A 
ATOM     12  C   UNL     1      -1.861   7.624  -5.054  0.00  0.00    +0.008 A 
ATOM     13  C   UNL     1      -1.995   7.163  -6.350  0.00  0.00    +0.038 A 
ATOM     14  C   UNL     1      -0.952   7.314  -7.248  0.00  0.00    +0.123 A 
ATOM     15  C   UNL     1       0.221   7.931  -6.849  0.00  0.00    +0.038 A 
ATOM     16  C   UNL     1       0.350   8.396  -5.554  0.00  0.00    +0.008 A 
ATOM     17  F   UNL     1      -1.080   6.858  -8.514  0.00  0.00    -0.205 F 
ENDBRANCH   7  11
BRANCH   8  18
ATOM     18  C   UNL     1      -0.820  11.005  -4.269  0.00  0.00    +0.233 C 
ATOM     19  O   UNL     1       0.279  10.873  -4.767  0.00  0.00    -0.274 OA
ATOM     20  N   UNL     1      -1.664  11.945  -4.738  0.00  0.00    -0.282 N 
ATOM     21  H   UNL     1      -2.570  11.998  -4.396  0.00  0.00    +0.155 HD
BRANCH  20  22
ATOM     22  C   UNL     1      -1.234  12.845  -5.721  0.00  0.00    +0.069 A 
ATOM     23  C   UNL     1       0.117  13.137  -5.853  0.00  0.00    +0.026 A 
ATOM     24  C   UNL     1       0.539  14.025  -6.824  0.00  0.00    +0.002 A 
ATOM     25  C   UNL     1      -0.382  14.623  -7.664  0.00  0.00    +0.003 A 
ATOM     26  C   UNL     1      -1.729  14.336  -7.537  0.00  0.00    +0.040 A 
ATOM     27  C   UNL     1      -2.158  13.444  -6.570  0.00  0.00    +0.144 A 
ATOM     28  F   UNL     1      -3.473  13.159  -6.449  0.00  0.00    -0.204 F 
ENDBRANCH  20  22
ENDBRANCH   8  18
BRANCH   1  29
ATOM     29  C   UNL     1      -1.335   5.865   0.087  0.00  0.00    +0.306 C 
BRANCH  29  30
ATOM     30  O   UNL     1      -0.054   5.232   0.070  0.00  0.00    -0.484 OA
BRANCH  30  34
ATOM     31  C   UNL     1      -0.001   1.107   0.075  0.00  0.00    +0.000 A 
ATOM     32  C   UNL     1      -1.208   1.782   0.085  0.00  0.00    +0.004 A 
ATOM     33  C   UNL     1      -1.228   3.163   0.089  0.00  0.00    +0.045 A 
ATOM     34  C   UNL     1      -0.036   3.873   0.072  0.00  0.00    +0.121 A 
ATOM     35  C   UNL     1       1.173   3.194   0.056  0.00  0.00    +0.045 A 
ATOM     36  C   UNL     1       1.188   1.812   0.058  0.00  0.00    +0.004 A 
ENDBRANCH  30  34
ENDBRANCH  29  30
ENDBRANCH   1  29
TORSDOF 6
