REMARK  Name = ZINC20101741
REMARK  15 active torsions:
REMARK  status: ('A' for Active; 'I' for Inactive)
REMARK    1  A    between atoms: C_1  and  C_2
REMARK    2  A    between atoms: C_5  and  N_8
REMARK    3  A    between atoms: C_9  and  C_11
REMARK    4  A    between atoms: C_11  and  S_12
REMARK    5  A    between atoms: S_12  and  C_13
REMARK    6  A    between atoms: C_14  and  C_36
REMARK    7  A    between atoms: C_15  and  C_27
REMARK    8  A    between atoms: C_17  and  C_21
REMARK    9  A    between atoms: C_18  and  C_20
REMARK   10  A    between atoms: C_21  and  O_23
REMARK   11  A    between atoms: O_23  and  C_24
REMARK   12  A    between atoms: C_24  and  C_25
REMARK   13  A    between atoms: C_30  and  O_35
REMARK   14  A    between atoms: C_31  and  O_33
REMARK   15  A    between atoms: O_33  and  C_34
REMARK                            x       y       z     vdW  Elec       q    Type
REMARK                         _______ _______ _______ _____ _____    ______ ____
ROOT
ATOM      1  C   UNL     1       1.175   1.665   0.013  0.00  0.00    +0.080 C 
ATOM      2  C   UNL     1       1.202   2.976   0.373  0.00  0.00    +0.069 C 
ATOM      3  C   UNL     1      -0.047   3.691   0.805  0.00  0.00    +0.100 C 
ATOM      4  C   UNL     1      -1.271   2.916   0.409  0.00  0.00    +0.066 C 
ATOM      5  C   UNL     1      -1.204   1.623   0.046  0.00  0.00    +0.016 C 
ATOM      6  N   UNL     1      -0.008   0.960   0.029  0.00  0.00    -0.312 N 
ATOM      7  C   UNL     1      -2.463   0.891  -0.340  0.00  0.00    +0.061 C 
ATOM      8  H   UNL     1       0.008  -0.140   0.027  0.00  0.00    +0.152 HD
ENDROOT
BRANCH   3   9
ATOM      9  C   UNL     1      -0.030   3.856   2.303  0.00  0.00    -0.031 A 
ATOM     10  C   UNL     1       0.022   2.742   3.119  0.00  0.00    +0.008 A 
ATOM     11  C   UNL     1       0.038   2.888   4.494  0.00  0.00    +0.049 A 
ATOM     12  C   UNL     1       0.002   4.154   5.056  0.00  0.00    +0.158 A 
ATOM     13  C   UNL     1      -0.050   5.276   4.235  0.00  0.00    +0.162 A 
ATOM     14  C   UNL     1      -0.061   5.122   2.858  0.00  0.00    +0.054 A 
BRANCH  13  15
ATOM     15  O   UNL     1      -0.086   6.520   4.782  0.00  0.00    -0.491 OA
ATOM     16  C   UNL     1      -0.139   7.625   3.878  0.00  0.00    +0.277 C 
ENDBRANCH  13  15
BRANCH  12  17
ATOM     17  O   UNL     1       0.018   4.299   6.409  0.00  0.00    -0.503 OA
ATOM     18  H   UNL     1      -0.011   5.305   6.854  0.00  0.00    +0.292 HD
ENDBRANCH  12  17
ENDBRANCH   3   9
BRANCH   4  19
ATOM     19  C   UNL     1      -2.527   3.565   0.410  0.00  0.00    +0.338 C 
ATOM     20  O   UNL     1      -3.529   2.952   0.092  0.00  0.00    -0.245 OA
BRANCH  19  21
ATOM     21  O   UNL     1      -2.615   4.864   0.766  0.00  0.00    -0.457 OA
BRANCH  21  22
ATOM     22  C   UNL     1      -3.915   5.456   0.745  0.00  0.00    +0.259 C 
BRANCH  22  23
ATOM     23  C   UNL     1      -3.818   6.899   1.168  0.00  0.00    +0.006 C 
ATOM     24  C   UNL     1      -4.457   7.823   0.495  0.00  0.00    +0.007 C 
ENDBRANCH  22  23
ENDBRANCH  21  22
ENDBRANCH  19  21
ENDBRANCH   4  19
BRANCH   2  25
ATOM     25  C   UNL     1       2.443   3.689   0.338  0.00  0.00    +0.098 C 
ATOM     26  N   UNL     1       3.428   4.254   0.311  0.00  0.00    -0.191 NA
ENDBRANCH   2  25
BRANCH   1  27
ATOM     27  S   UNL     1       2.665   0.863  -0.479  0.00  0.00    -0.100 S 
BRANCH  27  28
ATOM     28  C   UNL     1       2.029  -0.796  -0.827  0.00  0.00    +0.171 C 
BRANCH  28  30
ATOM     29  N   UNL     1       2.921  -2.972  -1.593  0.00  0.00    -0.285 N 
ATOM     30  C   UNL     1       3.160  -1.683  -1.277  0.00  0.00    +0.227 C 
ATOM     31  O   UNL     1       4.286  -1.238  -1.356  0.00  0.00    -0.275 OA
ATOM     32  H   UNL     1       1.917  -3.396  -1.450  0.00  0.00    +0.155 HD
BRANCH  29  37
ATOM     33  C   UNL     1       7.097  -6.207  -3.662  0.00  0.00    +0.044 C 
ATOM     34  C   UNL     1       5.988  -5.347  -3.113  0.00  0.00    -0.050 A 
ATOM     35  C   UNL     1       6.269  -4.383  -2.162  0.00  0.00    +0.005 A 
ATOM     36  C   UNL     1       5.254  -3.594  -1.657  0.00  0.00    +0.023 A 
ATOM     37  C   UNL     1       3.951  -3.769  -2.104  0.00  0.00    +0.033 A 
ATOM     38  C   UNL     1       3.672  -4.742  -3.054  0.00  0.00    +0.023 A 
ATOM     39  C   UNL     1       4.692  -5.525  -3.560  0.00  0.00    +0.005 A 
ENDBRANCH  29  37
ENDBRANCH  28  30
ENDBRANCH  27  28
ENDBRANCH   1  27
TORSDOF 12
