REMARK  Name = ZINC20569904
REMARK  4 active torsions:
REMARK  status: ('A' for Active; 'I' for Inactive)
REMARK    1  A    between atoms: C_4  and  N_20
REMARK    2  A    between atoms: C_5  and  C_7
REMARK    3  A    between atoms: N_20  and  S_21
REMARK    4  A    between atoms: S_21  and  C_24
REMARK                            x       y       z     vdW  Elec       q    Type
REMARK                         _______ _______ _______ _____ _____    ______ ____
ROOT
ATOM      1  C   UNL     1       4.490  -4.774  -0.569  0.00  0.00    +0.001 A 
ATOM      2  C   UNL     1       5.873  -4.830  -0.483  0.00  0.00    +0.002 A 
ATOM      3  C   UNL     1       6.610  -3.676  -0.318  0.00  0.00    +0.027 A 
ATOM      4  C   UNL     1       5.970  -2.445  -0.241  0.00  0.00    +0.086 A 
ATOM      5  C   UNL     1       4.569  -2.385  -0.322  0.00  0.00    +0.061 A 
ATOM      6  C   UNL     1       3.837  -3.564  -0.490  0.00  0.00    +0.015 A 
ENDROOT
BRANCH   5   7
ATOM      7  C   UNL     1       3.877  -1.087  -0.237  0.00  0.00    +0.252 C 
ATOM      8  O   UNL     1       4.518  -0.064  -0.091  0.00  0.00    -0.270 OA
ATOM      9  N   UNL     1       2.533  -1.034  -0.320  0.00  0.00    -0.261 N 
ATOM     10  C   UNL     1       1.882   0.186  -0.240  0.00  0.00    +0.166 A 
ATOM     11  N   UNL     1       2.395   1.384  -0.084  0.00  0.00    -0.225 NA
ATOM     12  C   UNL     1       1.632   2.498  -0.022  0.00  0.00    +0.080 A 
ATOM     13  C   UNL     1       2.055   3.837   0.142  0.00  0.00    +0.032 A 
ATOM     14  C   UNL     1       1.144   4.859   0.186  0.00  0.00    +0.040 A 
ATOM     15  C   UNL     1      -0.220   4.621   0.072  0.00  0.00    +0.125 A 
ATOM     16  C   UNL     1      -0.669   3.321  -0.086  0.00  0.00    +0.055 A 
ATOM     17  C   UNL     1       0.238   2.292  -0.135  0.00  0.00    +0.043 A 
ATOM     18  S   UNL     1       0.130   0.528  -0.321  0.00  0.00    -0.052 S 
ATOM     19  F   UNL     1      -1.098   5.646   0.118  0.00  0.00    -0.205 F 
ATOM     20  H   UNL     1       1.953  -1.959  -0.452  0.00  0.00    +0.157 HD
ENDBRANCH   5   7
BRANCH   4  21
ATOM     21  N   UNL     1       6.710  -1.282  -0.080  0.00  0.00    -0.097 NA
BRANCH  21  22
ATOM     22  S   UNL     1       8.188  -1.133  -0.812  0.00  0.00    +0.092 S 
ATOM     23  O   UNL     1       8.628   0.197  -0.572  0.00  0.00    -0.148 OA
ATOM     24  O   UNL     1       8.949  -2.269  -0.424  0.00  0.00    -0.148 OA
BRANCH  22  25
ATOM     25  C   UNL     1       7.926  -1.272  -2.549  0.00  0.00    +0.110 A 
ATOM     26  C   UNL     1       7.984  -2.511  -3.159  0.00  0.00    +0.030 A 
ATOM     27  C   UNL     1       7.773  -2.621  -4.521  0.00  0.00    +0.022 A 
ATOM     28  C   UNL     1       7.516  -1.490  -5.274  0.00  0.00    +0.041 A 
ATOM     29  C   UNL     1       7.464  -0.249  -4.664  0.00  0.00    +0.022 A 
ATOM     30  C   UNL     1       7.669  -0.141  -3.301  0.00  0.00    +0.030 A 
ATOM     31 CL   UNL     1       7.257  -1.627  -6.986  0.00  0.00    -0.084 Cl
ENDBRANCH  22  25
ENDBRANCH  21  22
ENDBRANCH   4  21
TORSDOF 4
