REMARK  Name = ZINC13131537
REMARK  11 active torsions:
REMARK  status: ('A' for Active; 'I' for Inactive)
REMARK    1  A    between atoms: C_1  and  C_2
REMARK    2  A    between atoms: C_2  and  O_3
REMARK    3  A    between atoms: O_3  and  C_4
REMARK    4  A    between atoms: C_4  and  C_6
REMARK    5  A    between atoms: C_10  and  N_11
REMARK    6  A    between atoms: C_12  and  C_14
REMARK    7  A    between atoms: C_14  and  C_16
REMARK    8  A    between atoms: C_14  and  N_17
REMARK    9  A    between atoms: N_17  and  C_18
REMARK   10  A    between atoms: N_27  and  C_30
REMARK   11  A    between atoms: C_30  and  C_31
REMARK                            x       y       z     vdW  Elec       q    Type
REMARK                         _______ _______ _______ _____ _____    ______ ____
ROOT
ATOM      1  C   UNL     1       3.638   1.751  -0.023  0.00  0.00    +0.091 A 
ATOM      2  C   UNL     1       4.746   0.814  -0.038  0.00  0.00    -0.019 A 
ATOM      3  C   UNL     1       4.398  -0.493  -0.042  0.00  0.00    +0.010 A 
ATOM      4  S   UNL     1       2.630  -0.489  -0.018  0.00  0.00    -0.076 S 
ATOM      5  C   UNL     1       2.353   1.222  -0.014  0.00  0.00    +0.086 A 
ATOM      6  C   UNL     1       5.333  -1.661  -0.058  0.00  0.00    +0.127 C 
ATOM      7  N   UNL     1       6.675  -1.173  -0.429  0.00  0.00    -0.293 NA
ATOM      8  C   UNL     1       7.045  -0.003   0.379  0.00  0.00    +0.090 C 
ATOM      9  C   UNL     1       6.217   1.214  -0.047  0.00  0.00    +0.052 C 
ENDROOT
BRANCH   5  10
ATOM     10  N   UNL     1       1.143   1.898   0.001  0.00  0.00    -0.281 N 
ATOM     11  C   UNL     1      -0.014   1.209   0.009  0.00  0.00    +0.203 C 
ATOM     12  O   UNL     1       0.002  -0.004   0.002  0.00  0.00    -0.277 OA
ATOM     13  H   UNL     1       1.129   2.998   0.007  0.00  0.00    +0.155 HD
BRANCH  11  14
ATOM     14  C   UNL     1      -1.330   1.944   0.019  0.00  0.00    +0.014 C 
ATOM     15  C   UNL     1      -1.429   2.829  -1.225  0.00  0.00    -0.004 C 
BRANCH  14  16
ATOM     16  N   UNL     1      -2.433   0.975   0.019  0.00  0.00    +0.388 N 
ATOM     17  H   UNL     1      -2.654   0.670  -1.015  0.00  0.00    -0.084 HD
ATOM     18  H   UNL     1      -2.145   0.091   0.608  0.00  0.00    -0.084 HD
BRANCH  16  19
ATOM     19  C   UNL     1      -3.646   1.558   0.607  0.00  0.00    -0.071 C 
ATOM     20  C   UNL     1      -3.599   1.405   2.129  0.00  0.00    -0.016 C 
ATOM     21  C   UNL     1      -4.630   2.337   2.767  0.00  0.00    -0.002 C 
ATOM     22  C   UNL     1      -4.567   3.708   2.091  0.00  0.00    -0.000 C 
ATOM     23  C   UNL     1      -5.863   3.954   1.315  0.00  0.00    -0.000 C 
ATOM     24  C   UNL     1      -5.846   3.136   0.022  0.00  0.00    -0.000 C 
ATOM     25  C   UNL     1      -6.128   1.667   0.344  0.00  0.00    -0.002 C 
ATOM     26  C   UNL     1      -4.878   0.833   0.060  0.00  0.00    -0.016 C 
ENDBRANCH  16  19
ENDBRANCH  14  16
ENDBRANCH  11  14
ENDBRANCH   5  10
BRANCH   1  27
ATOM     27  C   UNL     1       3.865   3.197  -0.018  0.00  0.00    +0.342 C 
ATOM     28  O   UNL     1       3.969   3.793   1.037  0.00  0.00    -0.245 OA
BRANCH  27  29
ATOM     29  O   UNL     1       3.959   3.869  -1.184  0.00  0.00    -0.461 OA
BRANCH  29  31
ATOM     30  C   UNL     1       4.263   5.886  -2.514  0.00  0.00    +0.048 C 
ATOM     31  C   UNL     1       4.185   5.301  -1.103  0.00  0.00    +0.229 C 
ENDBRANCH  29  31
ENDBRANCH  27  29
ENDBRANCH   1  27
BRANCH   7  32
ATOM     32  C   UNL     1       7.677  -2.239  -0.301  0.00  0.00    +0.120 C 
BRANCH  32  33
ATOM     33  C   UNL     1       7.400  -3.314  -1.320  0.00  0.00    -0.033 A 
ATOM     34  C   UNL     1       6.575  -4.376  -0.998  0.00  0.00    +0.005 A 
ATOM     35  C   UNL     1       6.317  -5.359  -1.934  0.00  0.00    +0.000 A 
ATOM     36  C   UNL     1       6.893  -5.287  -3.189  0.00  0.00    +0.000 A 
ATOM     37  C   UNL     1       7.721  -4.228  -3.510  0.00  0.00    +0.000 A 
ATOM     38  C   UNL     1       7.975  -3.242  -2.575  0.00  0.00    +0.005 A 
ENDBRANCH  32  33
ENDBRANCH   7  32
TORSDOF 9
