REMARK  Name = ZINC10440979
REMARK  7 active torsions:
REMARK  status: ('A' for Active; 'I' for Inactive)
REMARK    1  A    between atoms: C_1  and  C_2
REMARK    2  A    between atoms: C_5  and  N_9
REMARK    3  A    between atoms: C_6  and  C_8
REMARK    4  A    between atoms: C_13  and  C_15
REMARK    5  A    between atoms: C_15  and  S_16
REMARK    6  A    between atoms: S_16  and  C_17
REMARK    7  A    between atoms: N_27  and  C_28
REMARK                            x       y       z     vdW  Elec       q    Type
REMARK                         _______ _______ _______ _____ _____    ______ ____
ROOT
ATOM      1  C   UNL     1       1.314  -2.770   1.161  0.00  0.00    +0.177 A 
ATOM      2  N   UNL     1       1.337  -4.079   1.228  0.00  0.00    -0.223 NA
ATOM      3  C   UNL     1       1.350  -4.843   0.117  0.00  0.00    +0.079 A 
ATOM      4  C   UNL     1       1.380  -6.239   0.189  0.00  0.00    +0.028 A 
ATOM      5  C   UNL     1       1.394  -6.975  -0.962  0.00  0.00    +0.002 A 
ATOM      6  C   UNL     1       1.379  -6.357  -2.206  0.00  0.00    +0.001 A 
ATOM      7  C   UNL     1       1.350  -4.994  -2.309  0.00  0.00    +0.015 A 
ATOM      8  C   UNL     1       1.335  -4.218  -1.151  0.00  0.00    +0.065 A 
ATOM      9  C   UNL     1       1.305  -2.750  -1.201  0.00  0.00    +0.267 A 
ATOM     10  O   UNL     1       1.291  -2.155  -2.263  0.00  0.00    -0.267 OA
ATOM     11  N   UNL     1       1.293  -2.085  -0.022  0.00  0.00    -0.253 N 
ENDROOT
BRANCH  11  12
ATOM     12  C   UNL     1       1.264  -0.682  -0.015  0.00  0.00    +0.087 A 
ATOM     13  C   UNL     1       0.049  -0.012  -0.009  0.00  0.00    +0.032 A 
ATOM     14  C   UNL     1       0.022   1.369  -0.002  0.00  0.00    +0.040 A 
ATOM     15  C   UNL     1       1.207   2.086   0.000  0.00  0.00    +0.126 A 
ATOM     16  C   UNL     1       2.422   1.421  -0.005  0.00  0.00    +0.078 A 
ATOM     17  C   UNL     1       2.453   0.038  -0.013  0.00  0.00    +0.150 A 
ATOM     18  F   UNL     1       3.638  -0.611  -0.018  0.00  0.00    -0.203 F 
ATOM     19  F   UNL     1       1.178   3.437   0.007  0.00  0.00    -0.205 F 
ENDBRANCH  11  12
BRANCH   1  20
ATOM     20  S   UNL     1       1.305  -1.852   2.664  0.00  0.00    -0.078 S 
BRANCH  20  21
ATOM     21  C   UNL     1       1.340  -3.209   3.861  0.00  0.00    +0.173 C 
BRANCH  21  26
ATOM     22  N   UNL     1       1.382  -3.803   8.632  0.00  0.00    -0.269 N 
ATOM     23  C   UNL     1       1.358  -2.973   7.571  0.00  0.00    +0.310 C 
ATOM     24  O   UNL     1       1.335  -1.769   7.741  0.00  0.00    -0.252 OA
ATOM     25  N   UNL     1       1.361  -3.476   6.321  0.00  0.00    -0.239 N 
ATOM     26  C   UNL     1       1.337  -2.646   5.259  0.00  0.00    +0.231 C 
ATOM     27  O   UNL     1       1.314  -1.446   5.429  0.00  0.00    -0.274 OA
ATOM     28  H   UNL     1       1.318  -4.762   8.499  0.00  0.00    +0.156 HD
ATOM     29  H   UNL     1       1.379  -4.436   6.185  0.00  0.00    +0.159 HD
BRANCH  22  34
ATOM     30  C   UNL     1       1.851  -1.691  13.876  0.00  0.00    +0.044 C 
ATOM     31  C   UNL     1       1.727  -2.252  12.483  0.00  0.00    -0.050 A 
ATOM     32  C   UNL     1       2.201  -1.530  11.403  0.00  0.00    +0.005 A 
ATOM     33  C   UNL     1       2.088  -2.041  10.126  0.00  0.00    +0.024 A 
ATOM     34  C   UNL     1       1.498  -3.282   9.925  0.00  0.00    +0.038 A 
ATOM     35  C   UNL     1       1.018  -4.003  11.011  0.00  0.00    -0.029 A 
ATOM     36  C   UNL     1       1.139  -3.488  12.287  0.00  0.00    +0.008 A 
ATOM     37  C   UNL     1       0.371  -5.347  10.798  0.00  0.00    +0.045 C 
ENDBRANCH  22  34
ENDBRANCH  21  26
ENDBRANCH  20  21
ENDBRANCH   1  20
TORSDOF 5
