REMARK  Name = ZINC38673735
REMARK  7 active torsions:
REMARK  status: ('A' for Active; 'I' for Inactive)
REMARK    1  A    between atoms: C_3  and  S_25
REMARK    2  A    between atoms: C_6  and  C_7
REMARK    3  A    between atoms: N_9  and  C_10
REMARK    4  A    between atoms: C_10  and  C_11
REMARK    5  A    between atoms: C_11  and  C_13
REMARK    6  A    between atoms: C_11  and  N_18
REMARK    7  A    between atoms: S_25  and  N_28
REMARK                            x       y       z     vdW  Elec       q    Type
REMARK                         _______ _______ _______ _____ _____    ______ ____
ROOT
ATOM      1  C   UNL     1      -1.216  -0.776  -0.008  0.00  0.00    +0.244 C 
ATOM      2  O   UNL     1      -2.251  -0.169  -0.197  0.00  0.00    -0.270 OA
ATOM      3  N   UNL     1      -1.225  -2.123   0.049  0.00  0.00    -0.313 N 
ATOM      4  H   UNL     1      -0.398  -2.608   0.200  0.00  0.00    +0.149 HD
ENDROOT
BRANCH   1  10
ATOM      5  C   UNL     1       0.068   1.356   0.100  0.00  0.00    +0.015 A 
ATOM      6  C   UNL     1       1.256   2.039   0.257  0.00  0.00    +0.029 A 
ATOM      7  C   UNL     1       2.433   1.345   0.472  0.00  0.00    +0.106 A 
ATOM      8  C   UNL     1       2.427  -0.038   0.530  0.00  0.00    +0.029 A 
ATOM      9  C   UNL     1       1.246  -0.733   0.376  0.00  0.00    +0.015 A 
ATOM     10  C   UNL     1       0.054  -0.038   0.159  0.00  0.00    +0.037 A 
BRANCH   7  11
ATOM     11  S   UNL     1       3.947   2.224   0.670  0.00  0.00    +0.061 S 
ATOM     12  O   UNL     1       4.989   1.326   0.315  0.00  0.00    -0.153 OA
ATOM     13  O   UNL     1       3.773   3.481   0.030  0.00  0.00    -0.153 OA
BRANCH  11  14
ATOM     14  N   UNL     1       4.123   2.537   2.287  0.00  0.00    -0.177 NA
ATOM     15  C   UNL     1       3.580   3.769   2.875  0.00  0.00    +0.109 C 
ATOM     16  C   UNL     1       2.683   3.397   4.060  0.00  0.00    +0.017 C 
ATOM     17  C   UNL     1       3.475   2.530   5.041  0.00  0.00    +0.003 C 
ATOM     18  C   UNL     1       3.914   1.240   4.343  0.00  0.00    +0.017 C 
ATOM     19  C   UNL     1       4.819   1.584   3.163  0.00  0.00    +0.109 C 
ENDBRANCH  11  14
ENDBRANCH   7  11
ENDBRANCH   1  10
BRANCH   3  20
ATOM     20  C   UNL     1      -2.483  -2.855  -0.116  0.00  0.00    +0.094 C 
BRANCH  20  21
ATOM     21  C   UNL     1      -2.202  -4.358  -0.125  0.00  0.00    -0.020 C 
BRANCH  21  22
ATOM     22  N   UNL     1      -3.454  -5.090  -0.357  0.00  0.00    +0.385 N 
ATOM     23  C   UNL     1      -3.179  -6.537  -0.274  0.00  0.00    -0.078 C 
ATOM     24  C   UNL     1      -4.461  -7.242   0.094  0.00  0.00    -0.019 C 
ATOM     25  C   UNL     1      -5.189  -7.776  -1.154  0.00  0.00    -0.002 C 
ATOM     26  C   UNL     1      -5.135  -6.770  -2.322  0.00  0.00    -0.002 C 
ATOM     27  C   UNL     1      -5.351  -5.350  -1.866  0.00  0.00    -0.019 C 
ATOM     28  C   UNL     1      -3.981  -4.696  -1.588  0.00  0.00    -0.078 C 
ATOM     29  H   UNL     1      -4.111  -4.845   0.369  0.00  0.00    -0.081 HD
ENDBRANCH  21  22
BRANCH  21  30
ATOM     30  C   UNL     1      -1.619  -4.768   1.203  0.00  0.00    -0.052 A 
ATOM     31  C   UNL     1      -0.256  -4.945   1.346  0.00  0.00    +0.009 A 
ATOM     32  C   UNL     1       0.236  -5.314   2.554  0.00  0.00    +0.045 A 
ATOM     33  S   UNL     1      -1.248  -5.423   3.539  0.00  0.00    -0.105 S 
ATOM     34  C   UNL     1      -2.423  -4.963   2.276  0.00  0.00    +0.047 A 
ENDBRANCH  21  30
ENDBRANCH  20  21
ENDBRANCH   3  20
TORSDOF 7
