REMARK  Name = ZINC15023963
REMARK  5 active torsions:
REMARK  status: ('A' for Active; 'I' for Inactive)
REMARK    1  A    between atoms: C_6  and  C_7
REMARK    2  A    between atoms: C_7  and  C_9
REMARK    3  A    between atoms: C_11  and  C_31
REMARK    4  A    between atoms: C_13  and  C_26
REMARK    5  A    between atoms: C_13  and  C_28
REMARK                            x       y       z     vdW  Elec       q    Type
REMARK                         _______ _______ _______ _____ _____    ______ ____
ROOT
ATOM      1  C   UNL     1       0.813  -0.205  -0.477  0.00  0.00    +0.155 C 
ATOM      2  C   UNL     1       1.977   0.669  -1.009  0.00  0.00    +0.078 C 
ATOM      3  C   UNL     1       1.771   2.059  -0.345  0.00  0.00    +0.163 C 
ATOM      4  C   UNL     1       0.274   2.027   0.006  0.00  0.00    +0.127 C 
ATOM      5  N   UNL     1       0.094   0.630   0.479  0.00  0.00    -0.310 N 
ATOM      6  C   UNL     1      -1.235   0.386   0.733  0.00  0.00    +0.038 A 
ATOM      7  C   UNL     1      -1.886  -0.774   0.361  0.00  0.00    +0.026 A 
ATOM      8  C   UNL     1      -3.229  -0.934   0.650  0.00  0.00    +0.040 A 
ATOM      9  C   UNL     1      -3.931   0.062   1.311  0.00  0.00    +0.124 A 
ATOM     10  C   UNL     1      -3.294   1.229   1.693  0.00  0.00    +0.048 A 
ATOM     11  C   UNL     1      -1.945   1.401   1.412  0.00  0.00    -0.001 A 
ATOM     12  C   UNL     1      -1.216   2.627   1.815  0.00  0.00    +0.007 C 
ATOM     13  C   UNL     1      -0.110   2.951   1.123  0.00  0.00    -0.002 C 
ATOM     14  F   UNL     1      -5.243  -0.108   1.584  0.00  0.00    -0.205 F 
ENDROOT
BRANCH   2  15
ATOM     15  C   UNL     1       3.303   0.081  -0.599  0.00  0.00    -0.037 A 
ATOM     16  C   UNL     1       3.495  -0.410   0.684  0.00  0.00    +0.024 A 
ATOM     17  C   UNL     1       4.723  -0.946   1.022  0.00  0.00    +0.111 A 
ATOM     18  N   UNL     1       5.707  -0.984   0.146  0.00  0.00    -0.263 NA
ATOM     19  C   UNL     1       5.562  -0.521  -1.080  0.00  0.00    +0.111 A 
ATOM     20  C   UNL     1       4.361   0.025  -1.492  0.00  0.00    +0.024 A 
ENDBRANCH   2  15
BRANCH   3  21
ATOM     21  C   UNL     1       2.612   2.192   0.898  0.00  0.00    +0.233 C 
ATOM     22  O   UNL     1       2.095   2.112   1.992  0.00  0.00    -0.274 OA
ATOM     23  N   UNL     1       3.940   2.401   0.794  0.00  0.00    -0.328 N 
ATOM     24  H   UNL     1       4.343   2.537  -0.078  0.00  0.00    +0.145 HD
ATOM     25  H   UNL     1       4.493   2.413   1.591  0.00  0.00    +0.145 HD
ENDBRANCH   3  21
BRANCH   1  26
ATOM     26  C   UNL     1      -0.099  -0.602  -1.609  0.00  0.00    +0.184 C 
ATOM     27  O   UNL     1      -1.118   0.022  -1.814  0.00  0.00    -0.290 OA
BRANCH  26  33
ATOM     28  C   UNL     1       1.426  -2.464  -2.237  0.00  0.00    +0.013 A 
ATOM     29  C   UNL     1       1.743  -3.537  -3.042  0.00  0.00    +0.020 A 
ATOM     30  C   UNL     1       0.902  -3.899  -4.082  0.00  0.00    +0.041 A 
ATOM     31  C   UNL     1      -0.265  -3.189  -4.318  0.00  0.00    +0.020 A 
ATOM     32  C   UNL     1      -0.596  -2.117  -3.519  0.00  0.00    +0.013 A 
ATOM     33  C   UNL     1       0.248  -1.746  -2.466  0.00  0.00    +0.019 A 
ATOM     34 CL   UNL     1       1.312  -5.249  -5.094  0.00  0.00    -0.084 Cl
ENDBRANCH  26  33
ENDBRANCH   1  26
BRANCH   3  35
ATOM     35  C   UNL     1       2.065   3.144  -1.296  0.00  0.00    +0.082 C 
ATOM     36  N   UNL     1       2.292   3.981  -2.029  0.00  0.00    -0.195 NA
ENDBRANCH   3  35
TORSDOF 5
