REMARK  Name = ZINC02677912
REMARK  6 active torsions:
REMARK  status: ('A' for Active; 'I' for Inactive)
REMARK    1  A    between atoms: C_6  and  C_7
REMARK    2  A    between atoms: C_10  and  C_12
REMARK    3  A    between atoms: C_13  and  C_14
REMARK    4  A    between atoms: C_13  and  N_25
REMARK    5  A    between atoms: N_16  and  C_17
REMARK    6  A    between atoms: C_26  and  C_28
REMARK                            x       y       z     vdW  Elec       q    Type
REMARK                         _______ _______ _______ _____ _____    ______ ____
ROOT
ATOM      1  C   UNL     1      -3.873   5.810  -2.993  0.00  0.00    +0.074 C 
ATOM      2  C   UNL     1      -4.663   5.157  -2.097  0.00  0.00    +0.100 C 
ENDROOT
BRANCH   1   6
ATOM      3  C   UNL     1      -5.826   8.312  -4.620  0.00  0.00    +0.136 A 
ATOM      4  C   UNL     1      -4.665   8.442  -5.328  0.00  0.00    +0.050 A 
ATOM      5  C   UNL     1      -3.759   7.515  -4.806  0.00  0.00    +0.050 A 
ATOM      6  C   UNL     1      -4.416   6.842  -3.793  0.00  0.00    +0.131 A 
ATOM      7  O   UNL     1      -5.664   7.346  -3.699  0.00  0.00    -0.455 OA
BRANCH   3  13
ATOM      8  C   UNL     1      -7.132  10.009  -5.891  0.00  0.00    +0.013 A 
ATOM      9  C   UNL     1      -8.285  10.740  -6.086  0.00  0.00    +0.021 A 
ATOM     10  C   UNL     1      -9.360  10.586  -5.227  0.00  0.00    +0.041 A 
ATOM     11  C   UNL     1      -9.288   9.693  -4.170  0.00  0.00    +0.021 A 
ATOM     12  C   UNL     1      -8.143   8.951  -3.968  0.00  0.00    +0.013 A 
ATOM     13  C   UNL     1      -7.054   9.103  -4.831  0.00  0.00    +0.017 A 
ATOM     14 CL   UNL     1     -10.805  11.515  -5.475  0.00  0.00    -0.084 Cl
ENDBRANCH   3  13
ENDBRANCH   1   6
BRANCH   2  15
ATOM     15  C   UNL     1      -4.080   4.160  -1.197  0.00  0.00    +0.259 C 
ATOM     16  O   UNL     1      -4.765   3.646  -0.332  0.00  0.00    -0.269 OA
ATOM     17  N   UNL     1      -2.785   3.810  -1.327  0.00  0.00    -0.306 N 
ATOM     18  H   UNL     1      -2.239   4.220  -2.017  0.00  0.00    +0.149 HD
BRANCH  17  19
ATOM     19  C   UNL     1      -2.201   2.813  -0.427  0.00  0.00    +0.096 C 
ATOM     20  C   UNL     1      -1.744   3.501   0.870  0.00  0.00    +0.046 C 
ATOM     21  C   UNL     1      -0.857   2.499   1.665  0.00  0.00    +0.168 C 
ATOM     22  S   UNL     1       0.121   1.755   0.291  0.00  0.00    -0.029 S 
ATOM     23  O   UNL     1       0.172   0.346   0.470  0.00  0.00    -0.174 OA
ATOM     24  O   UNL     1       1.331   2.484   0.138  0.00  0.00    -0.174 OA
ATOM     25  C   UNL     1      -0.993   2.139  -1.121  0.00  0.00    +0.188 C 
ENDBRANCH  17  19
ENDBRANCH   2  15
BRANCH   2  26
ATOM     26  N   UNL     1      -6.032   5.439  -2.036  0.00  0.00    -0.277 N 
ATOM     27  C   UNL     1      -6.932   4.453  -2.223  0.00  0.00    +0.248 C 
ATOM     28  O   UNL     1      -6.557   3.337  -2.529  0.00  0.00    -0.270 OA
ATOM     29  H   UNL     1      -6.334   6.343  -1.859  0.00  0.00    +0.155 HD
BRANCH  27  30
ATOM     30  C   UNL     1      -8.374   4.727  -2.055  0.00  0.00    +0.037 A 
ATOM     31  C   UNL     1      -8.814   6.024  -1.785  0.00  0.00    +0.014 A 
ATOM     32  C   UNL     1     -10.162   6.275  -1.635  0.00  0.00    +0.021 A 
ATOM     33  C   UNL     1     -11.078   5.241  -1.741  0.00  0.00    +0.041 A 
ATOM     34  C   UNL     1     -10.647   3.951  -2.002  0.00  0.00    +0.021 A 
ATOM     35  C   UNL     1      -9.302   3.689  -2.160  0.00  0.00    +0.014 A 
ATOM     36 CL   UNL     1     -12.772   5.564  -1.544  0.00  0.00    -0.084 Cl
ENDBRANCH  27  30
ENDBRANCH   2  26
TORSDOF 6
