REMARK  Name = ZINC35955598
REMARK  9 active torsions:
REMARK  status: ('A' for Active; 'I' for Inactive)
REMARK    1  A    between atoms: C_1  and  C_2
REMARK    2  A    between atoms: C_2  and  C_3
REMARK    3  A    between atoms: C_3  and  C_5
REMARK    4  A    between atoms: C_3  and  C_11
REMARK    5  A    between atoms: C_17  and  C_20
REMARK    6  A    between atoms: N_22  and  C_23
REMARK    7  A    between atoms: C_29  and  N_31
REMARK    8  A    between atoms: C_32  and  C_34
REMARK    9  A    between atoms: C_39  and  C_40
REMARK                            x       y       z     vdW  Elec       q    Type
REMARK                         _______ _______ _______ _____ _____    ______ ____
ROOT
ATOM      1  C   UNL     1       5.814   4.047  -1.886  0.00  0.00    +0.218 C 
ATOM      2  O   UNL     1       6.543   3.487  -1.095  0.00  0.00    -0.275 OA
ATOM      3  N   UNL     1       6.323   4.944  -2.753  0.00  0.00    -0.310 N 
ATOM      4  H   UNL     1       5.740   5.392  -3.386  0.00  0.00    +0.149 HD
ENDROOT
BRANCH   1  11
ATOM      5  C   UNL     1       2.031   1.276  -0.866  0.00  0.00    +0.223 C 
ATOM      6  O   UNL     1       2.745   0.322  -1.096  0.00  0.00    -0.275 OA
ATOM      7  N   UNL     1       2.567   2.508  -0.760  0.00  0.00    -0.300 N 
ATOM      8  C   UNL     1       1.707   3.685  -0.580  0.00  0.00    +0.108 C 
ATOM      9  C   UNL     1       2.049   4.716  -1.661  0.00  0.00    +0.020 C 
ATOM     10  C   UNL     1       3.548   5.019  -1.615  0.00  0.00    +0.016 C 
ATOM     11  C   UNL     1       4.338   3.740  -1.899  0.00  0.00    +0.092 C 
ATOM     12  C   UNL     1       4.023   2.698  -0.815  0.00  0.00    +0.120 C 
BRANCH   5  13
ATOM     13  C   UNL     1       0.546   1.083  -0.701  0.00  0.00    +0.105 C 
BRANCH  13  14
ATOM     14  C   UNL     1      -0.127   1.186  -2.045  0.00  0.00    -0.036 A 
ATOM     15  C   UNL     1       0.209   0.304  -3.055  0.00  0.00    +0.004 A 
ATOM     16  C   UNL     1      -0.408   0.398  -4.289  0.00  0.00    +0.000 A 
ATOM     17  C   UNL     1      -1.362   1.374  -4.512  0.00  0.00    +0.000 A 
ATOM     18  C   UNL     1      -1.698   2.255  -3.501  0.00  0.00    +0.000 A 
ATOM     19  C   UNL     1      -1.084   2.159  -2.267  0.00  0.00    +0.004 A 
ENDBRANCH  13  14
BRANCH  13  21
ATOM     20  C   UNL     1       0.902  -0.378   1.294  0.00  0.00    +0.005 C 
ATOM     21  C   UNL     1       0.275  -0.297  -0.099  0.00  0.00    +0.014 C 
ENDBRANCH  13  21
ENDBRANCH   5  13
ENDBRANCH   1  11
BRANCH   3  22
ATOM     22  C   UNL     1       7.757   5.243  -2.741  0.00  0.00    +0.093 C 
ATOM     23  C   UNL     1       8.046   6.316  -1.689  0.00  0.00    +0.024 C 
ATOM     24  C   UNL     1       9.543   6.628  -1.676  0.00  0.00    +0.002 C 
ATOM     25  C   UNL     1       9.971   7.136  -3.054  0.00  0.00    +0.002 C 
ATOM     26  C   UNL     1       9.683   6.063  -4.106  0.00  0.00    +0.024 C 
ATOM     27  C   UNL     1       8.185   5.752  -4.119  0.00  0.00    +0.093 C 
BRANCH  27  28
ATOM     28  N   UNL     1       7.909   4.724  -5.126  0.00  0.00    -0.307 N 
ATOM     29  C   UNL     1       7.715   5.076  -6.412  0.00  0.00    +0.245 C 
ATOM     30  O   UNL     1       7.770   6.246  -6.737  0.00  0.00    -0.270 OA
ATOM     31  H   UNL     1       7.865   3.790  -4.867  0.00  0.00    +0.149 HD
BRANCH  29  32
ATOM     32  C   UNL     1       7.437   4.039  -7.429  0.00  0.00    +0.040 A 
ATOM     33  C   UNL     1       7.512   2.687  -7.090  0.00  0.00    +0.013 A 
ATOM     34  C   UNL     1       7.250   1.724  -8.042  0.00  0.00    +0.001 A 
ATOM     35  C   UNL     1       6.915   2.097  -9.332  0.00  0.00    +0.000 A 
ATOM     36  C   UNL     1       6.839   3.435  -9.675  0.00  0.00    +0.004 A 
ATOM     37  C   UNL     1       7.093   4.407  -8.730  0.00  0.00    -0.038 A 
ATOM     38  C   UNL     1       7.004   5.865  -9.104  0.00  0.00    +0.044 C 
ENDBRANCH  29  32
ENDBRANCH  27  28
ENDBRANCH   3  22
TORSDOF 7
