REMARK  Name = ZINC44939122
REMARK  11 active torsions:
REMARK  status: ('A' for Active; 'I' for Inactive)
REMARK    1  A    between atoms: C_1  and  C_2
REMARK    2  A    between atoms: N_8  and  S_35
REMARK    3  A    between atoms: C_10  and  C_13
REMARK    4  A    between atoms: N_15  and  C_16
REMARK    5  A    between atoms: C_20  and  N_22
REMARK    6  A    between atoms: C_23  and  C_25
REMARK    7  A    between atoms: C_28  and  C_31
REMARK    8  A    between atoms: C_31  and  C_32
REMARK    9  A    between atoms: C_31  and  C_33
REMARK   10  A    between atoms: C_31  and  C_34
REMARK   11  A    between atoms: S_35  and  C_38
REMARK                            x       y       z     vdW  Elec       q    Type
REMARK                         _______ _______ _______ _____ _____    ______ ____
ROOT
ATOM      1  C   UNL     1       0.371  -8.516   1.750  0.00  0.00    +0.035 A 
ATOM      2  C   UNL     1      -0.261  -8.953   0.593  0.00  0.00    +0.023 A 
ATOM      3  C   UNL     1      -0.488 -10.302   0.395  0.00  0.00    +0.004 A 
ATOM      4  C   UNL     1      -0.088 -11.220   1.347  0.00  0.00    +0.023 A 
ATOM      5  C   UNL     1       0.544 -10.789   2.507  0.00  0.00    +0.035 A 
ATOM      6  C   UNL     1       0.779  -9.435   2.706  0.00  0.00    +0.046 A 
ENDROOT
BRANCH   1   9
ATOM      7  C   UNL     1       1.722  -6.740   2.577  0.00  0.00    +0.260 C 
ATOM      8  O   UNL     1       2.489  -7.556   3.043  0.00  0.00    -0.271 OA
ATOM      9  N   UNL     1       0.602  -7.150   1.949  0.00  0.00    -0.282 N 
ATOM     10  H   UNL     1      -0.045  -6.499   1.636  0.00  0.00    +0.155 HD
BRANCH   7  20
ATOM     11  C   UNL     1       5.506   0.065   3.649  0.00  0.00    +0.044 C 
ATOM     12  C   UNL     1       4.885  -1.308   3.600  0.00  0.00    -0.048 A 
ATOM     13  C   UNL     1       5.168  -2.229   4.591  0.00  0.00    +0.007 A 
ATOM     14  C   UNL     1       4.603  -3.490   4.553  0.00  0.00    +0.048 A 
ATOM     15  C   UNL     1       3.747  -3.836   3.518  0.00  0.00    +0.144 A 
ATOM     16  C   UNL     1       3.462  -2.906   2.523  0.00  0.00    +0.093 A 
ATOM     17  C   UNL     1       4.028  -1.642   2.568  0.00  0.00    +0.031 A 
ATOM     18  N   UNL     1       2.590  -3.249   1.477  0.00  0.00    -0.200 N 
ATOM     19  C   UNL     1       2.257  -4.674   1.303  0.00  0.00    +0.185 C 
ATOM     20  C   UNL     1       2.021  -5.268   2.699  0.00  0.00    +0.278 C 
ATOM     21  O   UNL     1       3.199  -5.080   3.486  0.00  0.00    -0.476 OA
BRANCH  18  22
ATOM     22  S   UNL     1       1.958  -2.093   0.474  0.00  0.00    +0.043 S 
ATOM     23  O   UNL     1       0.738  -2.650   0.004  0.00  0.00    -0.155 OA
ATOM     24  O   UNL     1       1.959  -0.902   1.248  0.00  0.00    -0.155 OA
ATOM     25  C   UNL     1       3.148  -1.955  -0.887  0.00  0.00    +0.218 C 
ENDBRANCH  18  22
ENDBRANCH   7  20
ENDBRANCH   1   9
BRANCH   5  26
ATOM     26  N   UNL     1       0.948 -11.718   3.471  0.00  0.00    -0.281 N 
ATOM     27  C   UNL     1       1.396 -12.931   3.091  0.00  0.00    +0.248 C 
ATOM     28  O   UNL     1       1.371 -13.248   1.917  0.00  0.00    -0.270 OA
ATOM     29  H   UNL     1       0.905 -11.490   4.412  0.00  0.00    +0.155 HD
BRANCH  27  30
ATOM     30  C   UNL     1       1.919 -13.876   4.100  0.00  0.00    +0.037 A 
ATOM     31  C   UNL     1       1.945 -13.517   5.449  0.00  0.00    +0.013 A 
ATOM     32  C   UNL     1       2.434 -14.403   6.386  0.00  0.00    +0.005 A 
ATOM     33  C   UNL     1       2.899 -15.645   5.992  0.00  0.00    -0.042 A 
ATOM     34  C   UNL     1       2.877 -16.007   4.657  0.00  0.00    +0.005 A 
ATOM     35  C   UNL     1       2.384 -15.133   3.710  0.00  0.00    +0.013 A 
BRANCH  33  36
ATOM     36  C   UNL     1       3.432 -16.608   7.022  0.00  0.00    -0.013 C 
ATOM     37  C   UNL     1       2.334 -16.927   8.038  0.00  0.00    +0.015 C 
ATOM     38  C   UNL     1       3.878 -17.898   6.330  0.00  0.00    +0.015 C 
ATOM     39  C   UNL     1       4.625 -15.976   7.741  0.00  0.00    +0.015 C 
ENDBRANCH  33  36
ENDBRANCH  27  30
ENDBRANCH   5  26
TORSDOF 6
