REMARK  Name = ZINC09112983
REMARK  8 active torsions:
REMARK  status: ('A' for Active; 'I' for Inactive)
REMARK    1  A    between atoms: C_4  and  C_7
REMARK    2  A    between atoms: C_7  and  O_8
REMARK    3  A    between atoms: O_8  and  C_9
REMARK    4  A    between atoms: C_18  and  C_30
REMARK    5  A    between atoms: C_20  and  C_26
REMARK    6  A    between atoms: C_20  and  C_28
REMARK    7  A    between atoms: C_21  and  N_25
REMARK    8  A    between atoms: C_22  and  C_23
REMARK                            x       y       z     vdW  Elec       q    Type
REMARK                         _______ _______ _______ _____ _____    ______ ____
ROOT
ATOM      1  C   UNL     1       1.322  -0.359   3.716  0.00  0.00    +0.403 C 
ATOM      2  O   UNL     1       0.117  -0.338   3.559  0.00  0.00    -0.226 OA
ATOM      3  N   UNL     1       2.049  -1.377   3.216  0.00  0.00    -0.263 N 
ATOM      4  C   UNL     1       3.512  -1.434   3.388  0.00  0.00    +0.138 C 
ATOM      5  C   UNL     1       4.116  -1.537   2.010  0.00  0.00    -0.003 C 
ATOM      6  C   UNL     1       3.453  -2.091   1.015  0.00  0.00    -0.026 C 
ATOM      7  C   UNL     1       2.085  -2.694   1.140  0.00  0.00    +0.048 C 
ATOM      8  C   UNL     1       1.418  -2.477   2.478  0.00  0.00    +0.120 C 
ATOM      9  C   UNL     1       1.228  -2.186  -0.020  0.00  0.00    +0.068 C 
ATOM     10  C   UNL     1       1.831  -2.684  -1.335  0.00  0.00    +0.188 C 
ATOM     11  C   UNL     1       3.299  -2.391  -1.417  0.00  0.00    +0.054 C 
ATOM     12  C   UNL     1       4.075  -2.125  -0.337  0.00  0.00    +0.074 C 
ENDROOT
BRANCH   9  13
ATOM     13  C   UNL     1       1.208  -0.680  -0.013  0.00  0.00    -0.039 A 
ATOM     14  C   UNL     1       0.161  -0.005   0.588  0.00  0.00    +0.004 A 
ATOM     15  C   UNL     1       0.143   1.377   0.596  0.00  0.00    +0.002 A 
ATOM     16  C   UNL     1       1.171   2.086   0.003  0.00  0.00    +0.020 A 
ATOM     17  C   UNL     1       2.219   1.411  -0.599  0.00  0.00    +0.041 A 
ATOM     18  C   UNL     1       2.237   0.028  -0.606  0.00  0.00    +0.024 A 
ATOM     19 CL   UNL     1       3.510   2.301  -1.343  0.00  0.00    -0.084 Cl
ENDBRANCH   9  13
BRANCH  11  20
ATOM     20  N   UNL     1       3.888  -2.393  -2.650  0.00  0.00    -0.358 N 
ATOM     21  H   UNL     1       4.964  -2.181  -2.746  0.00  0.00    +0.142 HD
ATOM     22  H   UNL     1       3.288  -2.604  -3.547  0.00  0.00    +0.142 HD
ENDBRANCH  11  20
BRANCH  12  23
ATOM     23  C   UNL     1       5.476  -1.878  -0.495  0.00  0.00    +0.101 C 
ATOM     24  N   UNL     1       6.588  -1.682  -0.621  0.00  0.00    -0.191 NA
ENDBRANCH  12  23
BRANCH  10  25
ATOM     25  C   UNL     1       1.625  -4.138  -1.437  0.00  0.00    +0.091 C 
ATOM     26  N   UNL     1       1.467  -5.260  -1.516  0.00  0.00    -0.194 NA
ENDBRANCH  10  25
BRANCH  10  27
ATOM     27  C   UNL     1       1.146  -2.024  -2.458  0.00  0.00    +0.091 C 
ATOM     28  N   UNL     1       0.617  -1.515  -3.325  0.00  0.00    -0.194 NA
ENDBRANCH  10  27
BRANCH   1  29
ATOM     29  O   UNL     1       1.931   0.636   4.389  0.00  0.00    -0.445 OA
BRANCH  29  30
ATOM     30  C   UNL     1       1.085   1.700   4.900  0.00  0.00    +0.269 C 
BRANCH  30  34
ATOM     31  C   UNL     1       3.493   4.578   6.940  0.00  0.00    +0.000 A 
ATOM     32  C   UNL     1       3.248   4.717   5.587  0.00  0.00    +0.000 A 
ATOM     33  C   UNL     1       2.469   3.786   4.926  0.00  0.00    +0.007 A 
ATOM     34  C   UNL     1       1.935   2.715   5.619  0.00  0.00    -0.010 A 
ATOM     35  C   UNL     1       2.176   2.579   6.974  0.00  0.00    +0.007 A 
ATOM     36  C   UNL     1       2.960   3.508   7.633  0.00  0.00    +0.000 A 
ENDBRANCH  30  34
ENDBRANCH  29  30
ENDBRANCH   1  29
TORSDOF 8
