REMARK  Name = ZINC33048506
REMARK  4 active torsions:
REMARK  status: ('A' for Active; 'I' for Inactive)
REMARK    1  A    between atoms: C_6  and  N_7
REMARK    2  A    between atoms: N_7  and  S_8
REMARK    3  A    between atoms: S_8  and  C_11
REMARK    4  A    between atoms: C_15  and  C_17
REMARK                            x       y       z     vdW  Elec       q    Type
REMARK                         _______ _______ _______ _____ _____    ______ ____
ROOT
ATOM      1  N   UNL     1       4.303   2.477  -1.548  0.00  0.00    -0.216 N 
ATOM      2  H   UNL     1       4.399   1.386  -1.653  0.00  0.00    +0.174 HD
ENDROOT
BRANCH   1   8
ATOM      3  C   UNL     1       2.126   3.127  -2.361  0.00  0.00    +0.028 A 
ATOM      4  C   UNL     1       1.338   3.844  -3.244  0.00  0.00    +0.051 A 
ATOM      5  C   UNL     1       1.933   4.624  -4.220  0.00  0.00    +0.162 A 
ATOM      6  C   UNL     1       3.317   4.693  -4.311  0.00  0.00    +0.164 A 
ATOM      7  C   UNL     1       4.108   3.982  -3.426  0.00  0.00    +0.074 A 
ATOM      8  C   UNL     1       3.510   3.199  -2.446  0.00  0.00    +0.052 A 
ATOM      9  O   UNL     1       3.891   5.467  -5.277  0.00  0.00    -0.488 OA
ATOM     10  C   UNL     1       3.721   5.016  -6.622  0.00  0.00    +0.232 C 
ATOM     11  C   UNL     1       2.392   5.493  -7.188  0.00  0.00    +0.082 C 
ATOM     12  C   UNL     1       1.202   4.890  -6.458  0.00  0.00    +0.232 C 
ATOM     13  O   UNL     1       1.164   5.331  -5.100  0.00  0.00    -0.488 OA
ENDBRANCH   1   8
BRANCH   1  14
ATOM     14  S   UNL     1       5.098   3.264  -0.327  0.00  0.00    +0.072 S 
ATOM     15  O   UNL     1       5.797   4.345  -0.929  0.00  0.00    -0.150 OA
ATOM     16  O   UNL     1       5.756   2.265   0.440  0.00  0.00    -0.150 OA
BRANCH  14  17
ATOM     17  C   UNL     1       3.872   3.977   0.718  0.00  0.00    +0.109 A 
ATOM     18  C   UNL     1       3.492   5.295   0.537  0.00  0.00    +0.030 A 
ATOM     19  C   UNL     1       2.530   5.863   1.352  0.00  0.00    +0.018 A 
ATOM     20  C   UNL     1       1.943   5.117   2.355  0.00  0.00    +0.032 A 
ATOM     21  C   UNL     1       2.323   3.786   2.544  0.00  0.00    +0.079 A 
ATOM     22  C   UNL     1       3.295   3.220   1.716  0.00  0.00    +0.045 A 
ATOM     23 BR   UNL     1       0.628   5.895   3.470  0.00  0.00    -0.049 Br
BRANCH  21  24
ATOM     24  C   UNL     1       1.700   2.981   3.614  0.00  0.00    +0.388 C 
ATOM     25  O   UNL     1       0.856   3.476   4.333  0.00  0.00    -0.241 OA
ATOM     26  O   UNL     1       2.069   1.698   3.793  0.00  0.00    -0.241 OA
ENDBRANCH  21  24
ENDBRANCH  14  17
ENDBRANCH   1  14
TORSDOF 4
