REMARK  Name = ZINC65638345
REMARK  11 active torsions:
REMARK  status: ('A' for Active; 'I' for Inactive)
REMARK    1  A    between atoms: C_1  and  C_2
REMARK    2  A    between atoms: C_2  and  C_3
REMARK    3  A    between atoms: C_3  and  C_4
REMARK    4  A    between atoms: N_6  and  C_7
REMARK    5  A    between atoms: C_11  and  N_13
REMARK    6  A    between atoms: C_14  and  C_16
REMARK    7  A    between atoms: N_18  and  C_19
REMARK    8  A    between atoms: C_19  and  C_20
REMARK    9  A    between atoms: N_23  and  C_25
REMARK   10  A    between atoms: C_25  and  C_26
REMARK   11  A    between atoms: C_25  and  C_27
REMARK                            x       y       z     vdW  Elec       q    Type
REMARK                         _______ _______ _______ _____ _____    ______ ____
ROOT
ATOM      1  N   UNL     1       2.587  -7.011   4.083  0.00  0.00    -0.278 N 
ATOM      2  C   UNL     1       2.736  -8.345   3.955  0.00  0.00    +0.303 C 
ATOM      3  O   UNL     1       2.288  -8.915   2.981  0.00  0.00    -0.265 OA
ATOM      4  H   UNL     1       2.885  -6.565   4.891  0.00  0.00    +0.155 HD
ENDROOT
BRANCH   1   9
ATOM      5  C   UNL     1       1.865  -4.252   1.758  0.00  0.00    +0.035 A 
ATOM      6  C   UNL     1       0.840  -4.810   1.004  0.00  0.00    +0.023 A 
ATOM      7  C   UNL     1       0.400  -6.091   1.274  0.00  0.00    +0.004 A 
ATOM      8  C   UNL     1       0.978  -6.823   2.293  0.00  0.00    +0.023 A 
ATOM      9  C   UNL     1       2.004  -6.271   3.051  0.00  0.00    +0.036 A 
ATOM     10  C   UNL     1       2.452  -4.986   2.778  0.00  0.00    +0.046 A 
BRANCH   5  13
ATOM     11  C   UNL     1       3.615  -2.645   1.621  0.00  0.00    +0.217 C 
ATOM     12  O   UNL     1       4.389  -3.468   2.062  0.00  0.00    -0.275 OA
ATOM     13  N   UNL     1       2.310  -2.954   1.484  0.00  0.00    -0.285 N 
ATOM     14  H   UNL     1       1.679  -2.276   1.195  0.00  0.00    +0.155 HD
BRANCH  11  15
ATOM     15  C   UNL     1       4.111  -1.278   1.227  0.00  0.00    +0.096 C 
BRANCH  15  17
ATOM     16  C   UNL     1       6.121   0.199   1.081  0.00  0.00    +0.004 C 
ATOM     17  C   UNL     1       5.617  -1.190   1.481  0.00  0.00    +0.006 C 
ENDBRANCH  15  17
ENDBRANCH  11  15
ENDBRANCH   5  13
ENDBRANCH   1   9
BRANCH   2  18
ATOM     18  C   UNL     1       3.451  -9.121   5.011  0.00  0.00    +0.299 C 
ATOM     19  O   UNL     1       3.899  -8.551   5.985  0.00  0.00    -0.265 OA
ATOM     20  N   UNL     1       3.600 -10.454   4.883  0.00  0.00    -0.307 N 
ATOM     21  H   UNL     1       3.242 -10.910   4.105  0.00  0.00    +0.149 HD
BRANCH  20  22
ATOM     22  C   UNL     1       4.302 -11.216   5.920  0.00  0.00    +0.106 C 
BRANCH  22  23
ATOM     23  C   UNL     1       4.331 -12.696   5.533  0.00  0.00    -0.012 C 
ATOM     24  C   UNL     1       5.299 -12.934   4.345  0.00  0.00    -0.015 C 
ATOM     25  C   UNL     1       5.699 -14.415   4.558  0.00  0.00    -0.078 C 
ATOM     26  N   UNL     1       5.794 -14.572   6.025  0.00  0.00    +0.381 N 
ATOM     27  C   UNL     1       4.954 -13.543   6.663  0.00  0.00    -0.074 C 
ATOM     28  H   UNL     1       6.753 -14.457   6.318  0.00  0.00    -0.081 HD
BRANCH  26  29
ATOM     29  C   UNL     1       5.318 -15.908   6.411  0.00  0.00    -0.075 C 
ATOM     30  C   UNL     1       6.202 -16.972   5.757  0.00  0.00    -0.014 C 
ATOM     31  C   UNL     1       5.385 -16.053   7.932  0.00  0.00    -0.014 C 
ENDBRANCH  26  29
ENDBRANCH  22  23
ENDBRANCH  20  22
ENDBRANCH   2  18
TORSDOF 8
