REMARK  Name = ZINC38885673
REMARK  12 active torsions:
REMARK  status: ('A' for Active; 'I' for Inactive)
REMARK    1  A    between atoms: C_1  and  C_2
REMARK    2  A    between atoms: C_2  and  C_3
REMARK    3  A    between atoms: C_2  and  N_4
REMARK    4  A    between atoms: N_4  and  S_5
REMARK    5  A    between atoms: S_5  and  C_8
REMARK    6  A    between atoms: C_11  and  O_36
REMARK    7  A    between atoms: C_12  and  N_14
REMARK    8  A    between atoms: C_15  and  C_17
REMARK    9  A    between atoms: N_22  and  C_24
REMARK   10  A    between atoms: C_24  and  C_25
REMARK   11  A    between atoms: C_27  and  C_30
REMARK   12  A    between atoms: O_36  and  C_37
REMARK                            x       y       z     vdW  Elec       q    Type
REMARK                         _______ _______ _______ _____ _____    ______ ____
ROOT
ATOM      1  N   UNL     1      -1.313  -5.950  -2.006  0.00  0.00    -0.282 N 
ATOM      2  C   UNL     1      -2.285  -6.167  -1.098  0.00  0.00    +0.219 C 
ATOM      3  O   UNL     1      -2.891  -5.230  -0.623  0.00  0.00    -0.275 OA
ATOM      4  H   UNL     1      -0.884  -6.700  -2.446  0.00  0.00    +0.155 HD
ENDROOT
BRANCH   2   5
ATOM      5  C   UNL     1      -2.619  -7.574  -0.673  0.00  0.00    +0.059 C 
ATOM      6  C   UNL     1      -3.068  -8.383  -1.893  0.00  0.00    +0.009 C 
ATOM      7  C   UNL     1      -3.479  -9.787  -1.439  0.00  0.00    -0.018 C 
ATOM      8  C   UNL     1      -4.579  -9.673  -0.382  0.00  0.00    -0.078 C 
ATOM      9  N   UNL     1      -4.080  -8.912   0.769  0.00  0.00    +0.386 N 
ATOM     10  C   UNL     1      -3.750  -7.542   0.356  0.00  0.00    -0.065 C 
ATOM     11  H   UNL     1      -3.252  -9.360   1.134  0.00  0.00    -0.081 HD
BRANCH   9  12
ATOM     12  C   UNL     1      -5.112  -8.872   1.813  0.00  0.00    +0.022 C 
BRANCH  12  13
ATOM     13  C   UNL     1      -5.356 -10.266   2.332  0.00  0.00    +0.211 A 
ATOM     14  N   UNL     1      -4.735 -10.825   3.331  0.00  0.00    -0.193 NA
ATOM     15  C   UNL     1      -5.202 -12.072   3.522  0.00  0.00    +0.202 A 
ATOM     16  N   UNL     1      -6.134 -12.312   2.633  0.00  0.00    -0.056 NA
ATOM     17  O   UNL     1      -6.252 -11.135   1.847  0.00  0.00    -0.340 OA
BRANCH  15  18
ATOM     18  C   UNL     1      -4.738 -13.019   4.567  0.00  0.00    +0.022 A 
ATOM     19  C   UNL     1      -3.738 -12.640   5.460  0.00  0.00    +0.012 A 
ATOM     20  C   UNL     1      -3.310 -13.525   6.429  0.00  0.00    +0.001 A 
ATOM     21  C   UNL     1      -3.872 -14.786   6.514  0.00  0.00    +0.000 A 
ATOM     22  C   UNL     1      -4.865 -15.168   5.630  0.00  0.00    +0.001 A 
ATOM     23  C   UNL     1      -5.304 -14.289   4.661  0.00  0.00    +0.012 A 
ENDBRANCH  15  18
ENDBRANCH  12  13
ENDBRANCH   9  12
ENDBRANCH   2   5
BRANCH   1  28
ATOM     24  C   UNL     1      -0.737  -2.329  -1.703  0.00  0.00    +0.107 A 
ATOM     25  C   UNL     1      -0.153  -2.050  -2.925  0.00  0.00    +0.032 A 
ATOM     26  C   UNL     1       0.048  -3.061  -3.847  0.00  0.00    +0.049 A 
ATOM     27  C   UNL     1      -0.336  -4.358  -3.546  0.00  0.00    +0.141 A 
ATOM     28  C   UNL     1      -0.923  -4.640  -2.315  0.00  0.00    +0.077 A 
ATOM     29  C   UNL     1      -1.117  -3.621  -1.394  0.00  0.00    +0.055 A 
BRANCH  24  30
ATOM     30  S   UNL     1      -0.990  -1.034  -0.535  0.00  0.00    +0.059 S 
ATOM     31  O   UNL     1      -2.045  -1.458   0.318  0.00  0.00    -0.153 OA
ATOM     32  O   UNL     1      -1.049   0.176  -1.276  0.00  0.00    -0.153 OA
BRANCH  30  33
ATOM     33  N   UNL     1       0.372  -0.949   0.404  0.00  0.00    -0.187 NA
ATOM     34  H   UNL     1       0.323  -1.156   1.350  0.00  0.00    +0.148 HD
BRANCH  33  36
ATOM     35  C   UNL     1       1.868   0.942  -0.005  0.00  0.00    +0.025 C 
ATOM     36  C   UNL     1       1.651  -0.560  -0.195  0.00  0.00    +0.070 C 
ATOM     37  C   UNL     1       2.787  -1.329   0.483  0.00  0.00    +0.025 C 
ENDBRANCH  33  36
ENDBRANCH  30  33
ENDBRANCH  24  30
BRANCH  27  38
ATOM     38  O   UNL     1      -0.140  -5.354  -4.452  0.00  0.00    -0.493 OA
ATOM     39  C   UNL     1       0.467  -4.991  -5.694  0.00  0.00    +0.277 C 
ENDBRANCH  27  38
ENDBRANCH   1  28
TORSDOF 9
