REMARK  Name = ZINC39275888
REMARK  4 active torsions:
REMARK  status: ('A' for Active; 'I' for Inactive)
REMARK    1  A    between atoms: C_6  and  N_7
REMARK    2  A    between atoms: C_11  and  C_12
REMARK    3  A    between atoms: C_15  and  S_17
REMARK    4  A    between atoms: S_17  and  C_18
REMARK                            x       y       z     vdW  Elec       q    Type
REMARK                         _______ _______ _______ _____ _____    ______ ____
ROOT
ATOM      1  N   UNL     1      -1.049  -1.031  -1.634  0.00  0.00    -0.188 N 
ATOM      2  C   UNL     1      -1.152  -2.101  -0.820  0.00  0.00    +0.264 C 
ATOM      3  O   UNL     1      -0.322  -2.306   0.048  0.00  0.00    -0.269 OA
ATOM      4  C   UNL     1      -2.253  -2.985  -0.997  0.00  0.00    +0.105 C 
ATOM      5  C   UNL     1      -2.417  -4.112  -0.185  0.00  0.00    +0.064 C 
ATOM      6  C   UNL     1      -3.214  -2.669  -2.067  0.00  0.00    +0.277 C 
ATOM      7  N   UNL     1      -3.004  -1.572  -2.815  0.00  0.00    -0.123 NA
ATOM      8  C   UNL     1      -1.973  -0.789  -2.603  0.00  0.00    +0.340 C 
ATOM      9  O   UNL     1      -1.820   0.300  -3.382  0.00  0.00    -0.250 OA
ATOM     10  O   UNL     1      -4.179  -3.387  -2.271  0.00  0.00    -0.268 OA
ENDROOT
BRANCH   1  16
ATOM     11  C   UNL     1      -0.208   1.199  -1.230  0.00  0.00    +0.025 A 
ATOM     12  C   UNL     1       0.855   2.067  -1.073  0.00  0.00    +0.022 A 
ATOM     13  C   UNL     1       2.153   1.597  -1.162  0.00  0.00    +0.041 A 
ATOM     14  C   UNL     1       2.390   0.256  -1.408  0.00  0.00    +0.022 A 
ATOM     15  C   UNL     1       1.331  -0.617  -1.564  0.00  0.00    +0.025 A 
ATOM     16  C   UNL     1       0.028  -0.147  -1.476  0.00  0.00    +0.046 A 
ATOM     17 CL   UNL     1       3.487   2.691  -0.966  0.00  0.00    -0.084 Cl
ENDBRANCH   1  16
BRANCH   5  18
ATOM     18  C   UNL     1      -3.594  -4.854  -0.252  0.00  0.00    +0.130 A 
ATOM     19  C   UNL     1      -3.690  -6.244  -0.220  0.00  0.00    +0.050 A 
ATOM     20  C   UNL     1      -5.039  -6.556  -0.311  0.00  0.00    +0.057 A 
ATOM     21  C   UNL     1      -5.729  -5.360  -0.396  0.00  0.00    +0.165 A 
ATOM     22  O   UNL     1      -4.846  -4.350  -0.353  0.00  0.00    -0.449 OA
BRANCH  21  23
ATOM     23  S   UNL     1      -7.478  -5.191  -0.530  0.00  0.00    -0.046 S 
BRANCH  23  24
ATOM     24  C   UNL     1      -8.060  -5.272   1.186  0.00  0.00    +0.240 C 
ATOM     25  N   UNL     1      -7.497  -4.141   1.974  0.00  0.00    -0.275 NA
ATOM     26  C   UNL     1      -6.253  -4.737   2.483  0.00  0.00    +0.128 C 
ATOM     27  C   UNL     1      -5.780  -4.027   3.722  0.00  0.00    -0.002 C 
ATOM     28  C   UNL     1      -5.274  -4.791   4.701  0.00  0.00    -0.002 C 
ATOM     29  C   UNL     1      -5.189  -6.241   4.569  0.00  0.00    +0.002 C 
ATOM     30  C   UNL     1      -5.809  -6.931   3.586  0.00  0.00    +0.025 C 
ATOM     31  C   UNL     1      -6.559  -6.220   2.601  0.00  0.00    +0.060 C 
ATOM     32  N   UNL     1      -7.563  -6.496   1.834  0.00  0.00    -0.256 NA
ATOM     33  H   UNL     1      -7.302  -3.349   1.381  0.00  0.00    +0.126 HD
ENDBRANCH  23  24
ENDBRANCH  21  23
ENDBRANCH   5  18
TORSDOF 4
