REMARK  Name = ZINC35058013
REMARK  8 active torsions:
REMARK  status: ('A' for Active; 'I' for Inactive)
REMARK    1  A    between atoms: C_1  and  C_2
REMARK    2  A    between atoms: N_4  and  C_5
REMARK    3  A    between atoms: C_7  and  O_35
REMARK    4  A    between atoms: C_15  and  C_18
REMARK    5  A    between atoms: C_24  and  O_26
REMARK    6  A    between atoms: O_26  and  C_27
REMARK    7  A    between atoms: O_35  and  C_36
REMARK    8  A    between atoms: C_36  and  C_37
REMARK                            x       y       z     vdW  Elec       q    Type
REMARK                         _______ _______ _______ _____ _____    ______ ____
ROOT
ATOM      1  C   UNL     1       0.020  -2.136  -1.177  0.00  0.00    +0.173 C 
ATOM      2  C   UNL     1       0.620  -2.634  -2.495  0.00  0.00    +0.176 C 
ATOM      3  C   UNL     1       0.565  -4.162  -2.531  0.00  0.00    +0.183 C 
ATOM      4  C   UNL     1      -0.881  -4.629  -2.330  0.00  0.00    +0.179 C 
ATOM      5  C   UNL     1      -0.892  -6.161  -2.249  0.00  0.00    +0.197 C 
ATOM      6  O   UNL     1       0.012  -6.575  -1.220  0.00  0.00    -0.342 OA
ATOM      7  C   UNL     1       1.355  -6.127  -1.415  0.00  0.00    +0.319 C 
ATOM      8  O   UNL     1       1.378  -4.699  -1.485  0.00  0.00    -0.336 OA
ATOM      9  O   UNL     1      -1.396  -4.080  -1.115  0.00  0.00    -0.332 OA
ATOM     10  C   UNL     1      -1.410  -2.669  -1.045  0.00  0.00    +0.331 C 
ENDROOT
BRANCH   1  14
ATOM     11  C   UNL     1      -0.018   1.503   0.010  0.00  0.00    +0.109 C 
ATOM     12  C   UNL     1       0.002  -0.004   0.002  0.00  0.00    +0.210 C 
ATOM     13  O   UNL     1       0.020  -0.616   1.049  0.00  0.00    -0.276 OA
ATOM     14  N   UNL     1       0.000  -0.672  -1.169  0.00  0.00    -0.304 N 
ATOM     15  H   UNL     1      -0.015  -0.182  -2.006  0.00  0.00    +0.149 HD
ENDBRANCH   1  14
BRANCH   7  16
ATOM     16  C   UNL     1       2.210  -6.587  -0.263  0.00  0.00    +0.161 A 
ATOM     17  C   UNL     1       2.425  -7.865   0.097  0.00  0.00    +0.050 A 
ATOM     18  C   UNL     1       3.281  -7.836   1.222  0.00  0.00    +0.041 A 
ATOM     19  C   UNL     1       3.538  -6.542   1.482  0.00  0.00    +0.195 A 
ATOM     20  O   UNL     1       2.892  -5.790   0.576  0.00  0.00    -0.463 OA
ENDBRANCH   7  16
BRANCH  10  21
ATOM     21  O   UNL     1      -2.209  -2.160  -2.115  0.00  0.00    -0.460 OA
BRANCH  21  22
ATOM     22  C   UNL     1      -3.550  -2.364  -2.034  0.00  0.00    +0.142 A 
ATOM     23  C   UNL     1      -4.087  -3.035  -0.945  0.00  0.00    +0.049 A 
ATOM     24  C   UNL     1      -5.450  -3.242  -0.865  0.00  0.00    +0.023 A 
ATOM     25  C   UNL     1      -6.282  -2.780  -1.870  0.00  0.00    +0.043 A 
ATOM     26  C   UNL     1      -5.750  -2.110  -2.957  0.00  0.00    +0.043 A 
ATOM     27  C   UNL     1      -4.386  -1.896  -3.039  0.00  0.00    +0.084 A 
ATOM     28 CL   UNL     1      -3.719  -1.050  -4.400  0.00  0.00    -0.080 Cl
ATOM     29 CL   UNL     1      -7.995  -3.042  -1.766  0.00  0.00    -0.083 Cl
ENDBRANCH  21  22
ENDBRANCH  10  21
BRANCH   2  30
ATOM     30  O   UNL     1       1.978  -2.202  -2.594  0.00  0.00    -0.361 OA
BRANCH  30  31
ATOM     31  C   UNL     1       2.140  -0.930  -3.226  0.00  0.00    +0.285 C 
BRANCH  31  32
ATOM     32  C   UNL     1       3.604  -0.577  -3.276  0.00  0.00    +0.381 C 
ATOM     33  O   UNL     1       4.433  -1.343  -2.813  0.00  0.00    -0.244 OA
ATOM     34  O   UNL     1       3.960   0.475  -3.778  0.00  0.00    -0.244 OA
ENDBRANCH  31  32
ENDBRANCH  30  31
ENDBRANCH   2  30
TORSDOF 7
