REMARK  Name = ZINC35646853
REMARK  14 active torsions:
REMARK  status: ('A' for Active; 'I' for Inactive)
REMARK    1  A    between atoms: C_1  and  C_2
REMARK    2  A    between atoms: C_2  and  N_3
REMARK    3  A    between atoms: C_4  and  C_24
REMARK    4  A    between atoms: C_5  and  C_19
REMARK    5  A    between atoms: C_6  and  C_11
REMARK    6  A    between atoms: C_14  and  C_18
REMARK    7  A    between atoms: C_16  and  C_17
REMARK    8  A    between atoms: C_19  and  O_21
REMARK    9  A    between atoms: O_21  and  C_22
REMARK   10  A    between atoms: C_22  and  C_23
REMARK   11  A    between atoms: C_24  and  N_25
REMARK   12  A    between atoms: N_34  and  C_35
REMARK   13  A    between atoms: C_35  and  C_36
REMARK   14  A    between atoms: C_35  and  C_37
REMARK                            x       y       z     vdW  Elec       q    Type
REMARK                         _______ _______ _______ _____ _____    ______ ____
ROOT
ATOM      1  N   UNL     1       0.487  -0.211   1.130  0.00  0.00    -0.261 N 
ATOM      2  C   UNL     1       1.803  -0.524   0.941  0.00  0.00    +0.010 C 
ATOM      3  C   UNL     1       2.504  -1.187   1.886  0.00  0.00    +0.076 C 
ATOM      4  C   UNL     1       1.781  -1.570   3.161  0.00  0.00    +0.144 C 
ATOM      5  N   UNL     1       0.364  -1.185   3.266  0.00  0.00    -0.288 N 
ATOM      6  C   UNL     1      -0.198  -0.520   2.237  0.00  0.00    +0.307 C 
ATOM      7  O   UNL     1      -1.367  -0.195   2.316  0.00  0.00    -0.252 OA
ATOM      8  H   UNL     1      -0.152  -1.402   4.058  0.00  0.00    +0.151 HD
ENDROOT
BRANCH   4   9
ATOM      9  C   UNL     1       1.868  -3.067   3.313  0.00  0.00    -0.020 A 
ATOM     10  C   UNL     1       2.191  -3.854   2.224  0.00  0.00    +0.006 A 
ATOM     11  C   UNL     1       2.271  -5.227   2.363  0.00  0.00    +0.004 A 
ATOM     12  C   UNL     1       2.028  -5.812   3.591  0.00  0.00    -0.050 A 
ATOM     13  C   UNL     1       1.706  -5.025   4.681  0.00  0.00    +0.007 A 
ATOM     14  C   UNL     1       1.631  -3.652   4.542  0.00  0.00    -0.045 A 
ATOM     15  C   UNL     1       1.284  -2.793   5.731  0.00  0.00    +0.044 C 
ATOM     16  C   UNL     1       2.114  -7.309   3.743  0.00  0.00    +0.044 C 
ENDBRANCH   4   9
BRANCH   1  18
ATOM     17  C   UNL     1      -0.124   2.015   0.321  0.00  0.00    +0.025 C 
ATOM     18  C   UNL     1      -0.212   0.509   0.062  0.00  0.00    +0.111 C 
ENDBRANCH   1  18
BRANCH   3  19
ATOM     19  C   UNL     1       3.867  -1.513   1.691  0.00  0.00    +0.339 C 
ATOM     20  O   UNL     1       4.435  -1.167   0.672  0.00  0.00    -0.245 OA
BRANCH  19  21
ATOM     21  O   UNL     1       4.536  -2.206   2.635  0.00  0.00    -0.462 OA
BRANCH  21  22
ATOM     22  C   UNL     1       5.936  -2.404   2.426  0.00  0.00    +0.229 C 
ATOM     23  C   UNL     1       6.494  -3.306   3.527  0.00  0.00    +0.048 C 
ENDBRANCH  21  22
ENDBRANCH  19  21
ENDBRANCH   3  19
BRANCH   2  24
ATOM     24  C   UNL     1       2.483  -0.124  -0.343  0.00  0.00    -0.026 C 
BRANCH  24  25
ATOM     25  N   UNL     1       2.546  -1.282  -1.245  0.00  0.00    +0.384 N 
ATOM     26  C   UNL     1       3.442  -0.956  -2.352  0.00  0.00    -0.077 C 
ATOM     27  C   UNL     1       4.091  -2.225  -2.860  0.00  0.00    +0.000 C 
ATOM     28  C   UNL     1       3.264  -2.790  -4.029  0.00  0.00    +0.107 C 
ATOM     29  N   UNL     1       1.816  -2.654  -3.770  0.00  0.00    -0.287 N 
ATOM     30  C   UNL     1       1.233  -2.917  -2.470  0.00  0.00    +0.091 C 
ATOM     31  C   UNL     1       1.228  -1.621  -1.626  0.00  0.00    -0.059 C 
ATOM     32  C   UNL     1       1.009  -2.272  -4.779  0.00  0.00    +0.302 C 
ATOM     33  O   UNL     1       1.462  -2.128  -5.899  0.00  0.00    -0.253 OA
ATOM     34  N   UNL     1      -0.300  -2.051  -4.548  0.00  0.00    -0.297 N 
ATOM     35  H   UNL     1      -0.647  -2.097  -3.644  0.00  0.00    +0.150 HD
ATOM     36  H   UNL     1       2.940  -2.059  -0.737  0.00  0.00    -0.081 HD
BRANCH  34  37
ATOM     37  C   UNL     1      -1.198  -1.740  -5.663  0.00  0.00    +0.068 C 
ATOM     38  C   UNL     1      -2.628  -2.138  -5.292  0.00  0.00    +0.027 C 
ATOM     39  C   UNL     1      -1.146  -0.239  -5.957  0.00  0.00    +0.027 C 
ENDBRANCH  34  37
ENDBRANCH  24  25
ENDBRANCH   2  24
TORSDOF 8
