REMARK  Name = ZINC03096834
REMARK  7 active torsions:
REMARK  status: ('A' for Active; 'I' for Inactive)
REMARK    1  A    between atoms: C_1  and  C_2
REMARK    2  A    between atoms: C_5  and  N_9
REMARK    3  A    between atoms: N_9  and  C_10
REMARK    4  A    between atoms: C_10  and  C_11
REMARK    5  A    between atoms: N_13  and  N_14
REMARK    6  A    between atoms: C_15  and  C_16
REMARK    7  A    between atoms: C_19  and  N_22
REMARK                            x       y       z     vdW  Elec       q    Type
REMARK                         _______ _______ _______ _____ _____    ______ ____
ROOT
ATOM      1  C   UNL     1       5.600  -1.236  -1.319  0.00  0.00    +0.249 C 
ATOM      2  O   UNL     1       5.857  -1.978  -0.394  0.00  0.00    -0.272 OA
ATOM      3  N   UNL     1       6.432  -1.166  -2.378  0.00  0.00    -0.206 N 
ATOM      4  H   UNL     1       6.200  -0.494  -3.216  0.00  0.00    +0.177 HD
ENDROOT
BRANCH   3   5
ATOM      5  N   UNL     1       7.593  -1.950  -2.409  0.00  0.00    -0.188 NA
ATOM      6  C   UNL     1       8.394  -1.883  -3.428  0.00  0.00    +0.138 C 
BRANCH   6   7
ATOM      7  C   UNL     1       9.616  -2.708  -3.462  0.00  0.00    -0.005 A 
ATOM      8  C   UNL     1       9.917  -3.559  -2.396  0.00  0.00    +0.012 A 
ATOM      9  C   UNL     1      11.059  -4.332  -2.436  0.00  0.00    +0.033 A 
ATOM     10  C   UNL     1      11.910  -4.258  -3.524  0.00  0.00    +0.126 A 
ATOM     11  C   UNL     1      11.621  -3.413  -4.581  0.00  0.00    +0.033 A 
ATOM     12  C   UNL     1      10.480  -2.638  -4.557  0.00  0.00    +0.012 A 
BRANCH  10  13
ATOM     13  N   UNL     1      13.137  -5.085  -3.558  0.00  0.00    +0.056 N 
ATOM     14  O   UNL     1      13.889  -5.022  -4.514  0.00  0.00    -0.126 OA
ATOM     15  O   UNL     1      13.394  -5.830  -2.629  0.00  0.00    -0.126 OA
ENDBRANCH  10  13
ENDBRANCH   6   7
ENDBRANCH   3   5
BRANCH   1  16
ATOM     16  C   UNL     1       4.352  -0.393  -1.285  0.00  0.00    +0.199 C 
BRANCH  16  17
ATOM     17  N   UNL     1       3.622  -0.650  -0.037  0.00  0.00    -0.334 N 
ATOM     18  H   UNL     1       4.060  -1.303   0.733  0.00  0.00    +0.147 HD
BRANCH  17  23
ATOM     19  C   UNL     1      -1.343   2.094   0.009  0.00  0.00    +0.044 C 
ATOM     20  C   UNL     1      -0.025   1.363   0.002  0.00  0.00    -0.048 A 
ATOM     21  C   UNL     1       1.123   2.008   0.424  0.00  0.00    +0.020 A 
ATOM     22  C   UNL     1       2.334   1.343   0.413  0.00  0.00    +0.040 A 
ATOM     23  C   UNL     1       2.398   0.026  -0.024  0.00  0.00    +0.056 A 
ATOM     24  C   UNL     1       1.242  -0.619  -0.448  0.00  0.00    +0.040 A 
ATOM     25  C   UNL     1       0.034   0.052  -0.433  0.00  0.00    +0.020 A 
ATOM     26 BR   UNL     1       1.323  -2.412  -1.044  0.00  0.00    -0.048 Br
ATOM     27 BR   UNL     1       3.904   2.225   0.992  0.00  0.00    -0.048 Br
ENDBRANCH  17  23
ENDBRANCH  16  17
ENDBRANCH   1  16
TORSDOF 6
