REMARK  Name = ZINC50892606
REMARK  4 active torsions:
REMARK  status: ('A' for Active; 'I' for Inactive)
REMARK    1  A    between atoms: C_6  and  C_7
REMARK    2  A    between atoms: N_9  and  C_10
REMARK    3  A    between atoms: C_10  and  C_15
REMARK    4  A    between atoms: N_16  and  O_17
REMARK                            x       y       z     vdW  Elec       q    Type
REMARK                         _______ _______ _______ _____ _____    ______ ____
ROOT
ATOM      1  C   UNL     1      -1.126  -1.136   0.163  0.00  0.00    +0.245 C 
ATOM      2  O   UNL     1      -1.255  -2.342   0.254  0.00  0.00    -0.270 OA
ATOM      3  N   UNL     1      -2.214  -0.347   0.072  0.00  0.00    -0.299 N 
ATOM      4  H   UNL     1      -2.115   0.618   0.064  0.00  0.00    +0.150 HD
ENDROOT
BRANCH   1  10
ATOM      5  C   UNL     1       0.378   0.847   0.046  0.00  0.00    +0.016 A 
ATOM      6  C   UNL     1       1.635   1.404   0.040  0.00  0.00    +0.046 A 
ATOM      7  C   UNL     1       2.767   0.595   0.136  0.00  0.00    +0.124 A 
ATOM      8  C   UNL     1       2.607  -0.785   0.232  0.00  0.00    -0.002 A 
ATOM      9  C   UNL     1       1.357  -1.351   0.245  0.00  0.00    +0.020 A 
ATOM     10  C   UNL     1       0.223  -0.537   0.151  0.00  0.00    +0.037 A 
ATOM     11  C   UNL     1       3.997  -1.389   0.296  0.00  0.00    +0.080 C 
ATOM     12  C   UNL     1       4.880  -0.210  -0.175  0.00  0.00    +0.234 C 
ATOM     13  O   UNL     1       4.083   0.939   0.159  0.00  0.00    -0.491 OA
ENDBRANCH   1  10
BRANCH   3  14
ATOM     14  C   UNL     1      -3.549  -0.946  -0.014  0.00  0.00    +0.093 C 
ATOM     15  C   UNL     1      -3.804  -1.846   1.213  0.00  0.00    +0.033 C 
ATOM     16  C   UNL     1      -4.574  -0.933   2.200  0.00  0.00    +0.003 C 
ATOM     17  C   UNL     1      -5.495  -0.115   1.260  0.00  0.00    +0.003 C 
ATOM     18  C   UNL     1      -4.623   0.154   0.016  0.00  0.00    +0.033 C 
BRANCH  14  19
ATOM     19  C   UNL     1      -3.671  -1.753  -1.281  0.00  0.00    +0.155 C 
ATOM     20  N   UNL     1      -4.776  -2.364  -1.553  0.00  0.00    -0.075 NA
ATOM     21  N   UNL     1      -2.604  -1.839  -2.148  0.00  0.00    -0.342 N 
ATOM     22  H   UNL     1      -1.765  -1.404  -1.930  0.00  0.00    +0.144 HD
ATOM     23  H   UNL     1      -2.692  -2.335  -2.977  0.00  0.00    +0.144 HD
BRANCH  20  24
ATOM     24  O   UNL     1      -5.857  -2.312  -0.641  0.00  0.00    -0.408 OA
ATOM     25  H   UNL     1      -6.641  -2.799  -0.931  0.00  0.00    +0.328 HD
ENDBRANCH  20  24
ENDBRANCH  14  19
ENDBRANCH   3  14
TORSDOF 4
