REMARK  Name = ZINC39667032
REMARK  7 active torsions:
REMARK  status: ('A' for Active; 'I' for Inactive)
REMARK    1  A    between atoms: C_1  and  C_2
REMARK    2  A    between atoms: C_5  and  C_9
REMARK    3  A    between atoms: C_6  and  C_8
REMARK    4  A    between atoms: C_9  and  C_10
REMARK    5  A    between atoms: C_10  and  N_11
REMARK    6  A    between atoms: C_12  and  C_14
REMARK    7  A    between atoms: C_25  and  C_27
REMARK                            x       y       z     vdW  Elec       q    Type
REMARK                         _______ _______ _______ _____ _____    ______ ____
ROOT
ATOM      1  C   UNL     1      -2.683  -8.117  -0.379  0.00  0.00    +0.100 C 
ATOM      2  C   UNL     1      -2.083  -8.894  -1.572  0.00  0.00    +0.121 C 
ATOM      3  N   UNL     1      -2.923 -10.110  -1.687  0.00  0.00    -0.296 N 
ATOM      4  C   UNL     1      -4.301  -9.632  -1.418  0.00  0.00    +0.115 C 
ATOM      5  C   UNL     1      -4.138  -8.603  -0.282  0.00  0.00    -0.004 C 
ATOM      6  C   UNL     1      -5.100  -7.437  -0.485  0.00  0.00    -0.010 C 
ATOM      7  C   UNL     1      -6.540  -7.934  -0.327  0.00  0.00    -0.082 C 
ATOM      8  N   UNL     1      -6.715  -8.511   1.012  0.00  0.00    +0.379 N 
ATOM      9  C   UNL     1      -5.854  -9.689   1.166  0.00  0.00    -0.082 C 
ATOM     10  C   UNL     1      -4.385  -9.266   1.070  0.00  0.00    -0.010 C 
ATOM     11  C   UNL     1      -2.525 -11.365  -1.972  0.00  0.00    +0.247 C 
ATOM     12  O   UNL     1      -1.339 -11.626  -2.041  0.00  0.00    -0.270 OA
ATOM     13  H   UNL     1      -6.470  -7.823   1.708  0.00  0.00    -0.086 HD
ATOM     14  H   UNL     1      -7.679  -8.782   1.136  0.00  0.00    -0.086 HD
ENDROOT
BRANCH  11  15
ATOM     15  C   UNL     1      -3.529 -12.426  -2.199  0.00  0.00    +0.037 A 
ATOM     16  C   UNL     1      -4.838 -12.088  -2.548  0.00  0.00    +0.014 A 
ATOM     17  C   UNL     1      -5.771 -13.082  -2.759  0.00  0.00    +0.016 A 
ATOM     18  C   UNL     1      -5.411 -14.412  -2.625  0.00  0.00    +0.018 A 
ATOM     19  C   UNL     1      -4.114 -14.754  -2.279  0.00  0.00    +0.016 A 
ATOM     20  C   UNL     1      -3.171 -13.769  -2.071  0.00  0.00    +0.014 A 
ATOM     21 BR   UNL     1      -6.696 -15.769  -2.915  0.00  0.00    -0.050 Br
ENDBRANCH  11  15
BRANCH   1  23
ATOM     22  N   UNL     1      -2.523  -5.769   0.382  0.00  0.00    -0.315 N 
ATOM     23  C   UNL     1      -2.641  -6.634  -0.644  0.00  0.00    +0.218 C 
ATOM     24  O   UNL     1      -2.715  -6.220  -1.782  0.00  0.00    -0.275 OA
ATOM     25  H   UNL     1      -2.464  -6.100   1.292  0.00  0.00    +0.149 HD
BRANCH  22  26
ATOM     26  C   UNL     1      -2.483  -4.327   0.123  0.00  0.00    +0.109 C 
BRANCH  26  27
ATOM     27  C   UNL     1      -2.346  -3.575   1.448  0.00  0.00    +0.054 C 
BRANCH  27  32
ATOM     28  C   UNL     1      -2.188   2.110   0.426  0.00  0.00    +0.044 C 
ATOM     29  C   UNL     1      -2.229   0.628   0.693  0.00  0.00    -0.050 A 
ATOM     30  C   UNL     1      -1.051  -0.084   0.824  0.00  0.00    +0.003 A 
ATOM     31  C   UNL     1      -1.089  -1.444   1.068  0.00  0.00    +0.004 A 
ATOM     32  C   UNL     1      -2.304  -2.092   1.183  0.00  0.00    -0.043 A 
ATOM     33  C   UNL     1      -3.482  -1.381   1.053  0.00  0.00    -0.047 A 
ATOM     34  C   UNL     1      -3.444  -0.019   0.812  0.00  0.00    +0.007 A 
ATOM     35  C   UNL     1      -4.807  -2.087   1.177  0.00  0.00    +0.044 C 
ENDBRANCH  27  32
ENDBRANCH  26  27
ENDBRANCH  22  26
ENDBRANCH   1  23
TORSDOF 5
