REMARK  Name = ZINC58826712
REMARK  7 active torsions:
REMARK  status: ('A' for Active; 'I' for Inactive)
REMARK    1  A    between atoms: C_3  and  C_10
REMARK    2  A    between atoms: C_5  and  C_7
REMARK    3  A    between atoms: C_13  and  C_15
REMARK    4  A    between atoms: N_16  and  C_17
REMARK    5  A    between atoms: C_18  and  C_26
REMARK    6  A    between atoms: N_28  and  C_29
REMARK    7  A    between atoms: C_29  and  C_30
REMARK                            x       y       z     vdW  Elec       q    Type
REMARK                         _______ _______ _______ _____ _____    ______ ____
ROOT
ATOM      1  C   UNL     1       9.067   1.129  -0.098  0.00  0.00    +0.114 A 
ATOM      2  C   UNL     1       9.822  -0.052  -0.124  0.00  0.00    +0.073 A 
ATOM      3  C   UNL     1      11.225   0.049  -0.139  0.00  0.00    -0.023 A 
ATOM      4  C   UNL     1      11.751   1.298  -0.127  0.00  0.00    -0.004 A 
ATOM      5  S   UNL     1      10.344   2.377  -0.102  0.00  0.00    -0.073 S 
ATOM      6  C   UNL     1      13.199   1.675  -0.138  0.00  0.00    +0.043 C 
ATOM      7  C   UNL     1      14.027   0.428   0.208  0.00  0.00    +0.005 C 
ATOM      8  C   UNL     1      13.527  -0.743  -0.642  0.00  0.00    +0.005 C 
ATOM      9  C   UNL     1      12.138  -1.174  -0.168  0.00  0.00    +0.037 C 
ENDROOT
BRANCH   2  10
ATOM     10  C   UNL     1       9.164  -1.361  -0.134  0.00  0.00    +0.247 C 
ATOM     11  O   UNL     1       8.878  -1.891  -1.192  0.00  0.00    -0.270 OA
ATOM     12  N   UNL     1       8.875  -1.980   1.028  0.00  0.00    -0.304 N 
ATOM     13  H   UNL     1       9.103  -1.558   1.872  0.00  0.00    +0.149 HD
BRANCH  12  14
ATOM     14  C   UNL     1       8.218  -3.289   1.018  0.00  0.00    +0.179 C 
BRANCH  14  15
ATOM     15  C   UNL     1       8.009  -3.758   2.435  0.00  0.00    +0.122 A 
ATOM     16  C   UNL     1       6.923  -3.517   3.191  0.00  0.00    +0.046 A 
ATOM     17  C   UNL     1       7.149  -4.137   4.441  0.00  0.00    +0.041 A 
ATOM     18  C   UNL     1       8.360  -4.719   4.375  0.00  0.00    +0.195 A 
ATOM     19  O   UNL     1       8.874  -4.491   3.155  0.00  0.00    -0.466 OA
ENDBRANCH  14  15
ENDBRANCH  12  14
ENDBRANCH   2  10
BRANCH   1  21
ATOM     20  C   UNL     1       7.206   2.487  -0.062  0.00  0.00    +0.158 C 
ATOM     21  N   UNL     1       7.729   1.282  -0.080  0.00  0.00    -0.244 NA
BRANCH  20  25
ATOM     22  C   UNL     1       3.654   2.182  -0.022  0.00  0.00    +0.136 A 
ATOM     23  C   UNL     1       3.760   3.544  -0.010  0.00  0.00    +0.050 A 
ATOM     24  C   UNL     1       5.123   3.852  -0.024  0.00  0.00    +0.051 A 
ATOM     25  C   UNL     1       5.803   2.648  -0.044  0.00  0.00    +0.147 A 
ATOM     26  O   UNL     1       4.890   1.653  -0.036  0.00  0.00    -0.454 OA
BRANCH  22  29
ATOM     27  C   UNL     1      -0.017   1.376   0.010  0.00  0.00    +0.001 A 
ATOM     28  C   UNL     1       1.166   2.090   0.002  0.00  0.00    +0.011 A 
ATOM     29  C   UNL     1       2.391   1.418  -0.013  0.00  0.00    +0.018 A 
ATOM     30  C   UNL     1       2.418   0.024  -0.021  0.00  0.00    +0.026 A 
ATOM     31  C   UNL     1       1.221  -0.690  -0.013  0.00  0.00    +0.064 A 
ATOM     32  C   UNL     1       0.002  -0.004   0.002  0.00  0.00    +0.015 A 
BRANCH  31  33
ATOM     33  C   UNL     1       1.239  -2.166  -0.022  0.00  0.00    +0.387 C 
ATOM     34  O   UNL     1       2.305  -2.764  -0.035  0.00  0.00    -0.241 OA
ATOM     35  O   UNL     1       0.187  -2.790  -0.015  0.00  0.00    -0.241 OA
ENDBRANCH  31  33
ENDBRANCH  22  29
ENDBRANCH  20  25
ENDBRANCH   1  21
TORSDOF 7
