REMARK  Name = ZINC35268318
REMARK  9 active torsions:
REMARK  status: ('A' for Active; 'I' for Inactive)
REMARK    1  A    between atoms: C_1  and  C_2
REMARK    2  A    between atoms: C_2  and  C_3
REMARK    3  A    between atoms: C_3  and  C_5
REMARK    4  A    between atoms: C_3  and  C_6
REMARK    5  A    between atoms: C_6  and  C_8
REMARK    6  A    between atoms: C_6  and  N_23
REMARK    7  A    between atoms: C_14  and  C_16
REMARK    8  A    between atoms: C_19  and  C_22
REMARK    9  A    between atoms: N_26  and  C_27
REMARK                            x       y       z     vdW  Elec       q    Type
REMARK                         _______ _______ _______ _____ _____    ______ ____
ROOT
ATOM      1  C   UNL     1      -1.264  -2.036  -0.114  0.00  0.00    +0.163 C 
ENDROOT
BRANCH   1   2
ATOM      2  C   UNL     1      -0.843  -2.533   1.245  0.00  0.00    +0.239 C 
ATOM      3  O   UNL     1       0.149  -3.221   1.359  0.00  0.00    -0.273 OA
ATOM      4  N   UNL     1      -1.570  -2.214   2.335  0.00  0.00    -0.262 N 
ATOM      5  C   UNL     1      -1.248  -2.764   3.570  0.00  0.00    +0.188 A 
ATOM      6  N   UNL     1      -0.276  -3.602   3.879  0.00  0.00    -0.125 NA
ATOM      7  N   UNL     1      -0.104  -4.020   5.059  0.00  0.00    -0.140 NA
ATOM      8  C   UNL     1      -0.926  -3.601   6.013  0.00  0.00    +0.134 A 
ATOM      9  S   UNL     1      -1.993  -2.526   5.063  0.00  0.00    -0.030 S 
ATOM     10  H   UNL     1      -2.317  -1.601   2.256  0.00  0.00    +0.157 HD
BRANCH   8  11
ATOM     11  C   UNL     1      -0.949  -3.927   7.455  0.00  0.00    +0.009 A 
ATOM     12  C   UNL     1      -1.922  -3.368   8.284  0.00  0.00    +0.011 A 
ATOM     13  C   UNL     1      -1.938  -3.676   9.629  0.00  0.00    +0.004 A 
ATOM     14  C   UNL     1      -0.993  -4.538  10.155  0.00  0.00    -0.050 A 
ATOM     15  C   UNL     1      -0.025  -5.096   9.338  0.00  0.00    +0.004 A 
ATOM     16  C   UNL     1      -0.001  -4.800   7.991  0.00  0.00    +0.011 A 
ATOM     17  C   UNL     1      -1.016  -4.870  11.625  0.00  0.00    +0.044 C 
ENDBRANCH   8  11
ENDBRANCH   1   2
BRANCH   1  18
ATOM     18  N   UNL     1      -0.667  -2.881  -1.150  0.00  0.00    -0.288 N 
ATOM     19  C   UNL     1      -1.252  -2.980  -2.360  0.00  0.00    +0.305 C 
ATOM     20  O   UNL     1      -2.277  -2.367  -2.591  0.00  0.00    -0.252 OA
ATOM     21  N   UNL     1      -0.703  -3.758  -3.313  0.00  0.00    -0.268 N 
ATOM     22  H   UNL     1       0.150  -3.371  -0.965  0.00  0.00    +0.151 HD
ATOM     23  H   UNL     1       0.075  -4.299  -3.108  0.00  0.00    +0.156 HD
BRANCH  21  24
ATOM     24  C   UNL     1      -1.256  -3.784  -4.600  0.00  0.00    +0.053 A 
ATOM     25  C   UNL     1      -2.608  -3.530  -4.781  0.00  0.00    +0.026 A 
ATOM     26  C   UNL     1      -3.151  -3.557  -6.051  0.00  0.00    +0.022 A 
ATOM     27  C   UNL     1      -2.348  -3.837  -7.143  0.00  0.00    +0.042 A 
ATOM     28  C   UNL     1      -0.999  -4.091  -6.966  0.00  0.00    +0.041 A 
ATOM     29  C   UNL     1      -0.450  -4.059  -5.698  0.00  0.00    +0.064 A 
ATOM     30 CL   UNL     1       1.244  -4.370  -5.477  0.00  0.00    -0.082 Cl
ATOM     31 CL   UNL     1      -3.034  -3.870  -8.737  0.00  0.00    -0.083 Cl
ENDBRANCH  21  24
ENDBRANCH   1  18
BRANCH   1  32
ATOM     32  C   UNL     1      -0.791  -0.593  -0.297  0.00  0.00    +0.015 C 
ATOM     33  C   UNL     1       0.739  -0.557  -0.322  0.00  0.00    +0.010 C 
BRANCH  32  35
ATOM     34  C   UNL     1      -0.966   1.438  -1.742  0.00  0.00    +0.004 C 
ATOM     35  C   UNL     1      -1.335  -0.041  -1.617  0.00  0.00    +0.002 C 
ENDBRANCH  32  35
ENDBRANCH   1  32
TORSDOF 6
