REMARK  Name = ZINC54396367
REMARK  4 active torsions:
REMARK  status: ('A' for Active; 'I' for Inactive)
REMARK    1  A    between atoms: C_6  and  S_7
REMARK    2  A    between atoms: S_7  and  C_8
REMARK    3  A    between atoms: C_9  and  C_14
REMARK    4  A    between atoms: N_15  and  O_16
REMARK                            x       y       z     vdW  Elec       q    Type
REMARK                         _______ _______ _______ _____ _____    ______ ____
ROOT
ATOM      1  C   UNL     1      -1.005  -2.588  -0.151  0.00  0.00    +0.130 A 
ATOM      2  C   UNL     1      -1.965  -3.604  -0.292  0.00  0.00    +0.138 A 
ATOM      3  N   UNL     1      -1.573  -4.868  -0.415  0.00  0.00    -0.248 NA
ATOM      4  C   UNL     1      -0.287  -5.163  -0.403  0.00  0.00    +0.131 A 
ATOM      5  C   UNL     1       0.660  -4.163  -0.264  0.00  0.00    +0.132 A 
ATOM      6  N   UNL     1       0.285  -2.900  -0.147  0.00  0.00    -0.245 NA
ENDROOT
BRANCH   2   7
ATOM      7  C   UNL     1      -3.405  -3.268  -0.304  0.00  0.00    +0.183 C 
ATOM      8  N   UNL     1      -4.024  -3.096  -1.436  0.00  0.00    -0.070 NA
ATOM      9  N   UNL     1      -4.096  -3.138   0.890  0.00  0.00    -0.339 N 
ATOM     10  H   UNL     1      -3.635  -3.266   1.733  0.00  0.00    +0.144 HD
ATOM     11  H   UNL     1      -5.041  -2.917   0.882  0.00  0.00    +0.144 HD
BRANCH   8  12
ATOM     12  O   UNL     1      -3.298  -3.124  -2.651  0.00  0.00    -0.408 OA
ATOM     13  H   UNL     1      -3.828  -2.911  -3.431  0.00  0.00    +0.328 HD
ENDBRANCH   8  12
ENDBRANCH   2   7
BRANCH   1  14
ATOM     14  S   UNL     1      -1.510  -0.908   0.011  0.00  0.00    -0.068 S 
BRANCH  14  20
ATOM     15  C   UNL     1       0.593   0.359  -1.198  0.00  0.00    +0.016 A 
ATOM     16  C   UNL     1       1.779   1.066  -1.198  0.00  0.00    +0.016 A 
ATOM     17  C   UNL     1       2.380   1.413  -0.001  0.00  0.00    +0.018 A 
ATOM     18  C   UNL     1       1.795   1.051   1.200  0.00  0.00    +0.016 A 
ATOM     19  C   UNL     1       0.610   0.344   1.207  0.00  0.00    +0.016 A 
ATOM     20  C   UNL     1       0.004  -0.006   0.006  0.00  0.00    +0.014 A 
ATOM     21 BR   UNL     1       4.004   2.381  -0.006  0.00  0.00    -0.050 Br
ENDBRANCH  14  20
ENDBRANCH   1  14
TORSDOF 4
