REMARK  Name = ZINC57345561
REMARK  6 active torsions:
REMARK  status: ('A' for Active; 'I' for Inactive)
REMARK    1  A    between atoms: C_4  and  C_26
REMARK    2  A    between atoms: C_6  and  N_7
REMARK    3  A    between atoms: C_8  and  C_20
REMARK    4  A    between atoms: C_9  and  C_12
REMARK    5  A    between atoms: C_12  and  N_13
REMARK    6  A    between atoms: C_16  and  N_19
REMARK                            x       y       z     vdW  Elec       q    Type
REMARK                         _______ _______ _______ _____ _____    ______ ____
ROOT
ATOM      1  N   UNL     1      -1.202  -0.723   0.010  0.00  0.00    -0.212 N 
ATOM      2  C   UNL     1      -2.353  -0.357   0.654  0.00  0.00    +0.099 A 
ATOM      3  C   UNL     1      -3.257  -1.348   0.388  0.00  0.00    +0.105 A 
ATOM      4  N   UNL     1      -2.625  -2.237  -0.382  0.00  0.00    -0.132 NA
ATOM      5  N   UNL     1      -1.420  -1.839  -0.591  0.00  0.00    -0.060 NA
ENDROOT
BRANCH   1  11
ATOM      6  C   UNL     1      -0.017   1.384   0.010  0.00  0.00    +0.029 A 
ATOM      7  C   UNL     1       1.171   2.090   0.002  0.00  0.00    +0.022 A 
ATOM      8  C   UNL     1       2.378   1.414  -0.013  0.00  0.00    +0.053 A 
ATOM      9  C   UNL     1       2.400   0.030  -0.022  0.00  0.00    +0.075 A 
ATOM     10  C   UNL     1       1.215  -0.680  -0.014  0.00  0.00    +0.041 A 
ATOM     11  C   UNL     1       0.002  -0.004   0.002  0.00  0.00    +0.068 A 
ATOM     12 CL   UNL     1       3.869   2.304  -0.024  0.00  0.00    -0.083 Cl
BRANCH   9  13
ATOM     13  C   UNL     1       3.716  -0.702  -0.040  0.00  0.00    +0.419 C 
ATOM     14  F   UNL     1       3.483  -2.082  -0.045  0.00  0.00    -0.166 F 
ATOM     15  F   UNL     1       4.433  -0.346  -1.188  0.00  0.00    -0.166 F 
ATOM     16  F   UNL     1       4.457  -0.359   1.097  0.00  0.00    -0.166 F 
ENDBRANCH   9  13
ENDBRANCH   1  11
BRANCH   2  17
ATOM     17  C   UNL     1      -2.574   0.858   1.470  0.00  0.00    +0.005 A 
ATOM     18  C   UNL     1      -3.739   1.620   1.324  0.00  0.00    +0.030 A 
ATOM     19  C   UNL     1      -3.904   2.744   2.104  0.00  0.00    +0.111 A 
ATOM     20  N   UNL     1      -2.983   3.104   2.978  0.00  0.00    -0.263 NA
ATOM     21  C   UNL     1      -1.871   2.414   3.147  0.00  0.00    +0.111 A 
ATOM     22  C   UNL     1      -1.626   1.273   2.412  0.00  0.00    +0.030 A 
ENDBRANCH   2  17
BRANCH   3  23
ATOM     23  C   UNL     1      -4.684  -1.422   0.867  0.00  0.00    +0.144 C 
BRANCH  23  24
ATOM     24  N   UNL     1      -5.563  -0.762  -0.108  0.00  0.00    -0.297 NA
ATOM     25  C   UNL     1      -5.578  -1.494  -1.381  0.00  0.00    +0.083 C 
ATOM     26  C   UNL     1      -6.384  -0.704  -2.415  0.00  0.00    -0.001 C 
ATOM     27  C   UNL     1      -7.813  -0.508  -1.899  0.00  0.00    -0.073 C 
ATOM     28  C   UNL     1      -7.766   0.212  -0.549  0.00  0.00    -0.001 C 
ATOM     29  C   UNL     1      -6.920  -0.604   0.430  0.00  0.00    +0.083 C 
BRANCH  27  30
ATOM     30  N   UNL     1      -8.575   0.299  -2.861  0.00  0.00    +0.380 N 
ATOM     31  H   UNL     1      -8.601  -0.174  -3.752  0.00  0.00    -0.090 HD
ATOM     32  H   UNL     1      -9.517   0.428  -2.520  0.00  0.00    -0.090 HD
ATOM     33  H   UNL     1      -8.132   1.199  -2.970  0.00  0.00    -0.090 HD
ENDBRANCH  27  30
ENDBRANCH  23  24
ENDBRANCH   3  23
TORSDOF 6
