REMARK  Name = ZINC14943771
REMARK  3 active torsions:
REMARK  status: ('A' for Active; 'I' for Inactive)
REMARK    1  A    between atoms: C_6  and  N_7
REMARK    2  A    between atoms: C_14  and  N_29
REMARK    3  A    between atoms: C_22  and  C_26
REMARK                            x       y       z     vdW  Elec       q    Type
REMARK                         _______ _______ _______ _____ _____    ______ ____
ROOT
ATOM      1  N   UNL     1       0.002  -0.004   0.002  0.00  0.00    -0.192 N 
ATOM      2  C   UNL     1       0.034   1.245  -0.484  0.00  0.00    +0.245 C 
ATOM      3  O   UNL     1      -0.989   1.738  -0.909  0.00  0.00    -0.274 OA
ATOM      4  C   UNL     1       1.302   2.049  -0.523  0.00  0.00    +0.148 C 
ATOM      5  C   UNL     1       1.615   2.443  -1.969  0.00  0.00    +0.064 C 
ATOM      6  C   UNL     1       0.629   3.485  -2.434  0.00  0.00    -0.023 A 
ATOM      7  C   UNL     1       0.517   3.717  -3.795  0.00  0.00    +0.038 A 
ATOM      8  C   UNL     1      -0.368   4.663  -4.274  0.00  0.00    +0.127 A 
ATOM      9  C   UNL     1      -1.149   5.385  -3.389  0.00  0.00    +0.034 A 
ATOM     10  C   UNL     1      -1.043   5.159  -2.034  0.00  0.00    +0.025 A 
ATOM     11  C   UNL     1      -0.152   4.202  -1.544  0.00  0.00    +0.033 A 
ATOM     12  N   UNL     1      -0.099   4.013  -0.166  0.00  0.00    -0.325 N 
ATOM     13  C   UNL     1       1.116   3.337   0.287  0.00  0.00    +0.098 C 
ATOM     14  C   UNL     1       0.991   2.989   1.772  0.00  0.00    +0.036 C 
ATOM     15  C   UNL     1       0.771   4.276   2.573  0.00  0.00    +0.078 C 
ATOM     16  C   UNL     1      -0.480   4.987   2.049  0.00  0.00    +0.031 C 
ATOM     17  C   UNL     1      -0.309   5.276   0.555  0.00  0.00    +0.106 C 
ATOM     18  C   UNL     1       2.449   1.261   0.044  0.00  0.00    +0.257 C 
ATOM     19  O   UNL     1       3.548   1.770   0.087  0.00  0.00    -0.272 OA
ATOM     20  N   UNL     1       2.290   0.012   0.504  0.00  0.00    -0.126 NA
ATOM     21  C   UNL     1       1.100  -0.606   0.484  0.00  0.00    +0.339 C 
ATOM     22  O   UNL     1       1.014  -1.740   0.913  0.00  0.00    -0.250 OA
ENDROOT
BRANCH   1  28
ATOM     23  C   UNL     1      -2.059  -0.617   1.106  0.00  0.00    +0.025 A 
ATOM     24  C   UNL     1      -3.259  -1.301   1.107  0.00  0.00    +0.022 A 
ATOM     25  C   UNL     1      -3.615  -2.078   0.019  0.00  0.00    +0.041 A 
ATOM     26  C   UNL     1      -2.772  -2.168  -1.075  0.00  0.00    +0.022 A 
ATOM     27  C   UNL     1      -1.574  -1.482  -1.083  0.00  0.00    +0.025 A 
ATOM     28  C   UNL     1      -1.215  -0.701   0.008  0.00  0.00    +0.046 A 
ATOM     29 CL   UNL     1      -5.120  -2.943   0.027  0.00  0.00    -0.084 Cl
ENDBRANCH   1  28
BRANCH  15  30
ATOM     30  C   UNL     1       1.967   5.179   2.415  0.00  0.00    +0.214 C 
ATOM     31  O   UNL     1       2.904   4.829   1.730  0.00  0.00    -0.276 OA
ATOM     32  N   UNL     1       1.995   6.375   3.036  0.00  0.00    -0.329 N 
ATOM     33  H   UNL     1       2.868   7.034   2.920  0.00  0.00    +0.145 HD
ATOM     34  H   UNL     1       1.145   6.692   3.657  0.00  0.00    +0.145 HD
ENDBRANCH  15  30
BRANCH   8  35
ATOM     35  N   UNL     1      -0.482   4.903  -5.729  0.00  0.00    +0.056 N 
ATOM     36  O   UNL     1      -1.263   5.737  -6.150  0.00  0.00    -0.126 OA
ATOM     37  O   UNL     1       0.206   4.266  -6.507  0.00  0.00    -0.126 OA
ENDBRANCH   8  35
TORSDOF 3
