REMARK  Name = ZINC37191421
REMARK  5 active torsions:
REMARK  status: ('A' for Active; 'I' for Inactive)
REMARK    1  A    between atoms: C_7  and  N_20
REMARK    2  A    between atoms: C_9  and  C_11
REMARK    3  A    between atoms: C_11  and  S_12
REMARK    4  A    between atoms: S_12  and  C_13
REMARK    5  A    between atoms: C_16  and  N_19
REMARK                            x       y       z     vdW  Elec       q    Type
REMARK                         _______ _______ _______ _____ _____    ______ ____
ROOT
ATOM      1  C   UNL     1      -0.016   1.360   0.009  0.00  0.00    +0.001 A 
ATOM      2  C   UNL     1       1.168   2.091   0.002  0.00  0.00    +0.002 A 
ATOM      3  C   UNL     1       2.380   1.466  -0.013  0.00  0.00    +0.028 A 
ATOM      4  C   UNL     1       2.436   0.065  -0.021  0.00  0.00    +0.076 A 
ATOM      5  C   UNL     1       1.229  -0.676  -0.013  0.00  0.00    +0.040 A 
ATOM      6  C   UNL     1       0.002  -0.004   0.002  0.00  0.00    +0.013 A 
ATOM      7  C   UNL     1       1.313  -2.090  -0.021  0.00  0.00    +0.127 A 
ATOM      8  N   UNL     1       2.518  -2.646  -0.035  0.00  0.00    -0.216 NA
ATOM      9  C   UNL     1       3.618  -1.911  -0.042  0.00  0.00    +0.142 A 
ATOM     10  N   UNL     1       3.600  -0.599  -0.035  0.00  0.00    -0.231 NA
ENDROOT
BRANCH   7  11
ATOM     11  N   UNL     1       0.175  -2.867  -0.014  0.00  0.00    -0.343 N 
ATOM     12  H   UNL     1      -0.699  -2.447  -0.003  0.00  0.00    +0.144 HD
ATOM     13  H   UNL     1       0.248  -3.834  -0.019  0.00  0.00    +0.144 HD
ENDBRANCH   7  11
BRANCH   9  14
ATOM     14  C   UNL     1       4.952  -2.612  -0.057  0.00  0.00    +0.152 C 
BRANCH  14  15
ATOM     15  S   UNL     1       5.471  -2.886  -1.773  0.00  0.00    -0.098 S 
BRANCH  15  16
ATOM     16  C   UNL     1       7.025  -3.704  -1.623  0.00  0.00    +0.097 A 
ATOM     17  C   UNL     1       7.725  -4.066  -2.770  0.00  0.00    +0.036 A 
ATOM     18  C   UNL     1       8.943  -4.707  -2.641  0.00  0.00    +0.027 A 
ATOM     19  C   UNL     1       9.425  -4.966  -1.359  0.00  0.00    +0.043 A 
ATOM     20  C   UNL     1       8.672  -4.576  -0.262  0.00  0.00    +0.134 A 
ATOM     21  N   UNL     1       7.515  -3.961  -0.421  0.00  0.00    -0.247 NA
BRANCH  19  22
ATOM     22  N   UNL     1      10.654  -5.614  -1.181  0.00  0.00    -0.357 N 
ATOM     23  H   UNL     1      11.176  -5.884  -1.952  0.00  0.00    +0.142 HD
ATOM     24  H   UNL     1      10.983  -5.792  -0.286  0.00  0.00    +0.142 HD
ENDBRANCH  19  22
ENDBRANCH  15  16
ENDBRANCH  14  15
ENDBRANCH   9  14
TORSDOF 5
