REMARK  Name = ZINC45336405
REMARK  2 active torsions:
REMARK  status: ('A' for Active; 'I' for Inactive)
REMARK    1  A    between atoms: C_6  and  C_7
REMARK    2  A    between atoms: C_16  and  C_18
REMARK                            x       y       z     vdW  Elec       q    Type
REMARK                         _______ _______ _______ _____ _____    ______ ____
ROOT
ATOM      1  C   UNL     1      -1.266  -0.763   0.011  0.00  0.00    +0.249 C 
ATOM      2  O   UNL     1      -2.328  -0.172   0.024  0.00  0.00    -0.270 OA
ATOM      3  N   UNL     1      -1.244  -2.111   0.003  0.00  0.00    -0.261 N 
ATOM      4  C   UNL     1      -2.440  -2.827   0.011  0.00  0.00    +0.211 A 
ATOM      5  C   UNL     1      -2.565  -4.287   0.010  0.00  0.00    +0.211 A 
ATOM      6  N   UNL     1      -3.834  -4.590   0.019  0.00  0.00    -0.032 NA
ATOM      7  O   UNL     1      -4.569  -3.379   0.026  0.00  0.00    -0.239 OA
ATOM      8  N   UNL     1      -3.638  -2.312   0.026  0.00  0.00    -0.032 NA
ATOM      9  N   UNL     1      -1.510  -5.197   0.002  0.00  0.00    -0.261 N 
ATOM     10  C   UNL     1      -1.761  -6.521   0.002  0.00  0.00    +0.249 C 
ATOM     11  O   UNL     1      -2.909  -6.922   0.010  0.00  0.00    -0.270 OA
ATOM     12  H   UNL     1      -0.397  -2.582  -0.008  0.00  0.00    +0.157 HD
ATOM     13  H   UNL     1      -0.594  -4.877  -0.005  0.00  0.00    +0.157 HD
ENDROOT
BRANCH   1  19
ATOM     14  C   UNL     1      -0.017   1.392   0.010  0.00  0.00    +0.014 A 
ATOM     15  C   UNL     1       1.170   2.095   0.002  0.00  0.00    +0.016 A 
ATOM     16  C   UNL     1       2.378   1.419  -0.013  0.00  0.00    +0.018 A 
ATOM     17  C   UNL     1       2.404   0.034  -0.021  0.00  0.00    +0.016 A 
ATOM     18  C   UNL     1       1.224  -0.680  -0.014  0.00  0.00    +0.014 A 
ATOM     19  C   UNL     1       0.002  -0.004   0.002  0.00  0.00    +0.037 A 
ATOM     20 BR   UNL     1       4.000   2.390  -0.024  0.00  0.00    -0.050 Br
ENDBRANCH   1  19
BRANCH  10  21
ATOM     21  C   UNL     1      -0.642  -7.486  -0.007  0.00  0.00    +0.037 A 
ATOM     22  C   UNL     1       0.677  -7.029  -0.011  0.00  0.00    +0.014 A 
ATOM     23  C   UNL     1       1.718  -7.934  -0.020  0.00  0.00    +0.016 A 
ATOM     24  C   UNL     1       1.456  -9.294  -0.025  0.00  0.00    +0.018 A 
ATOM     25  C   UNL     1       0.150  -9.753  -0.022  0.00  0.00    +0.016 A 
ATOM     26  C   UNL     1      -0.899  -8.858  -0.007  0.00  0.00    +0.014 A 
ATOM     27 BR   UNL     1       2.889 -10.528  -0.037  0.00  0.00    -0.050 Br
ENDBRANCH  10  21
TORSDOF 2
