REMARK  Name = ZINC04891911
REMARK  4 active torsions:
REMARK  status: ('A' for Active; 'I' for Inactive)
REMARK    1  A    between atoms: C_4  and  C_7
REMARK    2  A    between atoms: C_7  and  N_8
REMARK    3  A    between atoms: C_15  and  C_17
REMARK    4  A    between atoms: N_19  and  C_20
REMARK                            x       y       z     vdW  Elec       q    Type
REMARK                         _______ _______ _______ _____ _____    ______ ____
ROOT
ATOM      1  N   UNL     1       0.022  -0.500   1.381  0.00  0.00    -0.295 N 
ATOM      2  C   UNL     1       0.042  -1.826   1.619  0.00  0.00    +0.303 C 
ATOM      3  O   UNL     1       0.044  -2.611   0.691  0.00  0.00    -0.253 OA
ATOM      4  N   UNL     1       0.060  -2.282   2.888  0.00  0.00    -0.274 N 
ATOM      5  C   UNL     1       0.067  -1.446   4.101  0.00  0.00    +0.110 C 
ATOM      6  C   UNL     1      -0.527  -2.354   5.210  0.00  0.00    +0.021 C 
ATOM      7  C   UNL     1       0.072  -3.734   4.832  0.00  0.00    +0.033 C 
ATOM      8  C   UNL     1       0.084  -3.696   3.289  0.00  0.00    +0.163 C 
ATOM      9  H   UNL     1       0.020   0.127   2.121  0.00  0.00    +0.151 HD
ENDROOT
BRANCH   8  10
ATOM     10  C   UNL     1      -1.134  -4.402   2.750  0.00  0.00    +0.234 C 
ATOM     11  O   UNL     1      -2.099  -3.760   2.394  0.00  0.00    -0.274 OA
ATOM     12  N   UNL     1      -1.150  -5.747   2.664  0.00  0.00    -0.308 N 
ATOM     13  H   UNL     1      -0.378  -6.261   2.950  0.00  0.00    +0.149 HD
BRANCH  12  14
ATOM     14  C   UNL     1      -2.334  -6.433   2.141  0.00  0.00    +0.035 C 
ATOM     15  C   UNL     1      -2.600  -5.968   0.708  0.00  0.00    +0.029 C 
ATOM     16  C   UNL     1      -3.837  -6.685   0.160  0.00  0.00    -0.008 C 
ATOM     17  C   UNL     1      -3.596  -8.195   0.170  0.00  0.00    +0.007 C 
ATOM     18  C   UNL     1      -3.329  -8.661   1.603  0.00  0.00    -0.008 C 
ATOM     19  C   UNL     1      -2.093  -7.944   2.150  0.00  0.00    +0.029 C 
ATOM     20  C   UNL     1      -4.539  -8.332   2.479  0.00  0.00    +0.007 C 
ATOM     21  C   UNL     1      -4.780  -6.821   2.470  0.00  0.00    -0.008 C 
ATOM     22  C   UNL     1      -5.047  -6.356   1.037  0.00  0.00    +0.007 C 
ATOM     23  C   UNL     1      -3.544  -6.104   3.017  0.00  0.00    +0.029 C 
ENDBRANCH  12  14
ENDBRANCH   8  10
BRANCH   1  24
ATOM     24  C   UNL     1       0.002  -0.004   0.002  0.00  0.00    +0.141 C 
BRANCH  24  28
ATOM     25  C   UNL     1      -0.056   4.267   0.025  0.00  0.00    +0.000 A 
ATOM     26  C   UNL     1       1.151   3.592   0.010  0.00  0.00    +0.000 A 
ATOM     27  C   UNL     1       1.169   2.210   0.003  0.00  0.00    +0.005 A 
ATOM     28  C   UNL     1      -0.018   1.503   0.010  0.00  0.00    -0.030 A 
ATOM     29  C   UNL     1      -1.225   2.178   0.020  0.00  0.00    +0.005 A 
ATOM     30  C   UNL     1      -1.244   3.560   0.033  0.00  0.00    +0.000 A 
ENDBRANCH  24  28
ENDBRANCH   1  24
TORSDOF 4
