REMARK  Name = ZINC12487749
REMARK  9 active torsions:
REMARK  status: ('A' for Active; 'I' for Inactive)
REMARK    1  A    between atoms: C_5  and  C_7
REMARK    2  A    between atoms: C_7  and  C_9
REMARK    3  A    between atoms: C_7  and  N_18
REMARK    4  A    between atoms: N_11  and  C_12
REMARK    5  A    between atoms: C_12  and  C_13
REMARK    6  A    between atoms: N_18  and  C_19
REMARK    7  A    between atoms: C_26  and  C_28
REMARK    8  A    between atoms: C_28  and  N_29
REMARK    9  A    between atoms: C_30  and  C_32
REMARK                            x       y       z     vdW  Elec       q    Type
REMARK                         _______ _______ _______ _____ _____    ______ ____
ROOT
ATOM      1  N   UNL     1       2.541  -2.636   0.514  0.00  0.00    -0.251 N 
ATOM      2  C   UNL     1       2.578  -3.490   1.556  0.00  0.00    +0.238 C 
ATOM      3  O   UNL     1       1.545  -3.863   2.072  0.00  0.00    -0.274 OA
ENDROOT
BRANCH   1   4
ATOM      4  C   UNL     1       3.733  -2.205  -0.081  0.00  0.00    +0.073 A 
ATOM      5  C   UNL     1       4.296  -0.991   0.287  0.00  0.00    +0.026 A 
ATOM      6  C   UNL     1       5.473  -0.570  -0.302  0.00  0.00    +0.002 A 
ATOM      7  C   UNL     1       6.091  -1.355  -1.257  0.00  0.00    +0.003 A 
ATOM      8  C   UNL     1       5.534  -2.566  -1.627  0.00  0.00    +0.040 A 
ATOM      9  C   UNL     1       4.359  -2.996  -1.039  0.00  0.00    +0.145 A 
ATOM     10  F   UNL     1       3.817  -4.181  -1.396  0.00  0.00    -0.204 F 
ENDBRANCH   1   4
BRANCH   1  11
ATOM     11  C   UNL     1       1.253  -2.156   0.005  0.00  0.00    +0.200 C 
BRANCH  11  16
ATOM     12  C   UNL     1       0.753   0.165   2.941  0.00  0.00    +0.001 A 
ATOM     13  C   UNL     1      -0.624   0.293   2.961  0.00  0.00    +0.003 A 
ATOM     14  C   UNL     1      -1.394  -0.371   2.026  0.00  0.00    +0.039 A 
ATOM     15  C   UNL     1      -0.787  -1.165   1.067  0.00  0.00    +0.129 A 
ATOM     16  C   UNL     1       0.591  -1.292   1.048  0.00  0.00    +0.017 A 
ATOM     17  C   UNL     1       1.360  -0.627   1.984  0.00  0.00    +0.009 A 
ATOM     18  F   UNL     1      -1.539  -1.814   0.152  0.00  0.00    -0.205 F 
ENDBRANCH  11  16
BRANCH  11  19
ATOM     19  C   UNL     1       1.477  -1.350  -1.248  0.00  0.00    +0.239 C 
ATOM     20  O   UNL     1       2.596  -1.230  -1.700  0.00  0.00    -0.273 OA
ATOM     21  N   UNL     1       0.434  -0.761  -1.865  0.00  0.00    -0.306 N 
ATOM     22  H   UNL     1      -0.461  -0.856  -1.504  0.00  0.00    +0.149 HD
BRANCH  21  23
ATOM     23  C   UNL     1       0.652   0.024  -3.083  0.00  0.00    +0.178 C 
BRANCH  23  24
ATOM     24  C   UNL     1      -0.665   0.570  -3.571  0.00  0.00    +0.122 A 
ATOM     25  C   UNL     1      -1.204   1.752  -3.222  0.00  0.00    +0.046 A 
ATOM     26  C   UNL     1      -2.435   1.860  -3.909  0.00  0.00    +0.041 A 
ATOM     27  C   UNL     1      -2.575   0.737  -4.636  0.00  0.00    +0.195 A 
ATOM     28  O   UNL     1      -1.497  -0.038  -4.433  0.00  0.00    -0.466 OA
ENDBRANCH  23  24
ENDBRANCH  21  23
ENDBRANCH  11  19
ENDBRANCH   1  11
BRANCH   2  29
ATOM     29  C   UNL     1       3.902  -3.983   2.079  0.00  0.00    +0.201 C 
BRANCH  29  30
ATOM     30  N   UNL     1       3.674  -4.893   3.204  0.00  0.00    -0.302 N 
ATOM     31  C   UNL     1       4.722  -5.460   3.835  0.00  0.00    +0.251 C 
ATOM     32  O   UNL     1       5.857  -5.216   3.470  0.00  0.00    -0.270 OA
ATOM     33  H   UNL     1       2.770  -5.088   3.495  0.00  0.00    +0.150 HD
BRANCH  31  34
ATOM     34  C   UNL     1       4.494  -6.371   4.961  0.00  0.00    +0.074 A 
ATOM     35  C   UNL     1       5.420  -7.055   5.733  0.00  0.00    +0.021 A 
ATOM     36  C   UNL     1       4.930  -7.850   6.739  0.00  0.00    +0.008 A 
ATOM     37  C   UNL     1       3.586  -7.935   6.922  0.00  0.00    +0.046 A 
ATOM     38  S   UNL     1       2.952  -6.894   5.690  0.00  0.00    -0.092 S 
ENDBRANCH  31  34
ENDBRANCH  29  30
ENDBRANCH   2  29
TORSDOF 9
