REMARK  Name = ZINC61820166
REMARK  3 active torsions:
REMARK  status: ('A' for Active; 'I' for Inactive)
REMARK    1  A    between atoms: C_4  and  N_11
REMARK    2  A    between atoms: C_5  and  C_7
REMARK    3  A    between atoms: N_8  and  O_9
REMARK                            x       y       z     vdW  Elec       q    Type
REMARK                         _______ _______ _______ _____ _____    ______ ____
ROOT
ATOM      1  C   UNL     1      -0.040   1.293  -0.319  0.00  0.00    +0.131 A 
ATOM      2  C   UNL     1       0.492   1.060   0.938  0.00  0.00    +0.132 A 
ATOM      3  N   UNL     1       1.681   0.497   1.066  0.00  0.00    -0.237 NA
ATOM      4  C   UNL     1       2.370   0.151  -0.014  0.00  0.00    +0.150 A 
ATOM      5  C   UNL     1       1.830   0.386  -1.288  0.00  0.00    +0.146 A 
ATOM      6  N   UNL     1       0.634   0.953  -1.401  0.00  0.00    -0.247 NA
ENDROOT
BRANCH   4   7
ATOM      7  N   UNL     1       3.617  -0.440   0.116  0.00  0.00    -0.313 N 
ATOM      8  C   UNL     1       3.742  -1.889   0.322  0.00  0.00    +0.107 C 
ATOM      9  C   UNL     1       4.595  -2.139   1.569  0.00  0.00    +0.026 C 
ATOM     10  C   UNL     1       5.932  -1.408   1.423  0.00  0.00    -0.026 C 
ATOM     11  C   UNL     1       6.799  -1.681   2.654  0.00  0.00    +0.007 C 
ATOM     12  C   UNL     1       7.051  -3.185   2.777  0.00  0.00    +0.001 C 
ATOM     13  C   UNL     1       7.772  -3.685   1.523  0.00  0.00    +0.000 C 
ATOM     14  C   UNL     1       6.905  -3.412   0.293  0.00  0.00    +0.001 C 
ATOM     15  C   UNL     1       6.653  -1.908   0.170  0.00  0.00    +0.007 C 
ATOM     16  C   UNL     1       5.682   0.097   1.301  0.00  0.00    +0.026 C 
ATOM     17  C   UNL     1       4.841   0.371   0.044  0.00  0.00    +0.107 C 
ENDBRANCH   4   7
BRANCH   5  18
ATOM     18  C   UNL     1       2.589   0.004  -2.499  0.00  0.00    +0.184 C 
ATOM     19  N   UNL     1       2.154   0.350  -3.676  0.00  0.00    -0.070 NA
ATOM     20  N   UNL     1       3.764  -0.721  -2.381  0.00  0.00    -0.339 N 
ATOM     21  H   UNL     1       4.123  -0.921  -1.502  0.00  0.00    +0.144 HD
ATOM     22  H   UNL     1       4.226  -1.029  -3.176  0.00  0.00    +0.144 HD
BRANCH  19  23
ATOM     23  O   UNL     1       1.020   1.190  -3.792  0.00  0.00    -0.408 OA
ATOM     24  H   UNL     1       0.726   1.330  -4.703  0.00  0.00    +0.328 HD
ENDBRANCH  19  23
ENDBRANCH   5  18
TORSDOF 3
