REMARK  Name = ZINC21816263
REMARK  5 active torsions:
REMARK  status: ('A' for Active; 'I' for Inactive)
REMARK    1  A    between atoms: C_1  and  C_2
REMARK    2  A    between atoms: C_7  and  C_21
REMARK    3  A    between atoms: N_9  and  S_10
REMARK    4  A    between atoms: S_10  and  C_13
REMARK    5  A    between atoms: C_18  and  N_19
REMARK                            x       y       z     vdW  Elec       q    Type
REMARK                         _______ _______ _______ _____ _____    ______ ____
ROOT
ATOM      1  S   UNL     1      -1.380   0.857  -2.123  0.00  0.00    +0.063 S 
ATOM      2  O   UNL     1      -0.487   1.020  -3.216  0.00  0.00    -0.153 OA
ATOM      3  O   UNL     1      -1.596  -0.399  -1.496  0.00  0.00    -0.153 OA
ENDROOT
BRANCH   1  10
ATOM      4  C   UNL     1      -0.836   3.572  -2.728  0.00  0.00    +0.026 C 
ATOM      5  C   UNL     1      -0.669   3.322  -1.228  0.00  0.00    +0.077 C 
ATOM      6  C   UNL     1       0.747   3.717  -0.797  0.00  0.00    +0.020 C 
ATOM      7  C   UNL     1       0.953   3.339   0.672  0.00  0.00    +0.003 C 
ATOM      8  C   UNL     1       0.802   1.825   0.837  0.00  0.00    +0.020 C 
ATOM      9  C   UNL     1      -0.614   1.409   0.424  0.00  0.00    +0.077 C 
ATOM     10  N   UNL     1      -0.871   1.896  -0.938  0.00  0.00    -0.171 NA
ATOM     11  C   UNL     1      -0.729  -0.116   0.454  0.00  0.00    +0.026 C 
ENDBRANCH   1  10
BRANCH   1  12
ATOM     12  C   UNL     1      -2.955   1.425  -2.672  0.00  0.00    +0.126 A 
ATOM     13  C   UNL     1      -3.126   1.831  -3.981  0.00  0.00    +0.032 A 
ATOM     14  C   UNL     1      -4.363   2.272  -4.414  0.00  0.00    +0.022 A 
ATOM     15  C   UNL     1      -5.431   2.317  -3.535  0.00  0.00    +0.043 A 
ATOM     16  C   UNL     1      -5.266   1.917  -2.223  0.00  0.00    +0.044 A 
ATOM     17  C   UNL     1      -4.025   1.469  -1.787  0.00  0.00    +0.053 A 
ATOM     18 CL   UNL     1      -6.981   2.877  -4.082  0.00  0.00    -0.083 Cl
BRANCH  17  19
ATOM     19  N   UNL     1      -3.854   1.064  -0.461  0.00  0.00    -0.356 N 
ATOM     20  H   UNL     1      -4.702   1.099   0.239  0.00  0.00    +0.142 HD
ATOM     21  H   UNL     1      -2.871   0.709  -0.117  0.00  0.00    +0.142 HD
ENDBRANCH  17  19
ENDBRANCH   1  12
TORSDOF 3
