REMARK  Name = ZINC67160900
REMARK  8 active torsions:
REMARK  status: ('A' for Active; 'I' for Inactive)
REMARK    1  A    between atoms: C_2  and  C_10
REMARK    2  A    between atoms: C_10  and  C_11
REMARK    3  A    between atoms: C_11  and  N_12
REMARK    4  A    between atoms: C_13  and  C_15
REMARK    5  A    between atoms: C_15  and  C_16
REMARK    6  A    between atoms: C_16  and  C_17
REMARK    7  A    between atoms: C_17  and  C_18
REMARK    8  A    between atoms: C_18  and  C_19
REMARK                            x       y       z     vdW  Elec       q    Type
REMARK                         _______ _______ _______ _____ _____    ______ ____
ROOT
ATOM      1  N   UNL     1       2.269   5.099   1.443  0.00  0.00    -0.315 N 
ATOM      2  C   UNL     1       2.397   5.764   2.608  0.00  0.00    +0.213 C 
ATOM      3  O   UNL     1       2.128   5.213   3.654  0.00  0.00    -0.276 OA
ATOM      4  H   UNL     1       2.484   5.540   0.607  0.00  0.00    +0.149 HD
ENDROOT
BRANCH   1   5
ATOM      5  C   UNL     1       1.804   3.709   1.441  0.00  0.00    +0.110 C 
BRANCH   5   6
ATOM      6  C   UNL     1       1.748   3.193   0.002  0.00  0.00    +0.073 C 
BRANCH   6   8
ATOM      7  C   UNL     1      -0.016   1.359   0.009  0.00  0.00    +0.108 A 
ATOM      8  C   UNL     1       1.270   1.764  -0.001  0.00  0.00    +0.035 A 
ATOM      9  N   UNL     1       2.050   0.671  -0.014  0.00  0.00    -0.347 N 
ATOM     10  C   UNL     1       1.300  -0.391  -0.011  0.00  0.00    +0.087 A 
ATOM     11  N   UNL     1       0.002  -0.004   0.002  0.00  0.00    -0.336 N 
ATOM     12  C   UNL     1      -1.143  -0.917   0.007  0.00  0.00    +0.123 C 
ATOM     13  C   UNL     1      -0.669  -2.307  -0.431  0.00  0.00    +0.022 C 
ATOM     14  C   UNL     1       0.560  -2.710   0.389  0.00  0.00    +0.009 C 
ATOM     15  C   UNL     1       1.750  -1.833  -0.021  0.00  0.00    +0.072 C 
ATOM     16  H   UNL     1       3.020   0.673  -0.023  0.00  0.00    +0.167 HD
ENDBRANCH   6   8
ENDBRANCH   5   6
ENDBRANCH   1   5
BRANCH   2  17
ATOM     17  C   UNL     1       2.875   7.194   2.611  0.00  0.00    +0.096 C 
BRANCH  17  18
ATOM     18  C   UNL     1       2.931   7.710   4.050  0.00  0.00    +0.009 C 
BRANCH  18  19
ATOM     19  C   UNL     1       3.417   9.161   4.052  0.00  0.00    +0.002 C 
BRANCH  19  20
ATOM     20  C   UNL     1       3.473   9.678   5.491  0.00  0.00    +0.016 C 
BRANCH  20  21
ATOM     21  C   UNL     1       3.958  11.129   5.494  0.00  0.00    +0.069 C 
ATOM     22  C   UNL     1       3.987  11.701   6.927  0.00  0.00    +0.108 C 
ATOM     23  C   UNL     1       5.196  12.599   7.207  0.00  0.00    +0.105 C 
ATOM     24  C   UNL     1       6.141  12.761   5.997  0.00  0.00    +0.093 C 
ATOM     25  S   UNL     1       5.739  11.232   5.022  0.00  0.00    -0.154 S 
ATOM     26  N   UNL     1       4.604  13.908   7.523  0.00  0.00    -0.294 N 
ATOM     27  C   UNL     1       3.269  13.813   7.447  0.00  0.00    +0.300 C 
ATOM     28  O   UNL     1       2.524  14.750   7.660  0.00  0.00    -0.253 OA
ATOM     29  N   UNL     1       2.836  12.599   7.110  0.00  0.00    -0.294 N 
ATOM     30  H   UNL     1       5.099  14.710   7.751  0.00  0.00    +0.151 HD
ATOM     31  H   UNL     1       1.905  12.350   7.005  0.00  0.00    +0.151 HD
ENDBRANCH  20  21
ENDBRANCH  19  20
ENDBRANCH  18  19
ENDBRANCH  17  18
ENDBRANCH   2  17
TORSDOF 8
