REMARK  Name = ZINC36218090
REMARK  7 active torsions:
REMARK  status: ('A' for Active; 'I' for Inactive)
REMARK    1  A    between atoms: C_4  and  C_7
REMARK    2  A    between atoms: N_9  and  C_10
REMARK    3  A    between atoms: C_14  and  C_16
REMARK    4  A    between atoms: C_18  and  C_32
REMARK    5  A    between atoms: N_20  and  C_24
REMARK    6  A    between atoms: C_24  and  C_25
REMARK    7  A    between atoms: N_34  and  C_35
REMARK                            x       y       z     vdW  Elec       q    Type
REMARK                         _______ _______ _______ _____ _____    ______ ____
ROOT
ATOM      1  C   UNL     1       6.374  -6.164   0.066  0.00  0.00    +0.238 C 
ATOM      2  C   UNL     1       6.818  -6.675  -1.325  0.00  0.00    +0.211 C 
ATOM      3  N   UNL     1       7.694  -7.811  -0.975  0.00  0.00    -0.248 N 
ATOM      4  C   UNL     1       7.987  -7.714   0.335  0.00  0.00    +0.405 C 
ATOM      5  O   UNL     1       8.672  -8.522   0.932  0.00  0.00    -0.226 OA
ATOM      6  O   UNL     1       7.442  -6.631   0.914  0.00  0.00    -0.440 OA
ENDROOT
BRANCH   1  11
ATOM      7  C   UNL     1       4.981  -2.650   0.034  0.00  0.00    +0.034 A 
ATOM      8  C   UNL     1       6.144  -1.894   0.121  0.00  0.00    +0.023 A 
ATOM      9  C   UNL     1       7.371  -2.523   0.191  0.00  0.00    +0.002 A 
ATOM     10  C   UNL     1       7.444  -3.904   0.173  0.00  0.00    +0.007 A 
ATOM     11  C   UNL     1       6.289  -4.660   0.086  0.00  0.00    -0.003 A 
ATOM     12  C   UNL     1       5.058  -4.037   0.023  0.00  0.00    +0.030 A 
BRANCH   7  15
ATOM     13  C   UNL     1       2.664  -2.570   0.563  0.00  0.00    +0.248 C 
ATOM     14  O   UNL     1       2.758  -3.661   1.092  0.00  0.00    -0.270 OA
ATOM     15  N   UNL     1       3.737  -2.017  -0.036  0.00  0.00    -0.281 N 
ATOM     16  H   UNL     1       3.646  -1.179  -0.516  0.00  0.00    +0.155 HD
BRANCH  13  20
ATOM     17  C   UNL     1      -1.047  -0.504   0.604  0.00  0.00    +0.000 A 
ATOM     18  C   UNL     1      -0.943  -1.746   1.206  0.00  0.00    +0.001 A 
ATOM     19  C   UNL     1       0.259  -2.422   1.196  0.00  0.00    +0.013 A 
ATOM     20  C   UNL     1       1.372  -1.851   0.577  0.00  0.00    +0.037 A 
ATOM     21  C   UNL     1       1.261  -0.599  -0.029  0.00  0.00    +0.013 A 
ATOM     22  C   UNL     1       0.052   0.067  -0.012  0.00  0.00    +0.001 A 
ENDBRANCH  13  20
ENDBRANCH   7  15
ENDBRANCH   1  11
BRANCH   2  23
ATOM     23  C   UNL     1       7.584  -5.610  -2.067  0.00  0.00    +0.242 C 
ATOM     24  O   UNL     1       8.796  -5.644  -2.097  0.00  0.00    -0.273 OA
ATOM     25  N   UNL     1       6.922  -4.620  -2.698  0.00  0.00    -0.284 N 
ATOM     26  H   UNL     1       5.957  -4.554  -2.618  0.00  0.00    +0.155 HD
BRANCH  25  27
ATOM     27  C   UNL     1       7.625  -3.688  -3.469  0.00  0.00    +0.033 A 
ATOM     28  C   UNL     1       7.055  -3.167  -4.623  0.00  0.00    +0.023 A 
ATOM     29  C   UNL     1       7.753  -2.248  -5.382  0.00  0.00    +0.002 A 
ATOM     30  C   UNL     1       9.017  -1.845  -4.993  0.00  0.00    +0.000 A 
ATOM     31  C   UNL     1       9.588  -2.362  -3.845  0.00  0.00    +0.002 A 
ATOM     32  C   UNL     1       8.893  -3.277  -3.078  0.00  0.00    +0.023 A 
ENDBRANCH  25  27
ENDBRANCH   2  23
BRANCH   3  33
ATOM     33  C   UNL     1       8.161  -8.855  -1.891  0.00  0.00    +0.147 C 
BRANCH  33  34
ATOM     34  C   UNL     1       9.463  -8.429  -2.518  0.00  0.00    -0.030 A 
ATOM     35  C   UNL     1       9.459  -7.711  -3.699  0.00  0.00    +0.008 A 
ATOM     36  C   UNL     1      10.652  -7.319  -4.274  0.00  0.00    +0.038 A 
ATOM     37  C   UNL     1      11.853  -7.645  -3.667  0.00  0.00    +0.123 A 
ATOM     38  C   UNL     1      11.856  -8.364  -2.484  0.00  0.00    +0.038 A 
ATOM     39  C   UNL     1      10.661  -8.751  -1.908  0.00  0.00    +0.008 A 
ATOM     40  F   UNL     1      13.021  -7.263  -4.229  0.00  0.00    -0.205 F 
ENDBRANCH  33  34
ENDBRANCH   3  33
TORSDOF 7
