REMARK  Name = ZINC13865323
REMARK  9 active torsions:
REMARK  status: ('A' for Active; 'I' for Inactive)
REMARK    1  A    between atoms: C_1  and  O_2
REMARK    2  A    between atoms: O_2  and  C_3
REMARK    3  A    between atoms: C_6  and  C_9
REMARK    4  A    between atoms: C_19  and  C_21
REMARK    5  A    between atoms: C_24  and  O_27
REMARK    6  A    between atoms: O_27  and  C_28
REMARK    7  A    between atoms: C_29  and  C_31
REMARK    8  A    between atoms: C_31  and  S_32
REMARK    9  A    between atoms: S_32  and  C_33
REMARK                            x       y       z     vdW  Elec       q    Type
REMARK                         _______ _______ _______ _____ _____    ______ ____
ROOT
ATOM      1  C   UNL     1      -4.954  -2.615   0.035  0.00  0.00    +0.013 C 
ATOM      2  C   UNL     1      -5.009  -3.959  -0.068  0.00  0.00    -0.024 C 
ATOM      3  C   UNL     1      -3.737  -4.752  -0.072  0.00  0.00    +0.037 C 
ATOM      4  C   UNL     1      -3.940  -6.253  -0.033  0.00  0.00    +0.005 C 
ATOM      5  C   UNL     1      -5.203  -6.715  -0.756  0.00  0.00    +0.012 C 
ATOM      6  C   UNL     1      -6.411  -6.112  -0.037  0.00  0.00    +0.066 C 
ATOM      7  C   UNL     1      -6.266  -4.599  -0.165  0.00  0.00    +0.068 C 
ATOM      8  N   UNL     1      -7.434  -4.104  -0.389  0.00  0.00    -0.181 NA
ATOM      9  N   UNL     1      -8.410  -5.072  -0.654  0.00  0.00    -0.184 N 
ATOM     10  C   UNL     1      -7.724  -6.391  -0.789  0.00  0.00    +0.140 C 
ATOM     11  C   UNL     1      -9.735  -4.854  -0.769  0.00  0.00    +0.246 C 
ATOM     12  O   UNL     1     -10.484  -5.780  -1.001  0.00  0.00    -0.273 OA
ENDROOT
BRANCH   1  16
ATOM     13  C   UNL     1      -1.212  -0.623  -0.162  0.00  0.00    +0.120 A 
ATOM     14  C   UNL     1      -1.498  -1.650  -1.053  0.00  0.00    +0.046 A 
ATOM     15  C   UNL     1      -2.711  -2.300  -0.993  0.00  0.00    +0.011 A 
ATOM     16  C   UNL     1      -3.656  -1.924  -0.033  0.00  0.00    -0.024 A 
ATOM     17  C   UNL     1      -3.364  -0.890   0.863  0.00  0.00    +0.011 A 
ATOM     18  C   UNL     1      -2.146  -0.250   0.798  0.00  0.00    +0.046 A 
BRANCH  13  20
ATOM     19  C   UNL     1       0.899  -0.418  -1.235  0.00  0.00    +0.277 C 
ATOM     20  O   UNL     1      -0.015   0.015  -0.225  0.00  0.00    -0.495 OA
ENDBRANCH  13  20
ENDBRANCH   1  16
BRANCH  10  21
ATOM     21  C   UNL     1      -7.459  -6.731  -2.233  0.00  0.00    -0.024 A 
ATOM     22  C   UNL     1      -7.207  -5.723  -3.145  0.00  0.00    +0.009 A 
ATOM     23  C   UNL     1      -6.964  -6.032  -4.469  0.00  0.00    +0.046 A 
ATOM     24  C   UNL     1      -6.972  -7.356  -4.883  0.00  0.00    +0.120 A 
ATOM     25  C   UNL     1      -7.224  -8.366  -3.966  0.00  0.00    +0.046 A 
ATOM     26  C   UNL     1      -7.462  -8.052  -2.642  0.00  0.00    +0.009 A 
BRANCH  24  27
ATOM     27  O   UNL     1      -6.733  -7.663  -6.186  0.00  0.00    -0.495 OA
ATOM     28  C   UNL     1      -6.757  -9.047  -6.541  0.00  0.00    +0.277 C 
ENDBRANCH  24  27
ENDBRANCH  10  21
BRANCH  11  29
ATOM     29  C   UNL     1     -10.286  -3.461  -0.610  0.00  0.00    +0.175 C 
BRANCH  29  30
ATOM     30  S   UNL     1     -12.088  -3.495  -0.819  0.00  0.00    -0.075 S 
BRANCH  30  31
ATOM     31  C   UNL     1     -12.574  -1.815  -0.607  0.00  0.00    +0.210 A 
ATOM     32  N   UNL     1     -13.829  -1.355  -0.670  0.00  0.00    -0.188 NA
ATOM     33  C   UNL     1     -13.834  -0.055  -0.465  0.00  0.00    +0.209 A 
ATOM     34  N   UNL     1     -12.559   0.341  -0.265  0.00  0.00    -0.246 N 
ATOM     35  H   UNL     1     -12.253   1.244  -0.088  0.00  0.00    +0.192 HD
ATOM     36  N   UNL     1     -11.765  -0.814  -0.356  0.00  0.00    -0.144 NA
ATOM     37  N   UNL     1     -14.949   0.762  -0.458  0.00  0.00    -0.328 N 
ATOM     38  H   UNL     1     -15.829   0.384  -0.613  0.00  0.00    +0.145 HD
ATOM     39  H   UNL     1     -14.852   1.714  -0.297  0.00  0.00    +0.145 HD
ENDBRANCH  30  31
ENDBRANCH  29  30
ENDBRANCH  11  29
TORSDOF 7
