REMARK  Name = ZINC24769769
REMARK  5 active torsions:
REMARK  status: ('A' for Active; 'I' for Inactive)
REMARK    1  A    between atoms: C_1  and  C_2
REMARK    2  A    between atoms: N_11  and  C_15
REMARK    3  A    between atoms: C_15  and  C_16
REMARK    4  A    between atoms: N_18  and  C_19
REMARK    5  A    between atoms: C_23  and  N_25
REMARK                            x       y       z     vdW  Elec       q    Type
REMARK                         _______ _______ _______ _____ _____    ______ ____
ROOT
ATOM      1  C   UNL     1      -2.949   0.536   5.584  0.00  0.00    +0.235 C 
ATOM      2  O   UNL     1      -1.766   0.707   5.382  0.00  0.00    -0.274 OA
ATOM      3  N   UNL     1      -3.397   0.342   6.840  0.00  0.00    -0.284 N 
ATOM      4  H   UNL     1      -4.478   0.273   7.034  0.00  0.00    +0.155 HD
ENDROOT
BRANCH   3   5
ATOM      5  C   UNL     1      -2.488   0.226   7.897  0.00  0.00    +0.035 A 
ATOM      6  C   UNL     1      -1.249  -0.367   7.687  0.00  0.00    +0.023 A 
ATOM      7  C   UNL     1      -0.349  -0.477   8.729  0.00  0.00    +0.004 A 
ATOM      8  C   UNL     1      -0.681  -0.008   9.986  0.00  0.00    +0.023 A 
ATOM      9  C   UNL     1      -1.921   0.581  10.203  0.00  0.00    +0.038 A 
ATOM     10  C   UNL     1      -2.825   0.698   9.157  0.00  0.00    +0.046 A 
BRANCH   9  11
ATOM     11  N   UNL     1      -2.257   1.055  11.476  0.00  0.00    -0.271 N 
ATOM     12  C   UNL     1      -1.334   1.090  12.617  0.00  0.00    +0.114 C 
ATOM     13  C   UNL     1      -2.229   1.261  13.865  0.00  0.00    +0.029 C 
ATOM     14  C   UNL     1      -3.477   1.950  13.266  0.00  0.00    +0.098 C 
ATOM     15  C   UNL     1      -3.464   1.543  11.809  0.00  0.00    +0.220 C 
ATOM     16  O   UNL     1      -4.407   1.640  11.053  0.00  0.00    -0.275 OA
ENDBRANCH   9  11
ENDBRANCH   3   5
BRANCH   1  17
ATOM     17  C   UNL     1      -3.919   0.542   4.430  0.00  0.00    +0.214 C 
BRANCH  17  27
ATOM     18  C   UNL     1      -0.036   1.823   2.657  0.00  0.00    +0.010 C 
ATOM     19  C   UNL     1      -0.799   2.385   1.457  0.00  0.00    +0.018 C 
ATOM     20  C   UNL     1      -0.022   2.086   0.172  0.00  0.00    +0.006 C 
ATOM     21  C   UNL     1      -0.797   2.631  -1.030  0.00  0.00    +0.000 C 
ATOM     22  C   UNL     1      -2.168   1.956  -1.105  0.00  0.00    +0.003 C 
ATOM     23  C   UNL     1      -2.953   2.256   0.175  0.00  0.00    +0.035 C 
ATOM     24  C   UNL     1      -2.178   1.737   1.381  0.00  0.00    +0.115 C 
ATOM     25  C   UNL     1      -2.950   1.991   2.655  0.00  0.00    +0.247 C 
ATOM     26  O   UNL     1      -3.285   3.064   3.109  0.00  0.00    -0.273 OA
ATOM     27  N   UNL     1      -3.190   0.771   3.180  0.00  0.00    -0.215 N 
ATOM     28  C   UNL     1      -2.678  -0.203   2.418  0.00  0.00    +0.310 C 
ATOM     29  O   UNL     1      -2.765  -1.386   2.684  0.00  0.00    -0.252 OA
ATOM     30  N   UNL     1      -2.055   0.275   1.324  0.00  0.00    -0.285 N 
ATOM     31  H   UNL     1      -1.527  -0.201   0.484  0.00  0.00    +0.151 HD
ENDBRANCH  17  27
ENDBRANCH   1  17
TORSDOF 4
