REMARK  Name = ZINC44784609
REMARK  5 active torsions:
REMARK  status: ('A' for Active; 'I' for Inactive)
REMARK    1  A    between atoms: C_1  and  C_2
REMARK    2  A    between atoms: C_5  and  N_8
REMARK    3  A    between atoms: C_9  and  C_11
REMARK    4  A    between atoms: C_11  and  C_18
REMARK    5  A    between atoms: N_19  and  O_20
REMARK                            x       y       z     vdW  Elec       q    Type
REMARK                         _______ _______ _______ _____ _____    ______ ____
ROOT
ATOM      1  C   UNL     1      -0.419  -6.214   2.318  0.00  0.00    +0.105 C 
ATOM      2  C   UNL     1      -1.653  -6.782   1.671  0.00  0.00    +0.024 C 
ATOM      3  C   UNL     1      -2.881  -5.866   1.840  0.00  0.00    +0.001 C 
ATOM      4  C   UNL     1      -2.985  -5.259   3.252  0.00  0.00    +0.000 C 
ATOM      5  C   UNL     1      -2.659  -6.255   4.332  0.00  0.00    +0.000 C 
ATOM      6  C   UNL     1      -1.166  -6.116   4.693  0.00  0.00    +0.001 C 
ATOM      7  C   UNL     1      -0.299  -6.796   3.741  0.00  0.00    +0.024 C 
ENDROOT
BRANCH   1   8
ATOM      8  C   UNL     1       0.798  -6.592   1.513  0.00  0.00    +0.147 C 
ATOM      9  N   UNL     1       1.690  -7.376   2.020  0.00  0.00    -0.076 NA
ATOM     10  N   UNL     1       0.959  -6.100   0.237  0.00  0.00    -0.343 N 
ATOM     11  H   UNL     1       0.256  -5.571  -0.172  0.00  0.00    +0.144 HD
ATOM     12  H   UNL     1       1.775  -6.283  -0.254  0.00  0.00    +0.144 HD
BRANCH   9  13
ATOM     13  O   UNL     1       2.833  -7.731   1.264  0.00  0.00    -0.408 OA
ATOM     14  H   UNL     1       3.443  -8.322   1.727  0.00  0.00    +0.328 HD
ENDBRANCH   9  13
ENDBRANCH   1   8
BRANCH   1  16
ATOM     15  N   UNL     1       0.158  -4.032   3.329  0.00  0.00    -0.312 N 
ATOM     16  C   UNL     1      -0.531  -4.713   2.392  0.00  0.00    +0.227 C 
ATOM     17  O   UNL     1      -1.241  -4.118   1.609  0.00  0.00    -0.275 OA
ATOM     18  H   UNL     1       0.671  -4.511   3.998  0.00  0.00    +0.149 HD
BRANCH  15  23
ATOM     19  C   UNL     1       0.106   1.506   4.800  0.00  0.00    +0.007 C 
ATOM     20  C   UNL     1       0.133  -0.024   4.792  0.00  0.00    -0.014 C 
ATOM     21  C   UNL     1       1.367  -0.508   4.027  0.00  0.00    +0.005 C 
ATOM     22  C   UNL     1       1.394  -2.038   4.019  0.00  0.00    +0.022 C 
ATOM     23  C   UNL     1       0.131  -2.567   3.337  0.00  0.00    +0.073 C 
ATOM     24  C   UNL     1      -1.102  -2.083   4.102  0.00  0.00    +0.022 C 
ATOM     25  C   UNL     1      -1.130  -0.553   4.110  0.00  0.00    +0.005 C 
ENDBRANCH  15  23
ENDBRANCH   1  16
TORSDOF 4
