REMARK  Name = ZINC04236425
REMARK  9 active torsions:
REMARK  status: ('A' for Active; 'I' for Inactive)
REMARK    1  A    between atoms: C_1  and  O_2
REMARK    2  A    between atoms: O_2  and  C_3
REMARK    3  A    between atoms: C_6  and  C_9
REMARK    4  A    between atoms: C_22  and  N_27
REMARK    5  A    between atoms: N_30  and  C_31
REMARK    6  A    between atoms: C_33  and  O_39
REMARK    7  A    between atoms: C_35  and  O_37
REMARK    8  A    between atoms: O_37  and  C_38
REMARK    9  A    between atoms: O_39  and  C_40
REMARK                            x       y       z     vdW  Elec       q    Type
REMARK                         _______ _______ _______ _____ _____    ______ ____
ROOT
ATOM      1  C   UNL     1       5.802   1.964  -3.955  0.00  0.00    +0.247 C 
ATOM      2  O   UNL     1       5.317   0.997  -4.511  0.00  0.00    -0.270 OA
ATOM      3  N   UNL     1       6.543   1.799  -2.841  0.00  0.00    -0.297 N 
ATOM      4  C   UNL     1       7.229   2.938  -2.221  0.00  0.00    +0.113 C 
ATOM      5  C   UNL     1       6.917   2.994  -0.732  0.00  0.00    +0.027 C 
ATOM      6  C   UNL     1       7.149   1.635  -0.071  0.00  0.00    +0.018 C 
ATOM      7  C   UNL     1       6.245   0.604  -0.752  0.00  0.00    +0.054 C 
ATOM      8  C   UNL     1       6.683   0.472  -2.220  0.00  0.00    +0.117 C 
ATOM      9  C   UNL     1       4.815   1.094  -0.741  0.00  0.00    +0.027 A 
ATOM     10  C   UNL     1       3.833   0.157  -0.799  0.00  0.00    +0.024 A 
ATOM     11  C   UNL     1       2.492   0.536  -0.924  0.00  0.00    +0.030 A 
ATOM     12  C   UNL     1       2.188   1.868  -1.006  0.00  0.00    +0.100 A 
ATOM     13  C   UNL     1       3.230   2.813  -0.942  0.00  0.00    +0.273 A 
ATOM     14  O   UNL     1       2.979   4.000  -1.074  0.00  0.00    -0.266 OA
ATOM     15  N   UNL     1       4.509   2.414  -0.729  0.00  0.00    -0.310 N 
ATOM     16  C   UNL     1       5.497   3.461  -0.467  0.00  0.00    +0.130 C 
ENDROOT
BRANCH   1  20
ATOM     17  C   UNL     1       5.162   5.858  -5.522  0.00  0.00    +0.120 A 
ATOM     18  C   UNL     1       6.441   5.464  -5.147  0.00  0.00    +0.046 A 
ATOM     19  C   UNL     1       6.653   4.202  -4.638  0.00  0.00    +0.016 A 
ATOM     20  C   UNL     1       5.580   3.317  -4.500  0.00  0.00    +0.037 A 
ATOM     21  C   UNL     1       4.296   3.716  -4.883  0.00  0.00    +0.016 A 
ATOM     22  C   UNL     1       4.092   4.981  -5.386  0.00  0.00    +0.046 A 
BRANCH  17  24
ATOM     23  C   UNL     1       3.618   7.443  -6.388  0.00  0.00    +0.277 C 
ATOM     24  O   UNL     1       4.957   7.103  -6.023  0.00  0.00    -0.495 OA
ENDBRANCH  17  24
ENDBRANCH   1  20
BRANCH  12  25
ATOM     25  N   UNL     1       0.858   2.285  -1.158  0.00  0.00    -0.265 N 
ATOM     26  C   UNL     1       0.313   3.137  -0.267  0.00  0.00    +0.308 C 
ATOM     27  O   UNL     1       0.946   3.478   0.714  0.00  0.00    -0.252 OA
ATOM     28  N   UNL     1      -0.935   3.607  -0.460  0.00  0.00    -0.269 N 
ATOM     29  H   UNL     1       0.330   1.961  -1.904  0.00  0.00    +0.157 HD
ATOM     30  H   UNL     1      -1.467   3.281  -1.203  0.00  0.00    +0.156 HD
BRANCH  28  31
ATOM     31  C   UNL     1      -1.465   4.564   0.413  0.00  0.00    +0.042 A 
ATOM     32  C   UNL     1      -1.104   4.558   1.753  0.00  0.00    +0.069 A 
ATOM     33  C   UNL     1      -1.626   5.509   2.616  0.00  0.00    +0.125 A 
ATOM     34  C   UNL     1      -2.516   6.461   2.142  0.00  0.00    +0.091 A 
ATOM     35  C   UNL     1      -2.882   6.464   0.804  0.00  0.00    +0.125 A 
ATOM     36  C   UNL     1      -2.357   5.516  -0.061  0.00  0.00    +0.069 A 
BRANCH  35  37
ATOM     37  O   UNL     1      -3.755   7.397   0.341  0.00  0.00    -0.495 OA
ATOM     38  C   UNL     1      -4.257   8.343   1.287  0.00  0.00    +0.277 C 
ENDBRANCH  35  37
BRANCH  33  39
ATOM     39  O   UNL     1      -1.268   5.507   3.927  0.00  0.00    -0.495 OA
ATOM     40  C   UNL     1      -1.849   6.513   4.760  0.00  0.00    +0.277 C 
ENDBRANCH  33  39
ENDBRANCH  28  31
ENDBRANCH  12  25
TORSDOF 6
