REMARK  Name = ZINC09104733
REMARK  5 active torsions:
REMARK  status: ('A' for Active; 'I' for Inactive)
REMARK    1  A    between atoms: C_1  and  O_2
REMARK    2  A    between atoms: O_2  and  C_3
REMARK    3  A    between atoms: C_8  and  N_9
REMARK    4  A    between atoms: C_10  and  C_12
REMARK    5  A    between atoms: C_23  and  C_25
REMARK                            x       y       z     vdW  Elec       q    Type
REMARK                         _______ _______ _______ _____ _____    ______ ____
ROOT
ATOM      1  C   UNL     1       3.684   1.382  -0.039  0.00  0.00    +0.125 C 
ATOM      2  C   UNL     1       4.427   0.134  -0.519  0.00  0.00    +0.019 C 
ATOM      3  C   UNL     1       4.000  -1.083   0.306  0.00  0.00    +0.006 C 
ATOM      4  C   UNL     1       2.552  -1.444  -0.060  0.00  0.00    +0.044 C 
ATOM      5  C   UNL     1       1.741  -0.193  -0.045  0.00  0.00    +0.015 A 
ATOM      6  C   UNL     1       2.188   1.090  -0.033  0.00  0.00    +0.066 A 
ATOM      7  N   UNL     1       1.251   2.034  -0.018  0.00  0.00    -0.229 NA
ATOM      8  C   UNL     1      -0.035   1.747  -0.014  0.00  0.00    +0.165 A 
ATOM      9  S   UNL     1      -0.020   0.009  -0.034  0.00  0.00    -0.057 S 
ATOM     10  N   UNL     1      -1.122   2.611  -0.004  0.00  0.00    -0.261 N 
ATOM     11  C   UNL     1      -2.376   2.116  -0.008  0.00  0.00    +0.250 C 
ATOM     12  O   UNL     1      -2.555   0.913  -0.021  0.00  0.00    -0.270 OA
ATOM     13  H   UNL     1      -0.980   3.570   0.006  0.00  0.00    +0.157 HD
ENDROOT
BRANCH  11  14
ATOM     14  C   UNL     1      -3.531   3.034   0.003  0.00  0.00    +0.041 A 
ATOM     15  C   UNL     1      -3.328   4.416   0.023  0.00  0.00    +0.017 A 
ATOM     16  C   UNL     1      -4.408   5.271   0.027  0.00  0.00    +0.050 A 
ATOM     17  C   UNL     1      -5.701   4.764   0.023  0.00  0.00    +0.166 A 
ATOM     18  C   UNL     1      -5.911   3.385   0.008  0.00  0.00    +0.167 A 
ATOM     19  C   UNL     1      -4.832   2.523  -0.002  0.00  0.00    +0.062 A 
ATOM     20  O   UNL     1      -7.256   3.149   0.007  0.00  0.00    -0.453 OA
ATOM     21  C   UNL     1      -7.862   4.393  -0.393  0.00  0.00    +0.466 C 
ATOM     22  O   UNL     1      -6.913   5.389   0.031  0.00  0.00    -0.453 OA
ENDBRANCH  11  14
BRANCH   1  24
ATOM     23  N   UNL     1       3.407   3.735  -0.750  0.00  0.00    -0.282 N 
ATOM     24  C   UNL     1       3.971   2.531  -0.971  0.00  0.00    +0.226 C 
ATOM     25  O   UNL     1       4.710   2.372  -1.920  0.00  0.00    -0.275 OA
ATOM     26  H   UNL     1       2.767   3.846  -0.030  0.00  0.00    +0.155 HD
BRANCH  23  32
ATOM     27  C   UNL     1       3.802   6.108  -1.019  0.00  0.00    +0.141 A 
ATOM     28  C   UNL     1       4.143   7.183  -1.824  0.00  0.00    +0.049 A 
ATOM     29  C   UNL     1       4.415   6.985  -3.164  0.00  0.00    +0.024 A 
ATOM     30  C   UNL     1       4.355   5.713  -3.705  0.00  0.00    +0.043 A 
ATOM     31  C   UNL     1       4.021   4.634  -2.907  0.00  0.00    +0.047 A 
ATOM     32  C   UNL     1       3.746   4.826  -1.561  0.00  0.00    +0.077 A 
ATOM     33 CL   UNL     1       4.699   5.471  -5.390  0.00  0.00    -0.083 Cl
BRANCH  27  35
ATOM     34  C   UNL     1       3.604   7.644   0.786  0.00  0.00    +0.277 C 
ATOM     35  O   UNL     1       3.527   6.303   0.299  0.00  0.00    -0.493 OA
ENDBRANCH  27  35
ENDBRANCH  23  32
ENDBRANCH   1  24
TORSDOF 4
