REMARK  Name = ZINC36213837
REMARK  6 active torsions:
REMARK  status: ('A' for Active; 'I' for Inactive)
REMARK    1  A    between atoms: C_1  and  C_2
REMARK    2  A    between atoms: C_5  and  N_8
REMARK    3  A    between atoms: C_14  and  C_17
REMARK    4  A    between atoms: C_17  and  C_19
REMARK    5  A    between atoms: C_17  and  N_27
REMARK    6  A    between atoms: C_28  and  C_30
REMARK                            x       y       z     vdW  Elec       q    Type
REMARK                         _______ _______ _______ _____ _____    ______ ____
ROOT
ATOM      1  C   UNL     1       2.859  -9.666   1.152  0.00  0.00    +0.162 C 
ENDROOT
BRANCH   1   8
ATOM      2  N   UNL     1       1.801  -3.633  -0.030  0.00  0.00    -0.269 N 
ATOM      3  C   UNL     1       1.987  -4.285   1.135  0.00  0.00    +0.306 C 
ATOM      4  O   UNL     1       2.455  -3.699   2.092  0.00  0.00    -0.252 OA
ATOM      5  N   UNL     1       1.652  -5.586   1.240  0.00  0.00    -0.285 N 
ATOM      6  C   UNL     1       1.236  -6.350   0.056  0.00  0.00    +0.109 C 
ATOM      7  C   UNL     1       2.104  -7.608  -0.048  0.00  0.00    +0.025 C 
ATOM      8  C   UNL     1       2.021  -8.390   1.265  0.00  0.00    +0.021 C 
ATOM      9  C   UNL     1       2.558  -7.527   2.409  0.00  0.00    +0.025 C 
ATOM     10  C   UNL     1       1.702  -6.269   2.540  0.00  0.00    +0.109 C 
ATOM     11  H   UNL     1       1.339  -4.070  -0.762  0.00  0.00    +0.156 HD
BRANCH   2  16
ATOM     12  C   UNL     1       3.725   1.668  -0.653  0.00  0.00    +0.044 C 
ATOM     13  C   UNL     1       3.214   0.260  -0.487  0.00  0.00    -0.050 A 
ATOM     14  C   UNL     1       3.080  -0.560  -1.593  0.00  0.00    +0.005 A 
ATOM     15  C   UNL     1       2.612  -1.851  -1.444  0.00  0.00    +0.023 A 
ATOM     16  C   UNL     1       2.276  -2.325  -0.183  0.00  0.00    +0.035 A 
ATOM     17  C   UNL     1       2.412  -1.500   0.925  0.00  0.00    +0.023 A 
ATOM     18  C   UNL     1       2.886  -0.212   0.771  0.00  0.00    +0.005 A 
ENDBRANCH   2  16
ENDBRANCH   1   8
BRANCH   1  19
ATOM     19  C   UNL     1       2.813 -10.414   2.459  0.00  0.00    +0.236 C 
ATOM     20  O   UNL     1       1.904 -11.186   2.684  0.00  0.00    -0.274 OA
ATOM     21  N   UNL     1       3.780 -10.226   3.378  0.00  0.00    -0.300 N 
ATOM     22  C   UNL     1       4.783  -9.167   3.203  0.00  0.00    +0.108 C 
ATOM     23  C   UNL     1       4.801  -8.292   4.460  0.00  0.00    +0.019 C 
ATOM     24  C   UNL     1       5.028  -9.175   5.689  0.00  0.00    +0.003 C 
ATOM     25  C   UNL     1       3.881 -10.180   5.816  0.00  0.00    +0.019 C 
ATOM     26  C   UNL     1       3.849 -11.073   4.577  0.00  0.00    +0.108 C 
ENDBRANCH   1  19
BRANCH   1  27
ATOM     27  N   UNL     1       2.319 -10.512   0.085  0.00  0.00    -0.299 N 
ATOM     28  C   UNL     1       1.050 -10.961   0.159  0.00  0.00    +0.251 C 
ATOM     29  O   UNL     1       0.353 -10.663   1.111  0.00  0.00    -0.270 OA
ATOM     30  H   UNL     1       2.874 -10.749  -0.674  0.00  0.00    +0.150 HD
BRANCH  28  31
ATOM     31  C   UNL     1       0.509 -11.808  -0.909  0.00  0.00    +0.074 A 
ATOM     32  C   UNL     1      -0.755 -12.363  -1.028  0.00  0.00    +0.021 A 
ATOM     33  C   UNL     1      -0.971 -13.121  -2.154  0.00  0.00    +0.008 A 
ATOM     34  C   UNL     1       0.036 -13.273  -3.049  0.00  0.00    +0.046 A 
ATOM     35  S   UNL     1       1.304 -12.386  -2.396  0.00  0.00    -0.092 S 
ENDBRANCH  28  31
ENDBRANCH   1  27
TORSDOF 5
