REMARK  Name = ZINC65330828
REMARK  8 active torsions:
REMARK  status: ('A' for Active; 'I' for Inactive)
REMARK    1  A    between atoms: C_1  and  C_2
REMARK    2  A    between atoms: C_5  and  C_8
REMARK    3  A    between atoms: C_8  and  N_9
REMARK    4  A    between atoms: C_12  and  C_15
REMARK    5  A    between atoms: C_15  and  N_16
REMARK    6  A    between atoms: C_17  and  C_19
REMARK    7  A    between atoms: C_26  and  O_33
REMARK    8  A    between atoms: O_33  and  C_34
REMARK                            x       y       z     vdW  Elec       q    Type
REMARK                         _______ _______ _______ _____ _____    ______ ____
ROOT
ATOM      1  N   UNL     1       3.768  -8.429  -2.021  0.00  0.00    -0.311 N 
ATOM      2  C   UNL     1       4.620  -9.471  -1.946  0.00  0.00    +0.251 C 
ATOM      3  O   UNL     1       4.838 -10.002  -0.873  0.00  0.00    -0.270 OA
ATOM      4  H   UNL     1       3.595  -8.006  -2.877  0.00  0.00    +0.149 HD
ENDROOT
BRANCH   2   5
ATOM      5  C   UNL     1       5.287  -9.964  -3.159  0.00  0.00    +0.076 A 
ATOM      6  C   UNL     1       6.162 -10.993  -3.275  0.00  0.00    +0.030 A 
ATOM      7  C   UNL     1       6.705 -11.313  -4.584  0.00  0.00    +0.009 A 
ATOM      8  C   UNL     1       7.619 -12.334  -4.916  0.00  0.00    +0.020 A 
ATOM      9  C   UNL     1       8.018 -12.474  -6.246  0.00  0.00    +0.003 A 
ATOM     10  C   UNL     1       8.927 -13.474  -6.643  0.00  0.00    +0.014 A 
ATOM     11  C   UNL     1       9.288 -13.576  -7.948  0.00  0.00    +0.048 A 
ATOM     12  C   UNL     1       8.779 -12.708  -8.919  0.00  0.00    +0.140 A 
ATOM     13  C   UNL     1       7.887 -11.711  -8.593  0.00  0.00    +0.108 A 
ATOM     14  C   UNL     1       7.479 -11.561  -7.257  0.00  0.00    +0.094 A 
ATOM     15  N   UNL     1       6.617 -10.612  -6.889  0.00  0.00    -0.238 NA
ATOM     16  C   UNL     1       6.242 -10.480  -5.640  0.00  0.00    +0.110 A 
ATOM     17  S   UNL     1       5.130  -9.357  -4.827  0.00  0.00    -0.064 S 
ATOM     18 CL   UNL     1       7.272 -10.650  -9.821  0.00  0.00    -0.078 Cl
BRANCH  12  19
ATOM     19  O   UNL     1       9.172 -12.851 -10.211  0.00  0.00    -0.494 OA
ATOM     20  C   UNL     1      10.099 -13.901 -10.495  0.00  0.00    +0.277 C 
ENDBRANCH  12  19
ENDBRANCH   2   5
BRANCH   1  21
ATOM     21  C   UNL     1       3.104  -7.937  -0.812  0.00  0.00    +0.106 C 
BRANCH  21  25
ATOM     22  N   UNL     1       1.451  -4.747  -0.032  0.00  0.00    +0.383 N 
ATOM     23  C   UNL     1       2.098  -4.361  -1.304  0.00  0.00    -0.078 C 
ATOM     24  C   UNL     1       3.038  -5.544  -1.645  0.00  0.00    -0.015 C 
ATOM     25  C   UNL     1       2.197  -6.759  -1.172  0.00  0.00    -0.012 C 
ATOM     26  C   UNL     1       1.477  -6.217   0.081  0.00  0.00    -0.073 C 
ATOM     27  H   UNL     1       1.954  -4.338   0.741  0.00  0.00    -0.081 HD
BRANCH  22  28
ATOM     28  C   UNL     1       0.059  -4.275  -0.021  0.00  0.00    -0.043 C 
BRANCH  28  33
ATOM     29  C   UNL     1      -0.018   1.503   0.010  0.00  0.00    +0.044 C 
ATOM     30  C   UNL     1       0.002  -0.004   0.002  0.00  0.00    -0.050 A 
ATOM     31  C   UNL     1       0.006  -0.689  -1.199  0.00  0.00    +0.003 A 
ATOM     32  C   UNL     1       0.025  -2.071  -1.206  0.00  0.00    +0.002 A 
ATOM     33  C   UNL     1       0.040  -2.768  -0.013  0.00  0.00    -0.064 A 
ATOM     34  C   UNL     1       0.037  -2.084   1.188  0.00  0.00    +0.002 A 
ATOM     35  C   UNL     1       0.023  -0.702   1.195  0.00  0.00    +0.003 A 
ENDBRANCH  28  33
ENDBRANCH  22  28
ENDBRANCH  21  25
ENDBRANCH   1  21
TORSDOF 6
