REMARK  Name = ZINC44016887
REMARK  9 active torsions:
REMARK  status: ('A' for Active; 'I' for Inactive)
REMARK    1  A    between atoms: C_1  and  C_2
REMARK    2  A    between atoms: C_2  and  C_3
REMARK    3  A    between atoms: C_2  and  C_4
REMARK    4  A    between atoms: C_2  and  N_5
REMARK    5  A    between atoms: C_6  and  C_8
REMARK    6  A    between atoms: C_11  and  N_14
REMARK    7  A    between atoms: N_17  and  C_18
REMARK    8  A    between atoms: C_18  and  C_19
REMARK    9  A    between atoms: N_23  and  C_25
REMARK                            x       y       z     vdW  Elec       q    Type
REMARK                         _______ _______ _______ _____ _____    ______ ____
ROOT
ATOM      1  N   UNL     1       4.612  -1.950  -6.069  0.00  0.00    -0.269 N 
ATOM      2  C   UNL     1       5.862  -1.529  -6.341  0.00  0.00    +0.304 C 
ATOM      3  O   UNL     1       6.456  -0.831  -5.543  0.00  0.00    -0.253 OA
ATOM      4  N   UNL     1       6.455  -1.883  -7.499  0.00  0.00    -0.299 N 
ATOM      5  H   UNL     1       4.163  -2.561  -6.674  0.00  0.00    +0.156 HD
ATOM      6  H   UNL     1       5.982  -2.440  -8.136  0.00  0.00    +0.150 HD
ENDROOT
BRANCH   1  10
ATOM      7  C   UNL     1       2.672  -0.629  -2.628  0.00  0.00    +0.037 A 
ATOM      8  C   UNL     1       4.051  -0.854  -2.612  0.00  0.00    +0.015 A 
ATOM      9  C   UNL     1       4.689  -1.291  -3.751  0.00  0.00    +0.024 A 
ATOM     10  C   UNL     1       3.962  -1.508  -4.917  0.00  0.00    +0.035 A 
ATOM     11  C   UNL     1       2.589  -1.284  -4.937  0.00  0.00    +0.024 A 
ATOM     12  C   UNL     1       1.944  -0.853  -3.800  0.00  0.00    +0.015 A 
BRANCH   7  14
ATOM     13  N   UNL     1       2.688   0.055  -0.279  0.00  0.00    -0.307 N 
ATOM     14  C   UNL     1       1.985  -0.161  -1.408  0.00  0.00    +0.244 C 
ATOM     15  O   UNL     1       0.784   0.030  -1.422  0.00  0.00    -0.270 OA
ATOM     16  H   UNL     1       3.646  -0.097  -0.268  0.00  0.00    +0.150 HD
BRANCH  13  18
ATOM     17  C   UNL     1       0.948  -0.505   1.345  0.00  0.00    +0.031 C 
ATOM     18  C   UNL     1       2.006   0.519   0.931  0.00  0.00    +0.026 C 
ATOM     19  C   UNL     1       1.332   1.864   0.653  0.00  0.00    +0.031 C 
ATOM     20  C   UNL     1       3.026   0.683   2.060  0.00  0.00    +0.031 C 
ENDBRANCH  13  18
ENDBRANCH   7  14
ENDBRANCH   1  10
BRANCH   4  21
ATOM     21  C   UNL     1       7.815  -1.425  -7.795  0.00  0.00    +0.110 C 
BRANCH  21  22
ATOM     22  C   UNL     1       8.248  -1.962  -9.161  0.00  0.00    +0.025 C 
ATOM     23  C   UNL     1       7.438  -1.286 -10.299  0.00  0.00    +0.025 C 
ATOM     24  C   UNL     1       8.419  -1.406 -11.492  0.00  0.00    +0.105 C 
ATOM     25  N   UNL     1       9.755  -1.200 -10.904  0.00  0.00    -0.330 N 
ATOM     26  C   UNL     1       9.702  -1.550  -9.474  0.00  0.00    +0.110 C 
BRANCH  25  27
ATOM     27  C   UNL     1      10.886  -0.751 -11.590  0.00  0.00    +0.030 A 
ATOM     28  C   UNL     1      12.094  -0.604 -10.920  0.00  0.00    +0.023 A 
ATOM     29  C   UNL     1      13.210  -0.161 -11.602  0.00  0.00    +0.002 A 
ATOM     30  C   UNL     1      13.126   0.136 -12.950  0.00  0.00    +0.000 A 
ATOM     31  C   UNL     1      11.925  -0.009 -13.620  0.00  0.00    +0.002 A 
ATOM     32  C   UNL     1      10.807  -0.457 -12.945  0.00  0.00    +0.023 A 
ENDBRANCH  25  27
ENDBRANCH  21  22
ENDBRANCH   4  21
TORSDOF 6
