REMARK  Name = ZINC44031187
REMARK  8 active torsions:
REMARK  status: ('A' for Active; 'I' for Inactive)
REMARK    1  A    between atoms: C_1  and  C_2
REMARK    2  A    between atoms: C_2  and  C_3
REMARK    3  A    between atoms: C_2  and  C_4
REMARK    4  A    between atoms: C_4  and  C_5
REMARK    5  A    between atoms: N_7  and  C_8
REMARK    6  A    between atoms: C_11  and  N_14
REMARK    7  A    between atoms: N_17  and  C_18
REMARK    8  A    between atoms: C_18  and  C_19
REMARK                            x       y       z     vdW  Elec       q    Type
REMARK                         _______ _______ _______ _____ _____    ______ ____
ROOT
ATOM      1  N   UNL     1       8.281   1.347  -2.399  0.00  0.00    -0.269 N 
ATOM      2  C   UNL     1       8.820   1.739  -3.570  0.00  0.00    +0.304 C 
ATOM      3  O   UNL     1       8.186   1.625  -4.601  0.00  0.00    -0.252 OA
ATOM      4  N   UNL     1      10.064   2.258  -3.598  0.00  0.00    -0.293 N 
ATOM      5  H   UNL     1       8.810   1.375  -1.587  0.00  0.00    +0.156 HD
ATOM      6  H   UNL     1      10.571   2.349  -2.776  0.00  0.00    +0.151 HD
ENDROOT
BRANCH   1  10
ATOM      7  C   UNL     1       4.332   0.012  -2.268  0.00  0.00    +0.033 A 
ATOM      8  C   UNL     1       4.857   0.732  -1.203  0.00  0.00    +0.025 A 
ATOM      9  C   UNL     1       6.165   1.174  -1.246  0.00  0.00    +0.025 A 
ATOM     10  C   UNL     1       6.954   0.898  -2.355  0.00  0.00    +0.035 A 
ATOM     11  C   UNL     1       6.428   0.179  -3.420  0.00  0.00    +0.025 A 
ATOM     12  C   UNL     1       5.123  -0.269  -3.374  0.00  0.00    +0.025 A 
BRANCH   7  15
ATOM     13  C   UNL     1       2.059   0.318  -1.631  0.00  0.00    +0.217 C 
ATOM     14  O   UNL     1       2.368   1.343  -1.062  0.00  0.00    -0.275 OA
ATOM     15  N   UNL     1       3.005  -0.436  -2.224  0.00  0.00    -0.285 N 
ATOM     16  H   UNL     1       2.768  -1.289  -2.620  0.00  0.00    +0.155 HD
BRANCH  13  17
ATOM     17  C   UNL     1       0.615  -0.113  -1.674  0.00  0.00    +0.099 C 
BRANCH  17  19
ATOM     18  C   UNL     1      -0.200   2.248  -1.673  0.00  0.00    +0.008 C 
ATOM     19  C   UNL     1      -0.245   0.911  -0.932  0.00  0.00    -0.008 C 
ATOM     20  C   UNL     1      -1.690   0.412  -0.868  0.00  0.00    +0.008 C 
ENDBRANCH  17  19
ENDBRANCH  13  17
ENDBRANCH   7  15
ENDBRANCH   1  10
BRANCH   4  21
ATOM     21  C   UNL     1      10.651   2.685  -4.871  0.00  0.00    +0.168 C 
BRANCH  21  22
ATOM     22  C   UNL     1      12.037   3.223  -4.629  0.00  0.00    +0.097 A 
ATOM     23  N   UNL     1      13.161   2.568  -4.643  0.00  0.00    -0.242 NA
ATOM     24  C   UNL     1      14.347   3.169  -4.410  0.00  0.00    +0.079 A 
ATOM     25  C   UNL     1      15.648   2.625  -4.385  0.00  0.00    +0.029 A 
ATOM     26  C   UNL     1      16.724   3.416  -4.125  0.00  0.00    +0.002 A 
ATOM     27  C   UNL     1      16.585   4.775  -3.878  0.00  0.00    +0.001 A 
ATOM     28  C   UNL     1      15.326   5.345  -3.896  0.00  0.00    +0.017 A 
ATOM     29  C   UNL     1      14.233   4.554  -4.157  0.00  0.00    +0.039 A 
ATOM     30  S   UNL     1      12.483   4.810  -4.288  0.00  0.00    -0.071 S 
ENDBRANCH  21  22
ENDBRANCH   4  21
TORSDOF 6
