REMARK  Name = ZINC33575115
REMARK  8 active torsions:
REMARK  status: ('A' for Active; 'I' for Inactive)
REMARK    1  A    between atoms: C_1  and  C_2
REMARK    2  A    between atoms: C_2  and  C_4
REMARK    3  A    between atoms: C_7  and  N_10
REMARK    4  A    between atoms: C_15  and  C_33
REMARK    5  A    between atoms: C_18  and  C_23
REMARK    6  A    between atoms: C_18  and  C_30
REMARK    7  A    between atoms: C_23  and  C_24
REMARK    8  A    between atoms: C_34  and  C_35
REMARK                            x       y       z     vdW  Elec       q    Type
REMARK                         _______ _______ _______ _____ _____    ______ ____
ROOT
ATOM      1  N   UNL     1      -0.071   0.019  -0.022  0.00  0.00    -0.210 N 
ATOM      2  C   UNL     1       1.204  -0.468   0.046  0.00  0.00    +0.229 C 
ATOM      3  O   UNL     1       1.573  -1.583  -0.258  0.00  0.00    -0.275 OA
ATOM      4  C   UNL     1       2.053   0.643   0.569  0.00  0.00    +0.077 C 
ATOM      5  C   UNL     1       3.404   0.971  -0.052  0.00  0.00    -0.034 C 
ATOM      6  N   UNL     1       3.496   2.461   0.081  0.00  0.00    +0.395 N 
ATOM      7  C   UNL     1       2.098   2.999   0.134  0.00  0.00    +0.048 C 
ATOM      8  C   UNL     1       1.238   1.829  -0.064  0.00  0.00    +0.086 C 
ATOM      9  C   UNL     1      -0.124   1.387   0.079  0.00  0.00    +0.229 C 
ATOM     10  O   UNL     1      -1.108   2.075   0.246  0.00  0.00    -0.275 OA
ATOM     11  H   UNL     1       4.039   2.713   1.004  0.00  0.00    -0.083 HD
ATOM     12  H   UNL     1       4.034   2.874  -0.785  0.00  0.00    -0.083 HD
ENDROOT
BRANCH   1  16
ATOM     13  C   UNL     1      -3.439  -2.393  -0.489  0.00  0.00    +0.017 A 
ATOM     14  C   UNL     1      -2.165  -2.970  -0.428  0.00  0.00    +0.013 A 
ATOM     15  C   UNL     1      -1.056  -2.170  -0.274  0.00  0.00    +0.024 A 
ATOM     16  C   UNL     1      -1.200  -0.789  -0.179  0.00  0.00    +0.044 A 
ATOM     17  C   UNL     1      -2.464  -0.211  -0.234  0.00  0.00    +0.024 A 
ATOM     18  C   UNL     1      -3.579  -1.003  -0.393  0.00  0.00    +0.013 A 
BRANCH  13  20
ATOM     19  C   UNL     1      -5.997  -2.619  -0.720  0.00  0.00    +0.091 C 
ATOM     20  C   UNL     1      -4.627  -3.243  -0.654  0.00  0.00    +0.160 C 
ATOM     21  O   UNL     1      -4.504  -4.446  -0.736  0.00  0.00    -0.292 OA
ENDBRANCH  13  20
ENDBRANCH   1  16
BRANCH   7  22
ATOM     22  C   UNL     1       1.880   4.002  -0.970  0.00  0.00    +0.346 C 
ATOM     23  O   UNL     1       0.810   4.062  -1.530  0.00  0.00    -0.248 OA
ATOM     24  O   UNL     1       2.874   4.829  -1.331  0.00  0.00    -0.248 OA
ENDBRANCH   7  22
BRANCH   5  25
ATOM     25  C   UNL     1       3.433   0.565  -1.503  0.00  0.00    -0.041 C 
ATOM     26  C   UNL     1       4.383  -0.247  -1.946  0.00  0.00    +0.002 C 
BRANCH  26  27
ATOM     27  C   UNL     1       4.347  -0.736  -3.340  0.00  0.00    -0.025 A 
ATOM     28  C   UNL     1       3.312  -0.349  -4.192  0.00  0.00    +0.008 A 
ATOM     29  C   UNL     1       3.288  -0.804  -5.494  0.00  0.00    +0.001 A 
ATOM     30  C   UNL     1       4.281  -1.651  -5.953  0.00  0.00    +0.000 A 
ATOM     31  C   UNL     1       5.306  -2.044  -5.111  0.00  0.00    +0.001 A 
ATOM     32  C   UNL     1       5.345  -1.591  -3.808  0.00  0.00    +0.008 A 
ENDBRANCH  26  27
ENDBRANCH   5  25
BRANCH   7  33
ATOM     33  C   UNL     1       1.824   3.640   1.496  0.00  0.00    +0.003 C 
BRANCH  33  34
ATOM     34  C   UNL     1       2.722   4.866   1.672  0.00  0.00    -0.012 C 
ATOM     35  C   UNL     1       4.181   4.418   1.783  0.00  0.00    +0.003 C 
ATOM     36  C   UNL     1       5.079   5.645   1.959  0.00  0.00    +0.000 C 
ATOM     37  C   UNL     1       4.677   6.392   3.232  0.00  0.00    +0.000 C 
ATOM     38  C   UNL     1       3.218   6.840   3.121  0.00  0.00    +0.000 C 
ATOM     39  C   UNL     1       2.320   5.614   2.945  0.00  0.00    +0.003 C 
ENDBRANCH  33  34
ENDBRANCH   7  33
TORSDOF 7
