REMARK  Name = ZINC62918982
REMARK  6 active torsions:
REMARK  status: ('A' for Active; 'I' for Inactive)
REMARK    1  A    between atoms: C_1  and  C_2
REMARK    2  A    between atoms: C_2  and  C_3
REMARK    3  A    between atoms: C_3  and  C_4
REMARK    4  A    between atoms: C_4  and  C_18
REMARK    5  A    between atoms: C_9  and  C_11
REMARK    6  A    between atoms: C_12  and  C_17
REMARK                            x       y       z     vdW  Elec       q    Type
REMARK                         _______ _______ _______ _____ _____    ______ ____
ROOT
ATOM      1  C   UNL     1       0.733  -2.039  -1.274  0.00  0.00    +0.089 C 
ATOM      2  C   UNL     1       1.527  -2.551  -2.498  0.00  0.00    +0.039 C 
ATOM      3  C   UNL     1       2.934  -2.821  -1.907  0.00  0.00    +0.109 C 
ATOM      4  N   UNL     1       2.638  -3.358  -0.559  0.00  0.00    -0.296 N 
ATOM      5  C   UNL     1       1.501  -2.569  -0.049  0.00  0.00    +0.126 C 
ATOM      6  C   UNL     1       3.277  -4.363   0.073  0.00  0.00    +0.255 C 
ATOM      7  O   UNL     1       4.140  -4.996  -0.508  0.00  0.00    -0.269 OA
ENDROOT
BRANCH   6   8
ATOM      8  C   UNL     1       2.934  -4.693   1.455  0.00  0.00    +0.098 A 
ATOM      9  C   UNL     1       3.518  -5.608   2.319  0.00  0.00    +0.060 A 
ATOM     10  N   UNL     1       2.995  -5.694   3.517  0.00  0.00    -0.230 NA
ATOM     11  C   UNL     1       1.967  -4.945   3.875  0.00  0.00    +0.156 A 
ATOM     12  S   UNL     1       1.651  -4.024   2.503  0.00  0.00    -0.048 S 
ATOM     13  N   UNL     1       1.312  -4.921   5.088  0.00  0.00    -0.337 N 
ATOM     14  C   UNL     1       4.690  -6.458   1.902  0.00  0.00    +0.067 C 
ATOM     15  H   UNL     1       1.599  -5.506   5.806  0.00  0.00    +0.144 HD
ATOM     16  H   UNL     1       0.563  -4.319   5.223  0.00  0.00    +0.144 HD
ENDBRANCH   6   8
BRANCH   1  17
ATOM     17  C   UNL     1      -0.670  -2.589  -1.290  0.00  0.00    +0.364 C 
ATOM     18  O   UNL     1      -1.623  -1.829  -1.305  0.00  0.00    -0.246 OA
ATOM     19  O   UNL     1      -0.852  -3.795  -1.289  0.00  0.00    -0.246 OA
ENDBRANCH   1  17
BRANCH   1  20
ATOM     20  C   UNL     1       0.703  -0.509  -1.262  0.00  0.00    +0.019 C 
BRANCH  20  22
ATOM     21  C   UNL     1      -0.054   1.506   0.007  0.00  0.00    +0.004 C 
ATOM     22  C   UNL     1      -0.024  -0.024  -0.006  0.00  0.00    -0.002 C 
ENDBRANCH  20  22
ENDBRANCH   1  20
TORSDOF 4
