REMARK  Name = ZINC14273958
REMARK  12 active torsions:
REMARK  status: ('A' for Active; 'I' for Inactive)
REMARK    1  A    between atoms: C_1  and  C_2
REMARK    2  A    between atoms: C_4  and  N_20
REMARK    3  A    between atoms: C_7  and  N_8
REMARK    4  A    between atoms: C_9  and  C_11
REMARK    5  A    between atoms: N_20  and  C_21
REMARK    6  A    between atoms: C_21  and  N_23
REMARK    7  A    between atoms: C_24  and  C_26
REMARK    8  A    between atoms: C_30  and  O_32
REMARK    9  A    between atoms: O_32  and  C_33
REMARK   10  A    between atoms: C_33  and  C_34
REMARK   11  A    between atoms: C_34  and  C_35
REMARK   12  A    between atoms: C_34  and  C_36
REMARK                            x       y       z     vdW  Elec       q    Type
REMARK                         _______ _______ _______ _____ _____    ______ ____
ROOT
ATOM      1  C   UNL     1       1.185  12.370   1.992  0.00  0.00    +0.046 C 
ATOM      2  C   UNL     1       1.769  11.564   0.861  0.00  0.00    -0.027 A 
ATOM      3  C   UNL     1       1.826  10.188   0.951  0.00  0.00    +0.028 A 
ATOM      4  C   UNL     1       2.364   9.445  -0.092  0.00  0.00    +0.033 A 
ATOM      5  C   UNL     1       2.848  10.088  -1.224  0.00  0.00    +0.025 A 
ATOM      6  C   UNL     1       2.786  11.463  -1.317  0.00  0.00    +0.025 A 
ATOM      7  C   UNL     1       2.248  12.206  -0.274  0.00  0.00    +0.037 A 
ENDROOT
BRANCH   7   8
ATOM      8  N   UNL     1       2.189  13.602  -0.366  0.00  0.00    -0.279 N 
ATOM      9  C   UNL     1       2.021  14.191  -1.566  0.00  0.00    +0.284 C 
ATOM     10  O   UNL     1       1.972  13.514  -2.575  0.00  0.00    -0.266 OA
ATOM     11  H   UNL     1       2.270  14.145   0.434  0.00  0.00    +0.155 HD
BRANCH   9  12
ATOM     12  C   UNL     1       1.897  15.653  -1.656  0.00  0.00    +0.191 A 
ATOM     13  C   UNL     1       1.724  16.354  -2.806  0.00  0.00    +0.063 A 
ATOM     14  C   UNL     1       1.653  17.761  -2.416  0.00  0.00    +0.021 A 
ATOM     15  C   UNL     1       1.486  18.959  -3.117  0.00  0.00    +0.011 A 
ATOM     16  C   UNL     1       1.461  20.143  -2.437  0.00  0.00    +0.001 A 
ATOM     17  C   UNL     1       1.600  20.164  -1.055  0.00  0.00    +0.004 A 
ATOM     18  C   UNL     1       1.765  18.995  -0.346  0.00  0.00    +0.047 A 
ATOM     19  C   UNL     1       1.794  17.777  -1.016  0.00  0.00    +0.136 A 
ATOM     20  O   UNL     1       1.931  16.501  -0.606  0.00  0.00    -0.450 OA
ENDBRANCH   9  12
ENDBRANCH   7   8
BRANCH   4  21
ATOM     21  N   UNL     1       2.423   8.049  -0.000  0.00  0.00    -0.297 N 
ATOM     22  H   UNL     1       3.225   7.578  -0.276  0.00  0.00    +0.154 HD
BRANCH  21  23
ATOM     23  C   UNL     1       1.365   7.360   0.471  0.00  0.00    +0.141 C 
ATOM     24  S   UNL     1      -0.015   8.195   1.044  0.00  0.00    -0.018 S 
BRANCH  23  25
ATOM     25  N   UNL     1       1.394   6.012   0.492  0.00  0.00    -0.264 N 
ATOM     26  C   UNL     1       0.336   5.323   0.963  0.00  0.00    +0.250 C 
ATOM     27  O   UNL     1      -0.644   5.916   1.370  0.00  0.00    -0.270 OA
ATOM     28  H   UNL     1       2.176   5.539   0.168  0.00  0.00    +0.157 HD
BRANCH  26  29
ATOM     29  C   UNL     1       0.368   3.846   0.986  0.00  0.00    +0.041 A 
ATOM     30  C   UNL     1       1.492   3.161   0.520  0.00  0.00    +0.013 A 
ATOM     31  C   UNL     1       1.518   1.782   0.543  0.00  0.00    +0.004 A 
ATOM     32  C   UNL     1       0.434   1.074   1.027  0.00  0.00    +0.046 A 
ATOM     33  C   UNL     1      -0.691   1.745   1.488  0.00  0.00    +0.121 A 
ATOM     34  C   UNL     1      -0.726   3.129   1.474  0.00  0.00    +0.058 A 
BRANCH  33  35
ATOM     35  O   UNL     1      -1.756   1.043   1.957  0.00  0.00    -0.492 OA
BRANCH  35  36
ATOM     36  C   UNL     1      -1.649  -0.382   1.947  0.00  0.00    +0.232 C 
BRANCH  36  37
ATOM     37  C   UNL     1      -2.934  -0.993   2.508  0.00  0.00    +0.020 C 
ATOM     38  C   UNL     1      -2.871  -2.517   2.383  0.00  0.00    +0.010 C 
ATOM     39  C   UNL     1      -3.082  -0.609   3.982  0.00  0.00    +0.010 C 
ENDBRANCH  36  37
ENDBRANCH  35  36
ENDBRANCH  33  35
ENDBRANCH  26  29
ENDBRANCH  23  25
ENDBRANCH  21  23
ENDBRANCH   4  21
TORSDOF 9
