REMARK  Name = ZINC44885138
REMARK  12 active torsions:
REMARK  status: ('A' for Active; 'I' for Inactive)
REMARK    1  A    between atoms: C_1  and  C_2
REMARK    2  A    between atoms: C_5  and  S_8
REMARK    3  A    between atoms: S_8  and  N_11
REMARK    4  A    between atoms: N_11  and  C_12
REMARK    5  A    between atoms: C_15  and  C_19
REMARK    6  A    between atoms: N_21  and  C_22
REMARK    7  A    between atoms: C_24  and  C_32
REMARK    8  A    between atoms: C_26  and  C_28
REMARK    9  A    between atoms: C_28  and  O_30
REMARK   10  A    between atoms: O_30  and  C_31
REMARK   11  A    between atoms: C_32  and  O_34
REMARK   12  A    between atoms: O_34  and  C_35
REMARK                            x       y       z     vdW  Elec       q    Type
REMARK                         _______ _______ _______ _____ _____    ______ ____
ROOT
ATOM      1  C   UNL     1       1.976  -6.351  -0.022  0.00  0.00    +0.076 A 
ATOM      2  C   UNL     1       0.965  -7.309  -0.025  0.00  0.00    +0.027 A 
ATOM      3  C   UNL     1       1.278  -8.639  -0.042  0.00  0.00    +0.016 A 
ATOM      4  C   UNL     1       2.616  -9.044  -0.056  0.00  0.00    +0.055 A 
ATOM      5  C   UNL     1       3.634  -8.083  -0.053  0.00  0.00    +0.055 A 
ATOM      6  C   UNL     1       3.311  -6.744  -0.041  0.00  0.00    +0.047 A 
ATOM      7 CL   UNL     1       5.298  -8.578  -0.070  0.00  0.00    -0.083 Cl
ENDROOT
BRANCH   4   8
ATOM      8  C   UNL     1       2.954 -10.479  -0.074  0.00  0.00    +0.250 C 
ATOM      9  O   UNL     1       4.118 -10.829  -0.087  0.00  0.00    -0.270 OA
ATOM     10  N   UNL     1       1.972 -11.402  -0.077  0.00  0.00    -0.281 N 
ATOM     11  H   UNL     1       1.046 -11.125   0.001  0.00  0.00    +0.155 HD
BRANCH  10  12
ATOM     12  C   UNL     1       2.289 -12.760  -0.192  0.00  0.00    +0.035 A 
ATOM     13  C   UNL     1       3.442 -13.254   0.400  0.00  0.00    +0.038 A 
ATOM     14  C   UNL     1       3.762 -14.608   0.288  0.00  0.00    +0.062 A 
ATOM     15  C   UNL     1       2.921 -15.465  -0.420  0.00  0.00    +0.030 A 
ATOM     16  C   UNL     1       1.763 -14.965  -1.013  0.00  0.00    +0.062 A 
ATOM     17  C   UNL     1       1.447 -13.610  -0.892  0.00  0.00    +0.038 A 
BRANCH  16  18
ATOM     18  C   UNL     1       0.868 -15.869  -1.765  0.00  0.00    +0.339 C 
ATOM     19  O   UNL     1      -0.141 -15.433  -2.282  0.00  0.00    -0.245 OA
BRANCH  18  20
ATOM     20  O   UNL     1       1.171 -17.177  -1.877  0.00  0.00    -0.464 OA
ATOM     21  C   UNL     1       0.261 -17.993  -2.618  0.00  0.00    +0.280 C 
ENDBRANCH  18  20
ENDBRANCH  16  18
BRANCH  14  22
ATOM     22  C   UNL     1       4.991 -15.133   0.919  0.00  0.00    +0.339 C 
ATOM     23  O   UNL     1       5.724 -14.386   1.535  0.00  0.00    -0.245 OA
BRANCH  22  24
ATOM     24  O   UNL     1       5.298 -16.440   0.810  0.00  0.00    -0.464 OA
ATOM     25  C   UNL     1       6.501 -16.879   1.444  0.00  0.00    +0.280 C 
ENDBRANCH  22  24
ENDBRANCH  14  22
ENDBRANCH  10  12
ENDBRANCH   4   8
BRANCH   1  26
ATOM     26  N   UNL     1       1.650  -5.000  -0.005  0.00  0.00    -0.098 NA
BRANCH  26  27
ATOM     27  S   UNL     1       0.062  -4.531   0.019  0.00  0.00    +0.092 S 
ATOM     28  O   UNL     1      -0.469  -4.956   1.266  0.00  0.00    -0.148 OA
ATOM     29  O   UNL     1      -0.498  -4.932  -1.224  0.00  0.00    -0.148 OA
BRANCH  27  34
ATOM     30  C   UNL     1      -0.020   1.502   0.078  0.00  0.00    +0.044 C 
ATOM     31  C   UNL     1       0.001  -0.005   0.063  0.00  0.00    -0.050 A 
ATOM     32  C   UNL     1      -0.003  -0.684  -1.141  0.00  0.00    +0.005 A 
ATOM     33  C   UNL     1       0.016  -2.066  -1.154  0.00  0.00    +0.029 A 
ATOM     34  C   UNL     1       0.039  -2.769   0.036  0.00  0.00    +0.110 A 
ATOM     35  C   UNL     1       0.044  -2.090   1.240  0.00  0.00    +0.029 A 
ATOM     36  C   UNL     1       0.029  -0.708   1.254  0.00  0.00    +0.005 A 
ENDBRANCH  27  34
ENDBRANCH  26  27
ENDBRANCH   1  26
TORSDOF 9
