REMARK  Name = ZINC40755833
REMARK  4 active torsions:
REMARK  status: ('A' for Active; 'I' for Inactive)
REMARK    1  A    between atoms: C_5  and  N_7
REMARK    2  A    between atoms: C_14  and  N_30
REMARK    3  A    between atoms: C_15  and  N_19
REMARK    4  A    between atoms: N_19  and  C_20
REMARK                            x       y       z     vdW  Elec       q    Type
REMARK                         _______ _______ _______ _____ _____    ______ ____
ROOT
ATOM      1  N   UNL     1      -0.035  -2.108   1.187  0.00  0.00    -0.325 N 
ATOM      2  C   UNL     1      -1.274  -2.900   1.201  0.00  0.00    +0.124 C 
ATOM      3  C   UNL     1      -1.260  -3.853   0.000  0.00  0.00    +0.125 C 
ATOM      4  N   UNL     1       0.030  -4.557  -0.025  0.00  0.00    -0.311 N 
ATOM      5  C   UNL     1       1.268  -3.766  -0.040  0.00  0.00    +0.125 C 
ATOM      6  C   UNL     1       1.255  -2.812   1.156  0.00  0.00    +0.124 C 
ATOM      7  C   UNL     1       0.078  -5.946  -0.036  0.00  0.00    +0.147 A 
ATOM      8  C   UNL     1       0.009  -6.649  -1.240  0.00  0.00    +0.105 A 
ATOM      9  C   UNL     1       0.061  -8.043  -1.194  0.00  0.00    +0.145 A 
ATOM     10  N   UNL     1       0.175  -8.645  -0.012  0.00  0.00    -0.219 NA
ATOM     11  C   UNL     1       0.236  -7.944   1.102  0.00  0.00    +0.225 A 
ATOM     12  N   UNL     1       0.195  -6.627   1.102  0.00  0.00    -0.219 NA
ENDROOT
BRANCH   1  17
ATOM     13  C   UNL     1      -0.178   1.373   0.015  0.00  0.00    +0.002 A 
ATOM     14  C   UNL     1      -0.177   2.056   1.217  0.00  0.00    +0.003 A 
ATOM     15  C   UNL     1      -0.129   1.360   2.411  0.00  0.00    +0.040 A 
ATOM     16  C   UNL     1      -0.082  -0.022   2.406  0.00  0.00    +0.144 A 
ATOM     17  C   UNL     1      -0.083  -0.711   1.197  0.00  0.00    +0.065 A 
ATOM     18  C   UNL     1      -0.131  -0.007   0.001  0.00  0.00    +0.026 A 
ATOM     19  F   UNL     1      -0.035  -0.702   3.572  0.00  0.00    -0.204 F 
ENDBRANCH   1  17
BRANCH   8  20
ATOM     20  N   UNL     1      -0.111  -5.972  -2.465  0.00  0.00    -0.353 N 
ATOM     21  H   UNL     1      -0.056  -5.004  -2.491  0.00  0.00    +0.143 HD
ATOM     22  H   UNL     1      -0.248  -6.472  -3.284  0.00  0.00    +0.143 HD
ENDBRANCH   8  20
BRANCH   9  23
ATOM     23  N   UNL     1      -0.004  -8.791  -2.363  0.00  0.00    -0.322 N 
ATOM     24  H   UNL     1      -0.086  -8.345  -3.220  0.00  0.00    +0.148 HD
BRANCH  23  25
ATOM     25  C   UNL     1       0.053 -10.254  -2.301  0.00  0.00    +0.034 C 
ATOM     26  C   UNL     1      -1.117 -10.774  -1.464  0.00  0.00    +0.029 C 
ATOM     27  C   UNL     1      -1.058 -12.302  -1.399  0.00  0.00    -0.008 C 
ATOM     28  C   UNL     1      -1.149 -12.876  -2.815  0.00  0.00    +0.007 C 
ATOM     29  C   UNL     1       0.021 -12.355  -3.652  0.00  0.00    -0.008 C 
ATOM     30  C   UNL     1      -0.037 -10.828  -3.717  0.00  0.00    +0.029 C 
ATOM     31  C   UNL     1       1.341 -12.788  -3.009  0.00  0.00    +0.007 C 
ATOM     32  C   UNL     1       1.431 -12.214  -1.594  0.00  0.00    -0.008 C 
ATOM     33  C   UNL     1       0.261 -12.735  -0.757  0.00  0.00    +0.007 C 
ATOM     34  C   UNL     1       1.372 -10.686  -1.659  0.00  0.00    +0.029 C 
ENDBRANCH  23  25
ENDBRANCH   9  23
TORSDOF 4
