REMARK  Name = ZINC13631650
REMARK  8 active torsions:
REMARK  status: ('A' for Active; 'I' for Inactive)
REMARK    1  A    between atoms: C_1  and  C_2
REMARK    2  A    between atoms: C_2  and  N_3
REMARK    3  A    between atoms: C_4  and  C_6
REMARK    4  A    between atoms: C_9  and  N_12
REMARK    5  A    between atoms: N_12  and  C_13
REMARK    6  A    between atoms: C_13  and  N_15
REMARK    7  A    between atoms: C_16  and  C_18
REMARK    8  A    between atoms: C_21  and  C_25
REMARK                            x       y       z     vdW  Elec       q    Type
REMARK                         _______ _______ _______ _____ _____    ______ ____
ROOT
ATOM      1  N   UNL     1      -6.016   3.161   0.076  0.00  0.00    -0.297 N 
ATOM      2  H   UNL     1      -6.008   2.228  -0.190  0.00  0.00    +0.154 HD
ENDROOT
BRANCH   1   6
ATOM      3  C   UNL     1      -9.634   5.192   0.436  0.00  0.00    +0.037 A 
ATOM      4  C   UNL     1      -9.421   4.327  -0.640  0.00  0.00    +0.015 A 
ATOM      5  C   UNL     1      -8.224   3.657  -0.756  0.00  0.00    +0.024 A 
ATOM      6  C   UNL     1      -7.226   3.841   0.197  0.00  0.00    +0.033 A 
ATOM      7  C   UNL     1      -7.438   4.697   1.273  0.00  0.00    +0.024 A 
ATOM      8  C   UNL     1      -8.630   5.374   1.392  0.00  0.00    +0.015 A 
BRANCH   3  10
ATOM      9  N   UNL     1     -11.119   6.747   1.603  0.00  0.00    -0.312 N 
ATOM     10  C   UNL     1     -10.915   5.913   0.564  0.00  0.00    +0.244 C 
ATOM     11  O   UNL     1     -11.787   5.754  -0.268  0.00  0.00    -0.270 OA
ATOM     12  H   UNL     1     -10.424   6.873   2.267  0.00  0.00    +0.149 HD
BRANCH   9  14
ATOM     13  C   UNL     1     -12.364   8.335   2.986  0.00  0.00    +0.024 C 
ATOM     14  C   UNL     1     -12.392   7.462   1.730  0.00  0.00    +0.101 C 
ENDBRANCH   9  14
ENDBRANCH   3  10
ENDBRANCH   1   6
BRANCH   1  15
ATOM     15  C   UNL     1      -4.856   3.799   0.330  0.00  0.00    +0.141 C 
ATOM     16  S   UNL     1      -4.858   5.479   0.660  0.00  0.00    -0.018 S 
BRANCH  15  17
ATOM     17  N   UNL     1      -3.695   3.115   0.322  0.00  0.00    -0.264 N 
ATOM     18  C   UNL     1      -2.535   3.753   0.576  0.00  0.00    +0.250 C 
ATOM     19  O   UNL     1      -2.537   4.945   0.810  0.00  0.00    -0.270 OA
ATOM     20  H   UNL     1      -3.694   2.163   0.135  0.00  0.00    +0.157 HD
BRANCH  18  21
ATOM     21  C   UNL     1      -1.262   3.003   0.568  0.00  0.00    +0.038 A 
ATOM     22  C   UNL     1      -1.257   1.634   0.293  0.00  0.00    +0.013 A 
ATOM     23  C   UNL     1      -0.066   0.939   0.293  0.00  0.00    +0.005 A 
ATOM     24  C   UNL     1       1.123   1.596   0.554  0.00  0.00    -0.037 A 
ATOM     25  C   UNL     1       1.126   2.954   0.821  0.00  0.00    +0.017 A 
ATOM     26  C   UNL     1      -0.059   3.661   0.830  0.00  0.00    +0.027 A 
ATOM     27  I   UNL     1       2.933   3.939   1.214  0.00  0.00    -0.044 I 
ATOM     28  C   UNL     1       2.422   0.831   0.546  0.00  0.00    +0.045 C 
ENDBRANCH  18  21
ENDBRANCH  15  17
ENDBRANCH   1  15
TORSDOF 6
