REMARK  Name = ZINC36050041
REMARK  11 active torsions:
REMARK  status: ('A' for Active; 'I' for Inactive)
REMARK    1  A    between atoms: C_1  and  C_2
REMARK    2  A    between atoms: C_2  and  O_3
REMARK    3  A    between atoms: O_3  and  C_4
REMARK    4  A    between atoms: C_4  and  C_6
REMARK    5  A    between atoms: C_7  and  C_34
REMARK    6  A    between atoms: C_11  and  C_13
REMARK    7  A    between atoms: C_17  and  C_19
REMARK    8  A    between atoms: C_20  and  C_23
REMARK    9  A    between atoms: C_24  and  N_26
REMARK   10  A    between atoms: N_26  and  C_27
REMARK   11  A    between atoms: C_27  and  C_28
REMARK                            x       y       z     vdW  Elec       q    Type
REMARK                         _______ _______ _______ _____ _____    ______ ____
ROOT
ATOM      1  C   UNL     1       1.768  -2.420  -2.369  0.00  0.00    +0.087 C 
ATOM      2  C   UNL     1       1.666  -3.765  -2.724  0.00  0.00    +0.086 C 
ATOM      3  N   UNL     1       1.911  -4.147  -3.976  0.00  0.00    -0.224 NA
ATOM      4  C   UNL     1       2.255  -3.336  -4.952  0.00  0.00    +0.166 C 
ATOM      5  N   UNL     1       2.408  -1.984  -4.809  0.00  0.00    -0.267 N 
ATOM      6  C   UNL     1       2.154  -1.436  -3.450  0.00  0.00    +0.150 C 
ATOM      7  C   UNL     1       2.773  -1.272  -5.935  0.00  0.00    +0.048 C 
ATOM      8  C   UNL     1       2.951  -1.962  -7.083  0.00  0.00    +0.072 C 
ATOM      9  S   UNL     1       2.599  -3.631  -6.569  0.00  0.00    -0.060 S 
ENDROOT
BRANCH   6  10
ATOM     10  C   UNL     1       3.405  -0.723  -3.003  0.00  0.00    -0.022 A 
ATOM     11  C   UNL     1       4.635  -1.341  -3.128  0.00  0.00    +0.006 A 
ATOM     12  C   UNL     1       5.782  -0.688  -2.718  0.00  0.00    +0.001 A 
ATOM     13  C   UNL     1       5.698   0.585  -2.183  0.00  0.00    +0.003 A 
ATOM     14  C   UNL     1       4.468   1.203  -2.059  0.00  0.00    -0.050 A 
ATOM     15  C   UNL     1       3.322   0.551  -2.473  0.00  0.00    +0.009 A 
ATOM     16  C   UNL     1       4.378   2.589  -1.475  0.00  0.00    +0.044 C 
ENDBRANCH   6  10
BRANCH   2  17
ATOM     17  C   UNL     1       1.286  -4.771  -1.706  0.00  0.00    +0.001 A 
ATOM     18  C   UNL     1       0.019  -4.732  -1.122  0.00  0.00    +0.010 A 
ATOM     19  C   UNL     1      -0.330  -5.672  -0.175  0.00  0.00    +0.001 A 
ATOM     20  C   UNL     1       0.574  -6.652   0.197  0.00  0.00    +0.000 A 
ATOM     21  C   UNL     1       1.831  -6.696  -0.379  0.00  0.00    +0.001 A 
ATOM     22  C   UNL     1       2.189  -5.766  -1.332  0.00  0.00    +0.010 A 
ENDBRANCH   2  17
BRANCH   7  23
ATOM     23  C   UNL     1       2.962   0.184  -5.886  0.00  0.00    +0.091 C 
ATOM     24  C   UNL     1       3.162   0.876  -7.024  0.00  0.00    +0.239 C 
ATOM     25  O   UNL     1       3.044   0.257  -8.223  0.00  0.00    -0.271 OA
BRANCH  24  26
ATOM     26  N   UNL     1       3.488   2.221  -6.968  0.00  0.00    -0.308 N 
ATOM     27  H   UNL     1       3.645   2.647  -6.111  0.00  0.00    +0.149 HD
BRANCH  26  28
ATOM     28  C   UNL     1       3.597   3.000  -8.204  0.00  0.00    +0.141 C 
BRANCH  28  29
ATOM     29  C   UNL     1       4.078   4.391  -7.881  0.00  0.00    -0.012 A 
ATOM     30  C   UNL     1       3.178   5.373  -7.496  0.00  0.00    +0.008 A 
ATOM     31  C   UNL     1       3.666   6.639  -7.208  0.00  0.00    +0.020 A 
ATOM     32  C   UNL     1       5.023   6.877  -7.313  0.00  0.00    +0.111 A 
ATOM     33  N   UNL     1       5.850   5.919  -7.682  0.00  0.00    -0.263 NA
ATOM     34  C   UNL     1       5.422   4.702  -7.958  0.00  0.00    +0.115 A 
ENDBRANCH  28  29
ENDBRANCH  26  28
ENDBRANCH  24  26
ENDBRANCH   7  23
BRANCH   1  35
ATOM     35  C   UNL     1       1.516  -1.997  -1.063  0.00  0.00    +0.339 C 
ATOM     36  O   UNL     1       1.327  -2.818  -0.182  0.00  0.00    -0.245 OA
BRANCH  35  37
ATOM     37  O   UNL     1       1.483  -0.676  -0.775  0.00  0.00    -0.462 OA
BRANCH  37  39
ATOM     38  C   UNL     1       1.221   1.210   0.713  0.00  0.00    +0.048 C 
ATOM     39  C   UNL     1       1.220  -0.315   0.582  0.00  0.00    +0.229 C 
ENDBRANCH  37  39
ENDBRANCH  35  37
ENDBRANCH   1  35
TORSDOF 9
