REMARK  Name = ZINC25392216
REMARK  10 active torsions:
REMARK  status: ('A' for Active; 'I' for Inactive)
REMARK    1  A    between atoms: C_1  and  O_2
REMARK    2  A    between atoms: O_2  and  C_3
REMARK    3  A    between atoms: C_6  and  N_9
REMARK    4  A    between atoms: C_13  and  C_15
REMARK    5  A    between atoms: C_15  and  N_16
REMARK    6  A    between atoms: C_21  and  O_34
REMARK    7  A    between atoms: C_22  and  O_32
REMARK    8  A    between atoms: C_25  and  C_27
REMARK    9  A    between atoms: O_32  and  C_33
REMARK   10  A    between atoms: O_34  and  C_35
REMARK                            x       y       z     vdW  Elec       q    Type
REMARK                         _______ _______ _______ _____ _____    ______ ____
ROOT
ATOM      1  N   UNL     1      -0.912   7.853   0.638  0.00  0.00    +0.393 N 
ATOM      2  C   UNL     1       0.370   7.442   0.044  0.00  0.00    -0.072 C 
ATOM      3  C   UNL     1       0.220   6.020  -0.497  0.00  0.00    +0.017 C 
ATOM      4  C   UNL     1      -0.371   5.126   0.563  0.00  0.00    -0.043 A 
ATOM      5  C   UNL     1      -0.256   3.752   0.406  0.00  0.00    +0.053 A 
ATOM      6  C   UNL     1      -0.793   2.893   1.347  0.00  0.00    +0.162 A 
ATOM      7  C   UNL     1      -1.441   3.413   2.464  0.00  0.00    +0.162 A 
ATOM      8  C   UNL     1      -1.546   4.783   2.620  0.00  0.00    +0.052 A 
ATOM      9  C   UNL     1      -1.010   5.641   1.670  0.00  0.00    -0.049 A 
ATOM     10  C   UNL     1      -1.147   7.125   1.889  0.00  0.00    +0.001 C 
ATOM     11  H   UNL     1      -1.721   7.603  -0.064  0.00  0.00    -0.080 HD
ENDROOT
BRANCH  10  12
ATOM     12  C   UNL     1      -2.537   7.428   2.386  0.00  0.00    -0.019 A 
ATOM     13  C   UNL     1      -2.959   7.664   3.653  0.00  0.00    +0.010 A 
ATOM     14  C   UNL     1      -4.298   7.924   3.877  0.00  0.00    +0.008 A 
ATOM     15  C   UNL     1      -5.150   7.936   2.822  0.00  0.00    +0.045 A 
ATOM     16  S   UNL     1      -4.055   7.579   1.458  0.00  0.00    -0.103 S 
ENDBRANCH  10  12
BRANCH   7  17
ATOM     17  O   UNL     1      -1.970   2.577   3.398  0.00  0.00    -0.491 OA
ATOM     18  C   UNL     1      -2.620   3.183   4.517  0.00  0.00    +0.277 C 
ENDBRANCH   7  17
BRANCH   6  19
ATOM     19  O   UNL     1      -0.684   1.547   1.186  0.00  0.00    -0.491 OA
ATOM     20  C   UNL     1      -0.006   1.087   0.015  0.00  0.00    +0.277 C 
ENDBRANCH   6  19
BRANCH   1  21
ATOM     21  C   UNL     1      -0.948   9.305   0.859  0.00  0.00    +0.020 C 
BRANCH  21  26
ATOM     22  N   UNL     1      -1.012  13.344  -1.747  0.00  0.00    -0.269 N 
ATOM     23  C   UNL     1      -0.981  11.998  -1.702  0.00  0.00    +0.310 C 
ATOM     24  O   UNL     1      -0.954  11.356  -2.735  0.00  0.00    -0.252 OA
ATOM     25  N   UNL     1      -0.980  11.362  -0.514  0.00  0.00    -0.241 N 
ATOM     26  C   UNL     1      -0.949  10.015  -0.470  0.00  0.00    +0.204 C 
ATOM     27  O   UNL     1      -0.922   9.376  -1.499  0.00  0.00    -0.277 OA
ATOM     28  H   UNL     1      -1.113  13.923  -0.817  0.00  0.00    +0.156 HD
ATOM     29  H   UNL     1      -1.005  11.943   0.420  0.00  0.00    +0.159 HD
BRANCH  22  33
ATOM     30  C   UNL     1      -0.724  15.317  -5.409  0.00  0.00    +0.120 A 
ATOM     31  C   UNL     1      -1.394  14.106  -5.325  0.00  0.00    +0.047 A 
ATOM     32  C   UNL     1      -1.490  13.452  -4.113  0.00  0.00    +0.027 A 
ATOM     33  C   UNL     1      -0.915  14.007  -2.978  0.00  0.00    +0.035 A 
ATOM     34  C   UNL     1      -0.249  15.223  -3.061  0.00  0.00    +0.027 A 
ATOM     35  C   UNL     1      -0.150  15.873  -4.275  0.00  0.00    +0.047 A 
BRANCH  30  37
ATOM     36  C   UNL     1       0.074  17.204  -6.617  0.00  0.00    +0.277 C 
ATOM     37  O   UNL     1      -0.630  15.960  -6.603  0.00  0.00    -0.495 OA
ENDBRANCH  30  37
ENDBRANCH  22  33
ENDBRANCH  21  26
ENDBRANCH   1  21
TORSDOF 7
