REMARK  Name = ZINC09121155
REMARK  12 active torsions:
REMARK  status: ('A' for Active; 'I' for Inactive)
REMARK    1  A    between atoms: C_1  and  C_2
REMARK    2  A    between atoms: C_2  and  C_3
REMARK    3  A    between atoms: C_2  and  C_4
REMARK    4  A    between atoms: C_2  and  C_5
REMARK    5  A    between atoms: C_8  and  O_31
REMARK    6  A    between atoms: C_9  and  N_11
REMARK    7  A    between atoms: C_12  and  C_14
REMARK    8  A    between atoms: C_14  and  N_15
REMARK    9  A    between atoms: N_15  and  C_16
REMARK   10  A    between atoms: C_20  and  S_22
REMARK   11  A    between atoms: S_22  and  N_25
REMARK   12  A    between atoms: O_31  and  C_32
REMARK                            x       y       z     vdW  Elec       q    Type
REMARK                         _______ _______ _______ _____ _____    ______ ____
ROOT
ATOM      1  C   UNL     1       6.669  -0.157  -4.046  0.00  0.00    +0.198 C 
ENDROOT
BRANCH   1   3
ATOM      2  N   UNL     1       8.209   0.802  -5.728  0.00  0.00    -0.281 N 
ATOM      3  C   UNL     1       7.644   0.896  -4.508  0.00  0.00    +0.234 C 
ATOM      4  O   UNL     1       7.919   1.827  -3.782  0.00  0.00    -0.274 OA
ATOM      5  H   UNL     1       8.051   0.018  -6.277  0.00  0.00    +0.155 HD
BRANCH   2  10
ATOM      6  C   UNL     1       9.671   4.147  -6.186  0.00  0.00    -0.040 A 
ATOM      7  C   UNL     1      10.633   3.887  -7.145  0.00  0.00    +0.008 A 
ATOM      8  C   UNL     1      10.795   2.605  -7.637  0.00  0.00    +0.048 A 
ATOM      9  C   UNL     1       9.992   1.577  -7.170  0.00  0.00    +0.141 A 
ATOM     10  C   UNL     1       9.023   1.838  -6.204  0.00  0.00    +0.076 A 
ATOM     11  C   UNL     1       8.863   3.128  -5.719  0.00  0.00    +0.031 A 
BRANCH   6  13
ATOM     12  C   UNL     1      10.504   6.478  -6.335  0.00  0.00    +0.015 C 
ATOM     13  C   UNL     1       9.499   5.547  -5.655  0.00  0.00    -0.013 C 
ATOM     14  C   UNL     1       8.078   6.031  -5.945  0.00  0.00    +0.015 C 
ATOM     15  C   UNL     1       9.742   5.552  -4.144  0.00  0.00    +0.015 C 
ENDBRANCH   6  13
BRANCH   9  16
ATOM     16  O   UNL     1      10.150   0.316  -7.654  0.00  0.00    -0.493 OA
ATOM     17  C   UNL     1      11.164   0.122  -8.642  0.00  0.00    +0.277 C 
ENDBRANCH   9  16
ENDBRANCH   2  10
ENDBRANCH   1   3
BRANCH   1  18
ATOM     18  N   UNL     1       6.201   0.170  -2.697  0.00  0.00    -0.335 N 
ATOM     19  H   UNL     1       6.527   0.966  -2.250  0.00  0.00    +0.147 HD
BRANCH  18  20
ATOM     20  C   UNL     1       5.285  -0.666  -2.055  0.00  0.00    +0.029 A 
ATOM     21  C   UNL     1       4.817  -1.808  -2.694  0.00  0.00    +0.023 A 
ATOM     22  C   UNL     1       3.912  -2.633  -2.055  0.00  0.00    +0.004 A 
ATOM     23  C   UNL     1       3.475  -2.326  -0.780  0.00  0.00    +0.028 A 
ATOM     24  C   UNL     1       3.934  -1.188  -0.143  0.00  0.00    +0.107 A 
ATOM     25  C   UNL     1       4.839  -0.358  -0.776  0.00  0.00    +0.051 A 
BRANCH  24  26
ATOM     26  S   UNL     1       3.368  -0.798   1.479  0.00  0.00    +0.061 S 
ATOM     27  O   UNL     1       4.365   0.023   2.071  0.00  0.00    -0.153 OA
ATOM     28  O   UNL     1       2.941  -2.020   2.065  0.00  0.00    -0.153 OA
BRANCH  26  29
ATOM     29  N   UNL     1       2.016   0.144   1.313  0.00  0.00    -0.177 NA
ATOM     30  C   UNL     1       0.682  -0.467   1.235  0.00  0.00    +0.109 C 
ATOM     31  C   UNL     1      -0.022   0.045  -0.025  0.00  0.00    +0.017 C 
ATOM     32  C   UNL     1      -0.031   1.575  -0.014  0.00  0.00    +0.003 C 
ATOM     33  C   UNL     1       1.408   2.096  -0.019  0.00  0.00    +0.017 C 
ATOM     34  C   UNL     1       2.128   1.608   1.241  0.00  0.00    +0.109 C 
ENDBRANCH  26  29
ENDBRANCH  24  26
ENDBRANCH  18  20
ENDBRANCH   1  18
TORSDOF 8
