REMARK  Name = ZINC21710596
REMARK  6 active torsions:
REMARK  status: ('A' for Active; 'I' for Inactive)
REMARK    1  A    between atoms: C_3  and  C_21
REMARK    2  A    between atoms: C_5  and  N_7
REMARK    3  A    between atoms: N_7  and  S_8
REMARK    4  A    between atoms: S_8  and  C_11
REMARK    5  A    between atoms: C_27  and  C_30
REMARK    6  A    between atoms: N_32  and  C_33
REMARK                            x       y       z     vdW  Elec       q    Type
REMARK                         _______ _______ _______ _____ _____    ______ ____
ROOT
ATOM      1  C   UNL     1      -3.064  -2.065  -0.511  0.00  0.00    +0.003 A 
ATOM      2  C   UNL     1      -1.819  -1.509  -0.723  0.00  0.00    +0.013 A 
ATOM      3  C   UNL     1      -1.042  -1.929  -1.804  0.00  0.00    +0.039 A 
ATOM      4  C   UNL     1      -1.530  -2.907  -2.670  0.00  0.00    +0.037 A 
ATOM      5  C   UNL     1      -2.780  -3.463  -2.446  0.00  0.00    +0.049 A 
ATOM      6  C   UNL     1      -3.546  -3.038  -1.367  0.00  0.00    +0.024 A 
ENDROOT
BRANCH   3   7
ATOM      7  C   UNL     1       0.293  -1.334  -2.033  0.00  0.00    +0.247 C 
ATOM      8  O   UNL     1       1.204  -2.026  -2.444  0.00  0.00    -0.270 OA
ATOM      9  N   UNL     1       0.499  -0.025  -1.785  0.00  0.00    -0.297 N 
ATOM     10  C   UNL     1      -0.619   0.850  -1.408  0.00  0.00    +0.108 C 
ATOM     11  C   UNL     1      -0.642   2.054  -2.355  0.00  0.00    +0.020 C 
ATOM     12  C   UNL     1       0.726   2.739  -2.337  0.00  0.00    +0.016 C 
ATOM     13  C   UNL     1       1.795   1.760  -2.828  0.00  0.00    +0.092 C 
ATOM     14  C   UNL     1       1.846   0.552  -1.886  0.00  0.00    +0.120 C 
BRANCH  13  15
ATOM     15  C   UNL     1       3.137   2.445  -2.841  0.00  0.00    +0.218 C 
ATOM     16  O   UNL     1       3.231   3.603  -2.495  0.00  0.00    -0.275 OA
ATOM     17  N   UNL     1       4.234   1.769  -3.237  0.00  0.00    -0.312 N 
ATOM     18  H   UNL     1       4.150   0.718  -3.551  0.00  0.00    +0.149 HD
BRANCH  17  19
ATOM     19  C   UNL     1       5.539   2.435  -3.250  0.00  0.00    +0.073 C 
ATOM     20  C   UNL     1       6.437   2.205  -4.467  0.00  0.00    +0.024 C 
ATOM     21  C   UNL     1       6.783   1.553  -3.127  0.00  0.00    +0.024 C 
ENDBRANCH  17  19
ENDBRANCH  13  15
ENDBRANCH   3   7
BRANCH   5  22
ATOM     22  N   UNL     1      -3.272  -4.447  -3.308  0.00  0.00    -0.216 N 
ATOM     23  H   UNL     1      -2.621  -5.274  -3.626  0.00  0.00    +0.174 HD
BRANCH  22  24
ATOM     24  S   UNL     1      -4.834  -4.366  -3.851  0.00  0.00    +0.072 S 
ATOM     25  O   UNL     1      -5.020  -5.477  -4.718  0.00  0.00    -0.150 OA
ATOM     26  O   UNL     1      -5.650  -4.145  -2.709  0.00  0.00    -0.150 OA
BRANCH  24  27
ATOM     27  C   UNL     1      -4.964  -2.920  -4.850  0.00  0.00    +0.109 A 
ATOM     28  C   UNL     1      -4.713  -2.991  -6.208  0.00  0.00    +0.029 A 
ATOM     29  C   UNL     1      -4.815  -1.854  -6.983  0.00  0.00    +0.006 A 
ATOM     30  C   UNL     1      -5.167  -0.638  -6.411  0.00  0.00    -0.044 A 
ATOM     31  C   UNL     1      -5.421  -0.570  -5.060  0.00  0.00    -0.042 A 
ATOM     32  C   UNL     1      -5.322  -1.716  -4.281  0.00  0.00    +0.032 A 
ATOM     33  C   UNL     1      -5.818   0.712  -4.374  0.00  0.00    +0.035 C 
ATOM     34  C   UNL     1      -5.465   1.917  -5.242  0.00  0.00    +0.005 C 
ATOM     35  C   UNL     1      -6.039   1.686  -6.646  0.00  0.00    +0.005 C 
ATOM     36  C   UNL     1      -5.245   0.565  -7.313  0.00  0.00    +0.035 C 
ENDBRANCH  24  27
ENDBRANCH  22  24
ENDBRANCH   5  22
TORSDOF 6
