REMARK  Name = ZINC63571878
REMARK  7 active torsions:
REMARK  status: ('A' for Active; 'I' for Inactive)
REMARK    1  A    between atoms: C_1  and  C_2
REMARK    2  A    between atoms: C_2  and  O_3
REMARK    3  A    between atoms: O_3  and  C_4
REMARK    4  A    between atoms: C_4  and  C_6
REMARK    5  A    between atoms: C_6  and  C_7
REMARK    6  A    between atoms: C_7  and  N_13
REMARK    7  A    between atoms: C_29  and  C_31
REMARK                            x       y       z     vdW  Elec       q    Type
REMARK                         _______ _______ _______ _____ _____    ______ ____
ROOT
ATOM      1  N   UNL     1       2.566  -3.228  -0.541  0.00  0.00    -0.293 N 
ATOM      2  C   UNL     1       1.666  -3.454   0.436  0.00  0.00    +0.303 C 
ATOM      3  O   UNL     1       0.612  -2.847   0.444  0.00  0.00    -0.253 OA
ATOM      4  N   UNL     1       1.933  -4.353   1.404  0.00  0.00    -0.276 N 
ATOM      5  C   UNL     1       3.248  -5.000   1.451  0.00  0.00    +0.114 C 
ATOM      6  C   UNL     1       3.071  -6.528   1.375  0.00  0.00    +0.052 C 
ATOM      7  C   UNL     1       1.959  -6.882   2.332  0.00  0.00    -0.035 C 
ATOM      8  C   UNL     1       1.898  -7.769   3.317  0.00  0.00    -0.001 A 
ATOM      9  C   UNL     1       2.845  -8.803   3.764  0.00  0.00    +0.010 A 
ATOM     10  C   UNL     1       2.464  -9.540   4.841  0.00  0.00    +0.001 A 
ATOM     11  C   UNL     1       1.250  -9.354   5.510  0.00  0.00    +0.002 A 
ATOM     12  C   UNL     1       0.316  -8.433   5.162  0.00  0.00    +0.026 A 
ATOM     13  C   UNL     1       0.600  -7.603   4.039  0.00  0.00    +0.043 A 
ATOM     14  N   UNL     1      -0.114  -6.670   3.481  0.00  0.00    -0.375 N 
ATOM     15  C   UNL     1       0.609  -6.175   2.309  0.00  0.00    +0.131 C 
ATOM     16  C   UNL     1       0.904  -4.670   2.407  0.00  0.00    +0.134 C 
ATOM     17  H   UNL     1       3.434  -3.660  -0.509  0.00  0.00    +0.151 HD
ATOM     18  H   UNL     1      -0.978  -6.355   3.789  0.00  0.00    +0.160 HD
ENDROOT
BRANCH  16  19
ATOM     19  C   UNL     1      -0.348  -3.882   2.120  0.00  0.00    -0.025 A 
ATOM     20  C   UNL     1      -1.092  -4.155   0.988  0.00  0.00    +0.008 A 
ATOM     21  C   UNL     1      -2.241  -3.434   0.724  0.00  0.00    +0.038 A 
ATOM     22  C   UNL     1      -2.647  -2.437   1.594  0.00  0.00    +0.123 A 
ATOM     23  C   UNL     1      -1.901  -2.163   2.728  0.00  0.00    +0.038 A 
ATOM     24  C   UNL     1      -0.755  -2.890   2.993  0.00  0.00    +0.008 A 
ATOM     25  F   UNL     1      -3.769  -1.730   1.337  0.00  0.00    -0.205 F 
ENDBRANCH  16  19
BRANCH   1  26
ATOM     26  C   UNL     1       2.234  -2.331  -1.650  0.00  0.00    +0.046 C 
ATOM     27  C   UNL     1       3.383  -2.321  -2.660  0.00  0.00    +0.026 C 
ATOM     28  C   UNL     1       4.661  -1.834  -1.974  0.00  0.00    +0.002 C 
ATOM     29  C   UNL     1       4.444  -0.418  -1.437  0.00  0.00    +0.000 C 
ATOM     30  C   UNL     1       3.294  -0.427  -0.426  0.00  0.00    +0.002 C 
ATOM     31  C   UNL     1       2.016  -0.915  -1.112  0.00  0.00    +0.026 C 
BRANCH  26  32
ATOM     32  C   UNL     1       0.956  -2.818  -2.336  0.00  0.00    +0.146 C 
BRANCH  32  33
ATOM     33  C   UNL     1       1.125  -4.258  -2.748  0.00  0.00    +0.309 C 
ATOM     34  O   UNL     1       2.184  -4.815  -2.578  0.00  0.00    -0.251 OA
BRANCH  33  35
ATOM     35  O   UNL     1       0.099  -4.922  -3.303  0.00  0.00    -0.465 OA
BRANCH  35  37
ATOM     36  C   UNL     1      -0.944  -6.870  -4.282  0.00  0.00    +0.048 C 
ATOM     37  C   UNL     1       0.330  -6.283  -3.669  0.00  0.00    +0.229 C 
ENDBRANCH  35  37
ENDBRANCH  33  35
ENDBRANCH  32  33
ENDBRANCH  26  32
ENDBRANCH   1  26
TORSDOF 6
