REMARK  Name = ZINC01027679
REMARK  8 active torsions:
REMARK  status: ('A' for Active; 'I' for Inactive)
REMARK    1  A    between atoms: C_1  and  C_2
REMARK    2  A    between atoms: C_4  and  C_28
REMARK    3  A    between atoms: C_6  and  N_8
REMARK    4  A    between atoms: N_11  and  C_12
REMARK    5  A    between atoms: C_15  and  S_18
REMARK    6  A    between atoms: S_18  and  N_21
REMARK    7  A    between atoms: N_21  and  C_22
REMARK    8  A    between atoms: C_24  and  C_27
REMARK                            x       y       z     vdW  Elec       q    Type
REMARK                         _______ _______ _______ _____ _____    ______ ____
ROOT
ATOM      1  C   UNL     1       0.232  -2.224   5.988  0.00  0.00    +0.035 A 
ATOM      2  C   UNL     1       0.206  -0.836   6.008  0.00  0.00    +0.025 A 
ATOM      3  C   UNL     1       0.199  -0.164   7.215  0.00  0.00    +0.031 A 
ATOM      4  C   UNL     1       0.217  -0.872   8.402  0.00  0.00    +0.111 A 
ATOM      5  C   UNL     1       0.243  -2.255   8.386  0.00  0.00    +0.031 A 
ATOM      6  C   UNL     1       0.244  -2.933   7.183  0.00  0.00    +0.025 A 
ENDROOT
BRANCH   1  10
ATOM      7  N   UNL     1       0.783  -2.979   2.498  0.00  0.00    -0.269 N 
ATOM      8  C   UNL     1       0.864  -2.373   3.699  0.00  0.00    +0.308 C 
ATOM      9  O   UNL     1       1.499  -1.343   3.819  0.00  0.00    -0.252 OA
ATOM     10  N   UNL     1       0.239  -2.908   4.767  0.00  0.00    -0.269 N 
ATOM     11  H   UNL     1       0.215  -3.757   2.385  0.00  0.00    +0.156 HD
ATOM     12  H   UNL     1      -0.204  -3.767   4.690  0.00  0.00    +0.156 HD
BRANCH   7  18
ATOM     13  C   UNL     1       1.180  -2.190  -2.338  0.00  0.00    +0.044 C 
ATOM     14  C   UNL     1       1.734  -2.090  -0.941  0.00  0.00    -0.048 A 
ATOM     15  C   UNL     1       2.971  -1.509  -0.728  0.00  0.00    +0.006 A 
ATOM     16  C   UNL     1       3.483  -1.416   0.553  0.00  0.00    -0.048 A 
ATOM     17  C   UNL     1       2.761  -1.902   1.625  0.00  0.00    +0.026 A 
ATOM     18  C   UNL     1       1.518  -2.485   1.415  0.00  0.00    +0.035 A 
ATOM     19  C   UNL     1       1.004  -2.573   0.128  0.00  0.00    +0.026 A 
ATOM     20  C   UNL     1       4.832  -0.783   0.780  0.00  0.00    +0.044 C 
ENDBRANCH   7  18
ENDBRANCH   1  10
BRANCH   4  21
ATOM     21  S   UNL     1       0.209  -0.011   9.940  0.00  0.00    +0.093 S 
ATOM     22  O   UNL     1       0.781  -0.889  10.900  0.00  0.00    -0.148 OA
ATOM     23  O   UNL     1       0.735   1.284   9.683  0.00  0.00    -0.148 OA
BRANCH  21  24
ATOM     24  N   UNL     1      -1.375   0.199  10.375  0.00  0.00    -0.074 NA
BRANCH  24  25
ATOM     25  C   UNL     1      -1.690   0.856  11.560  0.00  0.00    +0.205 A 
ATOM     26  C   UNL     1      -2.990   1.100  12.056  0.00  0.00    +0.094 A 
ATOM     27  C   UNL     1      -2.875   1.758  13.223  0.00  0.00    +0.136 A 
ATOM     28  O   UNL     1      -1.569   1.935  13.477  0.00  0.00    -0.358 OA
ATOM     29  N   UNL     1      -0.833   1.353  12.416  0.00  0.00    -0.060 NA
ATOM     30  C   UNL     1      -4.016   2.218  14.094  0.00  0.00    +0.089 C 
ENDBRANCH  24  25
ENDBRANCH  21  24
ENDBRANCH   4  21
TORSDOF 5
