REMARK  Name = ZINC10800983
REMARK  9 active torsions:
REMARK  status: ('A' for Active; 'I' for Inactive)
REMARK    1  A    between atoms: C_1  and  O_2
REMARK    2  A    between atoms: O_2  and  C_3
REMARK    3  A    between atoms: C_6  and  N_9
REMARK    4  A    between atoms: C_10  and  C_12
REMARK    5  A    between atoms: C_15  and  N_18
REMARK    6  A    between atoms: C_19  and  C_21
REMARK    7  A    between atoms: C_21  and  O_22
REMARK    8  A    between atoms: O_22  and  C_23
REMARK    9  A    between atoms: C_23  and  C_25
REMARK                            x       y       z     vdW  Elec       q    Type
REMARK                         _______ _______ _______ _____ _____    ______ ____
ROOT
ATOM      1  C   UNL     1       1.476  -0.105  -0.072  0.00  0.00    +0.037 A 
ATOM      2  C   UNL     1       0.268   0.297  -0.647  0.00  0.00    +0.015 A 
ATOM      3  C   UNL     1      -0.041   1.637  -0.732  0.00  0.00    +0.024 A 
ATOM      4  C   UNL     1       0.850   2.589  -0.245  0.00  0.00    +0.034 A 
ATOM      5  C   UNL     1       2.054   2.192   0.328  0.00  0.00    +0.024 A 
ATOM      6  C   UNL     1       2.368   0.855   0.415  0.00  0.00    +0.015 A 
ENDROOT
BRANCH   1   8
ATOM      7  N   UNL     1       2.977  -1.926   0.574  0.00  0.00    -0.281 N 
ATOM      8  C   UNL     1       1.811  -1.539   0.019  0.00  0.00    +0.248 C 
ATOM      9  O   UNL     1       1.034  -2.373  -0.406  0.00  0.00    -0.270 OA
ATOM     10  H   UNL     1       3.625  -1.260   0.852  0.00  0.00    +0.155 HD
BRANCH   7  14
ATOM     11  C   UNL     1       3.795  -5.980   1.096  0.00  0.00    +0.120 A 
ATOM     12  C   UNL     1       3.079  -5.555  -0.013  0.00  0.00    +0.047 A 
ATOM     13  C   UNL     1       2.807  -4.212  -0.187  0.00  0.00    +0.027 A 
ATOM     14  C   UNL     1       3.251  -3.288   0.749  0.00  0.00    +0.034 A 
ATOM     15  C   UNL     1       3.973  -3.714   1.857  0.00  0.00    +0.027 A 
ATOM     16  C   UNL     1       4.239  -5.058   2.032  0.00  0.00    +0.047 A 
BRANCH  11  18
ATOM     17  C   UNL     1       4.804  -7.670   2.430  0.00  0.00    +0.277 C 
ATOM     18  O   UNL     1       4.062  -7.303   1.266  0.00  0.00    -0.495 OA
ENDBRANCH  11  18
ENDBRANCH   7  14
ENDBRANCH   1   8
BRANCH   4  19
ATOM     19  N   UNL     1       0.534   3.944  -0.332  0.00  0.00    -0.283 N 
ATOM     20  C   UNL     1       1.507   4.850  -0.557  0.00  0.00    +0.255 C 
ATOM     21  O   UNL     1       2.666   4.496  -0.601  0.00  0.00    -0.272 OA
ATOM     22  H   UNL     1      -0.386   4.236  -0.231  0.00  0.00    +0.155 HD
BRANCH  20  23
ATOM     23  C   UNL     1       1.154   6.301  -0.754  0.00  0.00    +0.328 C 
BRANCH  23  24
ATOM     24  O   UNL     1       2.367   7.068  -0.977  0.00  0.00    -0.455 OA
BRANCH  24  25
ATOM     25  C   UNL     1       2.226   8.389  -1.172  0.00  0.00    +0.314 C 
ATOM     26  O   UNL     1       1.126   8.888  -1.156  0.00  0.00    -0.250 OA
BRANCH  25  27
ATOM     27  C   UNL     1       3.440   9.249  -1.410  0.00  0.00    +0.069 C 
ATOM     28  C   UNL     1       4.379   9.151  -0.206  0.00  0.00    +0.021 C 
ATOM     29  C   UNL     1       5.612  10.025  -0.448  0.00  0.00    -0.009 C 
ATOM     30  C   UNL     1       5.176  11.479  -0.639  0.00  0.00    +0.007 C 
ATOM     31  C   UNL     1       4.238  11.577  -1.843  0.00  0.00    -0.009 C 
ATOM     32  C   UNL     1       3.005  10.704  -1.601  0.00  0.00    +0.021 C 
ATOM     33  C   UNL     1       4.966  11.094  -3.098  0.00  0.00    +0.007 C 
ATOM     34  C   UNL     1       5.401   9.640  -2.908  0.00  0.00    -0.009 C 
ATOM     35  C   UNL     1       6.340   9.542  -1.704  0.00  0.00    +0.007 C 
ATOM     36  C   UNL     1       4.169   8.766  -2.666  0.00  0.00    +0.021 C 
ENDBRANCH  25  27
ENDBRANCH  24  25
ENDBRANCH  23  24
ENDBRANCH  20  23
ENDBRANCH   4  19
TORSDOF 8
