REMARK  Name = ZINC35624430
REMARK  4 active torsions:
REMARK  status: ('A' for Active; 'I' for Inactive)
REMARK    1  A    between atoms: C_3  and  S_23
REMARK    2  A    between atoms: C_6  and  N_7
REMARK    3  A    between atoms: N_7  and  C_8
REMARK    4  A    between atoms: S_23  and  N_26
REMARK                            x       y       z     vdW  Elec       q    Type
REMARK                         _______ _______ _______ _____ _____    ______ ____
ROOT
ATOM      1  C   UNL     1      -0.776   1.367   1.145  0.00  0.00    +0.025 A 
ATOM      2  C   UNL     1      -0.340   2.055   2.261  0.00  0.00    +0.030 A 
ATOM      3  C   UNL     1       0.117   1.363   3.367  0.00  0.00    +0.105 A 
ATOM      4  C   UNL     1       0.138  -0.020   3.361  0.00  0.00    +0.030 A 
ATOM      5  C   UNL     1      -0.296  -0.714   2.249  0.00  0.00    +0.025 A 
ATOM      6  C   UNL     1      -0.756  -0.022   1.136  0.00  0.00    +0.027 A 
ENDROOT
BRANCH   3   7
ATOM      7  S   UNL     1       0.674   2.244   4.788  0.00  0.00    +0.056 S 
ATOM      8  O   UNL     1       1.561   1.378   5.481  0.00  0.00    -0.153 OA
ATOM      9  O   UNL     1       1.065   3.534   4.338  0.00  0.00    -0.153 OA
BRANCH   7  10
ATOM     10  N   UNL     1      -0.639   2.465   5.773  0.00  0.00    -0.204 NA
ATOM     11  H   UNL     1      -1.507   2.124   5.507  0.00  0.00    +0.144 HD
ATOM     12  H   UNL     1      -0.539   2.935   6.615  0.00  0.00    +0.144 HD
ENDBRANCH   7  10
ENDBRANCH   3   7
BRANCH   6  13
ATOM     13  N   UNL     1      -1.197  -0.720   0.010  0.00  0.00    -0.341 N 
ATOM     14  H   UNL     1      -1.518  -0.236  -0.767  0.00  0.00    +0.146 HD
BRANCH  13  15
ATOM     15  C   UNL     1      -1.175  -2.185   0.002  0.00  0.00    +0.074 C 
ATOM     16  C   UNL     1      -1.234  -2.710  -1.458  0.00  0.00    +0.026 C 
ATOM     17  C   UNL     1      -2.708  -3.285  -1.548  0.00  0.00    -0.006 C 
ATOM     18  C   UNL     1      -2.683  -4.036  -0.149  0.00  0.00    +0.009 C 
ATOM     19  C   UNL     1      -2.423  -2.736   0.721  0.00  0.00    +0.013 C 
ATOM     20  C   UNL     1      -3.689  -1.995   0.316  0.00  0.00    -0.003 C 
ATOM     21  C   UNL     1      -3.478  -2.030  -1.268  0.00  0.00    -0.004 C 
ATOM     22  C   UNL     1      -4.584  -1.261  -1.850  0.00  0.00    +0.004 C 
ATOM     23  C   UNL     1      -4.803  -0.120  -0.799  0.00  0.00    +0.001 C 
ATOM     24  C   UNL     1      -3.844  -0.488   0.478  0.00  0.00    +0.004 C 
ENDBRANCH  13  15
ENDBRANCH   6  13
TORSDOF 4
