REMARK  Name = ZINC34667795
REMARK  4 active torsions:
REMARK  status: ('A' for Active; 'I' for Inactive)
REMARK    1  A    between atoms: C_3  and  N_11
REMARK    2  A    between atoms: C_6  and  C_7
REMARK    3  A    between atoms: N_14  and  C_15
REMARK    4  A    between atoms: C_27  and  C_29
REMARK                            x       y       z     vdW  Elec       q    Type
REMARK                         _______ _______ _______ _____ _____    ______ ____
ROOT
ATOM      1  C   UNL     1       7.351   1.425   1.038  0.00  0.00    +0.051 A 
ATOM      2  C   UNL     1       7.419   0.033   1.052  0.00  0.00    +0.028 A 
ATOM      3  C   UNL     1       8.651  -0.567   0.871  0.00  0.00    +0.043 A 
ATOM      4  C   UNL     1       9.774   0.232   0.681  0.00  0.00    +0.099 A 
ATOM      5  N   UNL     1       9.671   1.552   0.674  0.00  0.00    -0.348 N 
ATOM      6  C   UNL     1       8.510   2.158   0.838  0.00  0.00    +0.107 A 
ATOM      7  N   UNL     1      11.019  -0.362   0.498  0.00  0.00    -0.314 N 
ATOM      8  C   UNL     1      11.140  -1.821   0.365  0.00  0.00    +0.125 C 
ATOM      9  C   UNL     1      11.873  -2.135  -0.945  0.00  0.00    +0.127 C 
ATOM     10  N   UNL     1      13.091  -1.315  -1.009  0.00  0.00    -0.295 N 
ATOM     11  C   UNL     1      12.971   0.143  -0.876  0.00  0.00    +0.127 C 
ATOM     12  C   UNL     1      12.237   0.458   0.428  0.00  0.00    +0.125 C 
ATOM     13  C   UNL     1      14.297  -1.891  -1.186  0.00  0.00    +0.247 C 
ATOM     14  O   UNL     1      15.306  -1.214  -1.146  0.00  0.00    -0.270 OA
ATOM     15  H   UNL     1      10.469   2.087   0.540  0.00  0.00    +0.167 HD
ENDROOT
BRANCH  13  16
ATOM     16  C   UNL     1      14.392  -3.344  -1.430  0.00  0.00    +0.041 A 
ATOM     17  C   UNL     1      13.504  -3.966  -2.310  0.00  0.00    +0.017 A 
ATOM     18  C   UNL     1      13.595  -5.322  -2.537  0.00  0.00    +0.050 A 
ATOM     19  C   UNL     1      14.569  -6.074  -1.893  0.00  0.00    +0.166 A 
ATOM     20  C   UNL     1      15.459  -5.459  -1.012  0.00  0.00    +0.167 A 
ATOM     21  C   UNL     1      15.375  -4.099  -0.785  0.00  0.00    +0.062 A 
ATOM     22  O   UNL     1      16.306  -6.407  -0.516  0.00  0.00    -0.453 OA
ATOM     23  C   UNL     1      15.669  -7.670  -0.785  0.00  0.00    +0.466 C 
ATOM     24  O   UNL     1      14.861  -7.405  -1.947  0.00  0.00    -0.453 OA
ENDBRANCH  13  16
BRANCH   1  28
ATOM     25  N   UNL     1       3.952   2.091   2.078  0.00  0.00    -0.269 N 
ATOM     26  C   UNL     1       5.168   1.517   1.988  0.00  0.00    +0.308 C 
ATOM     27  O   UNL     1       5.405   0.494   2.601  0.00  0.00    -0.252 OA
ATOM     28  N   UNL     1       6.122   2.077   1.218  0.00  0.00    -0.268 N 
ATOM     29  H   UNL     1       3.737   2.862   1.530  0.00  0.00    +0.156 HD
ATOM     30  H   UNL     1       5.959   2.931   0.788  0.00  0.00    +0.156 HD
BRANCH  25  33
ATOM     31  C   UNL     1       2.458   0.481   5.027  0.00  0.00    +0.014 A 
ATOM     32  C   UNL     1       3.401   0.990   4.157  0.00  0.00    +0.024 A 
ATOM     33  C   UNL     1       2.999   1.573   2.962  0.00  0.00    +0.035 A 
ATOM     34  C   UNL     1       1.648   1.643   2.648  0.00  0.00    +0.024 A 
ATOM     35  C   UNL     1       0.709   1.132   3.523  0.00  0.00    +0.014 A 
ATOM     36  C   UNL     1       1.113   0.552   4.711  0.00  0.00    +0.055 A 
BRANCH  36  37
ATOM     37  C   UNL     1       0.087  -0.005   5.664  0.00  0.00    +0.417 C 
ATOM     38  F   UNL     1      -0.310   0.996   6.558  0.00  0.00    -0.166 F 
ATOM     39  F   UNL     1      -1.025  -0.453   4.942  0.00  0.00    -0.166 F 
ATOM     40  F   UNL     1       0.642  -1.073   6.376  0.00  0.00    -0.166 F 
ENDBRANCH  36  37
ENDBRANCH  25  33
ENDBRANCH   1  28
TORSDOF 4
