REMARK  Name = ZINC54733541
REMARK  11 active torsions:
REMARK  status: ('A' for Active; 'I' for Inactive)
REMARK    1  A    between atoms: C_1  and  C_2
REMARK    2  A    between atoms: C_6  and  O_9
REMARK    3  A    between atoms: C_7  and  C_8
REMARK    4  A    between atoms: O_9  and  C_10
REMARK    5  A    between atoms: C_10  and  C_12
REMARK    6  A    between atoms: C_10  and  C_13
REMARK    7  A    between atoms: N_15  and  N_16
REMARK    8  A    between atoms: N_19  and  C_20
REMARK    9  A    between atoms: C_20  and  C_22
REMARK   10  A    between atoms: C_20  and  C_23
REMARK   11  A    between atoms: C_26  and  C_28
REMARK                            x       y       z     vdW  Elec       q    Type
REMARK                         _______ _______ _______ _____ _____    ______ ____
ROOT
ATOM      1  C   UNL     1      -0.835  -4.719   3.448  0.00  0.00    +0.270 C 
ATOM      2  O   UNL     1      -1.277  -3.947   4.272  0.00  0.00    -0.270 OA
ATOM      3  N   UNL     1      -1.053  -6.043   3.580  0.00  0.00    -0.230 N 
ATOM      4  H   UNL     1      -0.699  -6.660   2.922  0.00  0.00    +0.173 HD
ENDROOT
BRANCH   3   5
ATOM      5  N   UNL     1      -1.790  -6.526   4.670  0.00  0.00    -0.218 N 
ATOM      6  C   UNL     1      -2.007  -7.850   4.802  0.00  0.00    +0.316 C 
ATOM      7  O   UNL     1      -2.646  -8.269   5.747  0.00  0.00    -0.251 OA
ATOM      8  N   UNL     1      -1.516  -8.708   3.886  0.00  0.00    -0.291 N 
ATOM      9  H   UNL     1      -2.143  -5.908   5.328  0.00  0.00    +0.174 HD
ATOM     10  H   UNL     1      -1.005  -8.373   3.132  0.00  0.00    +0.151 HD
BRANCH   8  11
ATOM     11  C   UNL     1      -1.752 -10.147   4.030  0.00  0.00    +0.108 C 
ATOM     12  C   UNL     1      -3.109 -10.504   3.421  0.00  0.00    +0.033 C 
BRANCH  11  13
ATOM     13  C   UNL     1      -0.665 -10.908   3.316  0.00  0.00    +0.010 A 
ATOM     14  C   UNL     1      -0.027 -12.043   3.695  0.00  0.00    +0.013 A 
ATOM     15  C   UNL     1       0.949 -12.570   2.870  0.00  0.00    +0.011 A 
ATOM     16  C   UNL     1       1.240 -11.938   1.708  0.00  0.00    -0.013 A 
ATOM     17  S   UNL     1       0.111 -10.554   1.748  0.00  0.00    -0.097 S 
ATOM     18  C   UNL     1       2.249 -12.308   0.652  0.00  0.00    +0.051 C 
ENDBRANCH  11  13
ENDBRANCH   8  11
ENDBRANCH   3   5
BRANCH   1  19
ATOM     19  C   UNL     1      -0.043  -4.199   2.277  0.00  0.00    +0.257 C 
ATOM     20  C   UNL     1       1.363  -4.804   2.303  0.00  0.00    +0.062 C 
BRANCH  19  21
ATOM     21  O   UNL     1       0.050  -2.776   2.358  0.00  0.00    -0.480 OA
BRANCH  21  27
ATOM     22  C   UNL     1       0.424   1.474  -0.013  0.00  0.00    +0.044 C 
ATOM     23  C   UNL     1       0.438  -0.033  -0.000  0.00  0.00    -0.044 A 
ATOM     24  C   UNL     1       0.653  -0.732  -1.174  0.00  0.00    +0.004 A 
ATOM     25  C   UNL     1       0.667  -2.114  -1.165  0.00  0.00    +0.004 A 
ATOM     26  C   UNL     1       0.465  -2.801   0.016  0.00  0.00    +0.046 A 
ATOM     27  C   UNL     1       0.249  -2.102   1.195  0.00  0.00    +0.125 A 
ATOM     28  C   UNL     1       0.242  -0.715   1.185  0.00  0.00    -0.006 A 
ATOM     29  C   UNL     1       0.014   0.048   2.465  0.00  0.00    +0.048 C 
ENDBRANCH  21  27
ENDBRANCH  19  21
ENDBRANCH   1  19
TORSDOF 6
