REMARK  Name = ZINC58821561
REMARK  8 active torsions:
REMARK  status: ('A' for Active; 'I' for Inactive)
REMARK    1  A    between atoms: C_1  and  C_2
REMARK    2  A    between atoms: C_2  and  C_4
REMARK    3  A    between atoms: C_2  and  N_19
REMARK    4  A    between atoms: C_8  and  N_10
REMARK    5  A    between atoms: C_11  and  C_13
REMARK    6  A    between atoms: C_20  and  C_22
REMARK    7  A    between atoms: C_26  and  N_28
REMARK    8  A    between atoms: C_29  and  C_31
REMARK                            x       y       z     vdW  Elec       q    Type
REMARK                         _______ _______ _______ _____ _____    ______ ____
ROOT
ATOM      1  N   UNL     1       0.709  -0.047   0.671  0.00  0.00    -0.305 N 
ATOM      2  C   UNL     1       2.056  -0.003   0.657  0.00  0.00    +0.245 C 
ATOM      3  O   UNL     1       2.641   0.410  -0.325  0.00  0.00    -0.270 OA
ATOM      4  H   UNL     1       0.243  -0.377   1.455  0.00  0.00    +0.150 HD
ENDROOT
BRANCH   2   5
ATOM      5  C   UNL     1       2.823  -0.456   1.838  0.00  0.00    +0.038 A 
ATOM      6  C   UNL     1       2.154  -0.935   2.966  0.00  0.00    +0.013 A 
ATOM      7  C   UNL     1       2.872  -1.358   4.066  0.00  0.00    +0.003 A 
ATOM      8  C   UNL     1       4.254  -1.308   4.056  0.00  0.00    +0.023 A 
ATOM      9  C   UNL     1       4.929  -0.832   2.939  0.00  0.00    +0.034 A 
ATOM     10  C   UNL     1       4.217  -0.410   1.826  0.00  0.00    +0.036 A 
BRANCH   9  11
ATOM     11  N   UNL     1       6.327  -0.783   2.934  0.00  0.00    -0.283 N 
ATOM     12  C   UNL     1       6.965   0.223   2.303  0.00  0.00    +0.246 C 
ATOM     13  O   UNL     1       6.330   1.039   1.668  0.00  0.00    -0.273 OA
ATOM     14  H   UNL     1       6.838  -1.473   3.386  0.00  0.00    +0.155 HD
BRANCH  12  15
ATOM     15  C   UNL     1       8.465   0.333   2.385  0.00  0.00    +0.204 C 
ATOM     16  C   UNL     1       9.133  -0.861   1.658  0.00  0.00    +0.043 C 
ATOM     17  C   UNL     1      10.516  -0.252   1.299  0.00  0.00    +0.031 C 
ATOM     18  C   UNL     1      10.162   1.226   1.027  0.00  0.00    +0.161 C 
ATOM     19  O   UNL     1       8.918   1.502   1.684  0.00  0.00    -0.367 OA
ENDBRANCH  12  15
ENDBRANCH   9  11
ENDBRANCH   2   5
BRANCH   1  21
ATOM     20  C   UNL     1      -0.246   1.917  -0.428  0.00  0.00    +0.033 C 
ATOM     21  C   UNL     1      -0.051   0.402  -0.498  0.00  0.00    +0.100 C 
BRANCH  21  22
ATOM     22  C   UNL     1      -1.395  -0.278  -0.515  0.00  0.00    -0.026 A 
ATOM     23  C   UNL     1      -2.096  -0.452   0.665  0.00  0.00    +0.005 A 
ATOM     24  C   UNL     1      -3.330  -1.075   0.654  0.00  0.00    +0.002 A 
ATOM     25  C   UNL     1      -3.868  -1.526  -0.536  0.00  0.00    +0.023 A 
ATOM     26  C   UNL     1      -3.167  -1.353  -1.723  0.00  0.00    +0.034 A 
ATOM     27  C   UNL     1      -1.929  -0.722  -1.709  0.00  0.00    +0.028 A 
BRANCH  26  28
ATOM     28  N   UNL     1      -3.708  -1.808  -2.929  0.00  0.00    -0.281 N 
ATOM     29  C   UNL     1      -5.041  -1.782  -3.122  0.00  0.00    +0.248 C 
ATOM     30  O   UNL     1      -5.767  -1.278  -2.286  0.00  0.00    -0.270 OA
ATOM     31  H   UNL     1      -3.123  -2.142  -3.627  0.00  0.00    +0.155 HD
BRANCH  29  32
ATOM     32  C   UNL     1      -5.622  -2.366  -4.349  0.00  0.00    +0.037 A 
ATOM     33  C   UNL     1      -4.793  -2.950  -5.308  0.00  0.00    +0.013 A 
ATOM     34  C   UNL     1      -5.342  -3.493  -6.451  0.00  0.00    +0.001 A 
ATOM     35  C   UNL     1      -6.711  -3.460  -6.649  0.00  0.00    +0.000 A 
ATOM     36  C   UNL     1      -7.538  -2.881  -5.703  0.00  0.00    +0.001 A 
ATOM     37  C   UNL     1      -7.003  -2.340  -4.552  0.00  0.00    +0.013 A 
ENDBRANCH  29  32
ENDBRANCH  26  28
ENDBRANCH  21  22
ENDBRANCH   1  21
TORSDOF 7
