REMARK  Name = ZINC36213890
REMARK  8 active torsions:
REMARK  status: ('A' for Active; 'I' for Inactive)
REMARK    1  A    between atoms: C_1  and  C_2
REMARK    2  A    between atoms: C_2  and  C_3
REMARK    3  A    between atoms: C_2  and  C_4
REMARK    4  A    between atoms: C_2  and  N_5
REMARK    5  A    between atoms: C_11  and  C_14
REMARK    6  A    between atoms: C_14  and  C_16
REMARK    7  A    between atoms: C_14  and  N_23
REMARK    8  A    between atoms: C_24  and  C_26
REMARK                            x       y       z     vdW  Elec       q    Type
REMARK                         _______ _______ _______ _____ _____    ______ ____
ROOT
ATOM      1  C   UNL     1       4.922  -3.827  -4.129  0.00  0.00    +0.162 C 
ENDROOT
BRANCH   1   8
ATOM      2  N   UNL     1       0.987  -1.379  -0.091  0.00  0.00    -0.294 N 
ATOM      3  C   UNL     1       2.285  -1.051  -0.247  0.00  0.00    +0.303 C 
ATOM      4  O   UNL     1       2.914  -0.594   0.688  0.00  0.00    -0.253 OA
ATOM      5  N   UNL     1       2.887  -1.231  -1.440  0.00  0.00    -0.286 N 
ATOM      6  C   UNL     1       2.115  -1.673  -2.609  0.00  0.00    +0.109 C 
ATOM      7  C   UNL     1       2.788  -2.914  -3.204  0.00  0.00    +0.025 C 
ATOM      8  C   UNL     1       4.255  -2.600  -3.502  0.00  0.00    +0.021 C 
ATOM      9  C   UNL     1       4.976  -2.237  -2.202  0.00  0.00    +0.025 C 
ATOM     10  C   UNL     1       4.327  -0.983  -1.597  0.00  0.00    +0.109 C 
ATOM     11  H   UNL     1       0.467  -1.675  -0.854  0.00  0.00    +0.151 HD
BRANCH   2  13
ATOM     12  C   UNL     1       0.443   0.155   1.734  0.00  0.00    +0.031 C 
ATOM     13  C   UNL     1       0.363  -1.288   1.230  0.00  0.00    +0.028 C 
ATOM     14  C   UNL     1       1.096  -2.210   2.206  0.00  0.00    +0.031 C 
ATOM     15  C   UNL     1      -1.104  -1.712   1.132  0.00  0.00    +0.031 C 
ENDBRANCH   2  13
ENDBRANCH   1   8
BRANCH   1  16
ATOM     16  C   UNL     1       6.384  -3.543  -4.355  0.00  0.00    +0.236 C 
ATOM     17  O   UNL     1       6.740  -2.957  -5.355  0.00  0.00    -0.274 OA
ATOM     18  N   UNL     1       7.297  -3.941  -3.447  0.00  0.00    -0.300 N 
ATOM     19  C   UNL     1       7.020  -4.757  -2.255  0.00  0.00    +0.108 C 
ATOM     20  C   UNL     1       8.356  -4.938  -1.504  0.00  0.00    +0.020 C 
ATOM     21  C   UNL     1       9.204  -3.742  -2.010  0.00  0.00    +0.020 C 
ATOM     22  C   UNL     1       8.738  -3.635  -3.486  0.00  0.00    +0.108 C 
ENDBRANCH   1  16
BRANCH   1  23
ATOM     23  N   UNL     1       4.279  -4.131  -5.410  0.00  0.00    -0.299 N 
ATOM     24  C   UNL     1       4.314  -5.386  -5.900  0.00  0.00    +0.251 C 
ATOM     25  O   UNL     1       4.879  -6.266  -5.279  0.00  0.00    -0.270 OA
ATOM     26  H   UNL     1       3.829  -3.429  -5.905  0.00  0.00    +0.150 HD
BRANCH  24  27
ATOM     27  C   UNL     1       3.671  -5.690  -7.182  0.00  0.00    +0.074 A 
ATOM     28  C   UNL     1       3.587  -6.901  -7.852  0.00  0.00    +0.021 A 
ATOM     29  C   UNL     1       2.913  -6.875  -9.049  0.00  0.00    +0.008 A 
ATOM     30  C   UNL     1       2.388  -5.704  -9.485  0.00  0.00    +0.046 A 
ATOM     31  S   UNL     1       2.786  -4.601  -8.281  0.00  0.00    -0.092 S 
ENDBRANCH  24  27
ENDBRANCH   1  23
TORSDOF 5
