REMARK  Name = ZINC06394712
REMARK  5 active torsions:
REMARK  status: ('A' for Active; 'I' for Inactive)
REMARK    1  A    between atoms: C_1  and  C_2
REMARK    2  A    between atoms: C_5  and  C_7
REMARK    3  A    between atoms: C_5  and  O_10
REMARK    4  A    between atoms: C_11  and  C_13
REMARK    5  A    between atoms: C_15  and  C_19
REMARK                            x       y       z     vdW  Elec       q    Type
REMARK                         _______ _______ _______ _____ _____    ______ ____
ROOT
ATOM      1  C   UNL     1      -0.917  -2.272  -0.002  0.00  0.00    +0.149 A 
ATOM      2  C   UNL     1      -1.953  -3.231   0.008  0.00  0.00    +0.062 A 
ATOM      3  C   UNL     1      -1.326  -4.445  -0.009  0.00  0.00    +0.067 A 
ATOM      4  N   UNL     1       0.015  -4.196  -0.020  0.00  0.00    -0.276 N 
ATOM      5  H   UNL     1       0.728  -4.897  -0.030  0.00  0.00    +0.189 HD
ATOM      6  N   UNL     1       0.226  -2.929  -0.015  0.00  0.00    -0.169 NA
ENDROOT
BRANCH   3   7
ATOM      7  C   UNL     1      -1.977  -5.774  -0.010  0.00  0.00    +0.003 A 
ATOM      8  C   UNL     1      -3.368  -5.872   0.002  0.00  0.00    +0.014 A 
ATOM      9  C   UNL     1      -3.973  -7.111   0.001  0.00  0.00    +0.050 A 
ATOM     10  C   UNL     1      -3.202  -8.264  -0.012  0.00  0.00    +0.166 A 
ATOM     11  C   UNL     1      -1.811  -8.174  -0.024  0.00  0.00    +0.167 A 
ATOM     12  C   UNL     1      -1.200  -6.933  -0.029  0.00  0.00    +0.059 A 
ATOM     13  O   UNL     1      -1.292  -9.436  -0.035  0.00  0.00    -0.453 OA
ATOM     14  C   UNL     1      -2.374 -10.293  -0.443  0.00  0.00    +0.466 C 
ATOM     15  O   UNL     1      -3.552  -9.584  -0.016  0.00  0.00    -0.453 OA
ENDBRANCH   3   7
BRANCH   1  22
ATOM     16  C   UNL     1       3.679   0.314  -0.032  0.00  0.00    +0.062 C 
ATOM     17  C   UNL     1       2.184   0.505  -0.016  0.00  0.00    +0.039 C 
ATOM     18  N   UNL     1       1.328  -0.433  -0.013  0.00  0.00    -0.184 NA
ATOM     19  N   UNL     1       0.002  -0.004   0.002  0.00  0.00    -0.150 N 
ATOM     20  C   UNL     1      -0.018   1.468   0.010  0.00  0.00    +0.222 C 
ATOM     21  C   UNL     1       1.478   1.842  -0.002  0.00  0.00    +0.115 C 
ATOM     22  C   UNL     1      -1.082  -0.804   0.008  0.00  0.00    +0.289 C 
ATOM     23  O   UNL     1      -2.197  -0.318   0.021  0.00  0.00    -0.266 OA
BRANCH  20  24
ATOM     24  C   UNL     1      -0.719   2.005  -1.239  0.00  0.00    +0.393 C 
ATOM     25  F   UNL     1      -0.695   3.404  -1.222  0.00  0.00    -0.204 F 
ATOM     26  F   UNL     1      -0.057   1.541  -2.381  0.00  0.00    -0.204 F 
ENDBRANCH  20  24
BRANCH  20  27
ATOM     27  O   UNL     1      -0.650   1.957   1.195  0.00  0.00    -0.365 OA
ATOM     28  H   UNL     1      -1.574   1.688   1.287  0.00  0.00    +0.212 HD
ENDBRANCH  20  27
ENDBRANCH   1  22
TORSDOF 4
