REMARK  Name = ZINC01880744
REMARK  7 active torsions:
REMARK  status: ('A' for Active; 'I' for Inactive)
REMARK    1  A    between atoms: C_1  and  C_2
REMARK    2  A    between atoms: C_5  and  N_8
REMARK    3  A    between atoms: C_16  and  C_20
REMARK    4  A    between atoms: C_16  and  N_24
REMARK    5  A    between atoms: N_24  and  S_25
REMARK    6  A    between atoms: S_25  and  C_28
REMARK    7  A    between atoms: C_31  and  C_34
REMARK                            x       y       z     vdW  Elec       q    Type
REMARK                         _______ _______ _______ _____ _____    ______ ____
ROOT
ATOM      1  N   UNL     1       0.794  -5.113   0.142  0.00  0.00    -0.248 N 
ATOM      2  C   UNL     1       0.555  -5.668   1.378  0.00  0.00    +0.125 A 
ATOM      3  C   UNL     1       0.315  -7.007   1.444  0.00  0.00    +0.097 A 
ATOM      4  C   UNL     1       0.317  -7.779   0.270  0.00  0.00    +0.284 A 
ATOM      5  N   UNL     1       0.557  -7.183  -0.911  0.00  0.00    -0.153 NA
ATOM      6  C   UNL     1       0.782  -5.890  -0.974  0.00  0.00    +0.358 A 
ATOM      7  O   UNL     1       1.015  -5.321  -2.174  0.00  0.00    -0.244 OA
ATOM      8  O   UNL     1       0.102  -8.981   0.322  0.00  0.00    -0.265 OA
ATOM      9  C   UNL     1       0.089  -7.336   2.900  0.00  0.00    +0.243 C 
ATOM     10  C   UNL     1       0.242  -5.997   3.594  0.00  0.00    +0.254 C 
ATOM     11  O   UNL     1       0.142  -5.780   4.783  0.00  0.00    -0.273 OA
ATOM     12  N   UNL     1       0.510  -5.098   2.631  0.00  0.00    -0.269 N 
ATOM     13  H   UNL     1       0.655  -4.154   2.799  0.00  0.00    +0.156 HD
ENDROOT
BRANCH   1  18
ATOM     14  C   UNL     1       1.811   0.452  -0.306  0.00  0.00    +0.044 C 
ATOM     15  C   UNL     1       1.541  -1.026  -0.187  0.00  0.00    -0.050 A 
ATOM     16  C   UNL     1       2.534  -1.936  -0.500  0.00  0.00    +0.005 A 
ATOM     17  C   UNL     1       2.290  -3.291  -0.391  0.00  0.00    +0.026 A 
ATOM     18  C   UNL     1       1.045  -3.739   0.031  0.00  0.00    +0.053 A 
ATOM     19  C   UNL     1       0.050  -2.823   0.344  0.00  0.00    +0.026 A 
ATOM     20  C   UNL     1       0.302  -1.469   0.239  0.00  0.00    +0.005 A 
ENDBRANCH   1  18
BRANCH   9  21
ATOM     21  C   UNL     1       1.145  -8.325   3.398  0.00  0.00    +0.422 C 
ATOM     22  F   UNL     1       2.408  -7.725   3.344  0.00  0.00    -0.168 F 
ATOM     23  F   UNL     1       0.858  -8.688   4.719  0.00  0.00    -0.168 F 
ATOM     24  F   UNL     1       1.136  -9.465   2.588  0.00  0.00    -0.168 F 
ENDBRANCH   9  21
BRANCH   9  25
ATOM     25  N   UNL     1      -1.258  -7.872   3.105  0.00  0.00    -0.162 NA
ATOM     26  H   UNL     1      -1.376  -8.790   3.396  0.00  0.00    +0.150 HD
BRANCH  25  27
ATOM     27  S   UNL     1      -2.581  -6.912   2.841  0.00  0.00    +0.060 S 
ATOM     28  O   UNL     1      -3.721  -7.688   3.181  0.00  0.00    -0.153 OA
ATOM     29  O   UNL     1      -2.302  -5.659   3.452  0.00  0.00    -0.153 OA
BRANCH  27  30
ATOM     30  C   UNL     1      -2.672  -6.616   1.106  0.00  0.00    +0.105 A 
ATOM     31  C   UNL     1      -2.159  -5.447   0.576  0.00  0.00    +0.029 A 
ATOM     32  C   UNL     1      -2.230  -5.216  -0.785  0.00  0.00    +0.005 A 
ATOM     33  C   UNL     1      -2.815  -6.153  -1.616  0.00  0.00    -0.050 A 
ATOM     34  C   UNL     1      -3.328  -7.322  -1.086  0.00  0.00    +0.005 A 
ATOM     35  C   UNL     1      -3.252  -7.556   0.275  0.00  0.00    +0.029 A 
ATOM     36  C   UNL     1      -2.894  -5.900  -3.099  0.00  0.00    +0.044 C 
ENDBRANCH  27  30
ENDBRANCH  25  27
ENDBRANCH   9  25
TORSDOF 5
