REMARK  Name = ZINC44020728
REMARK  11 active torsions:
REMARK  status: ('A' for Active; 'I' for Inactive)
REMARK    1  A    between atoms: C_1  and  C_2
REMARK    2  A    between atoms: C_2  and  C_3
REMARK    3  A    between atoms: C_2  and  N_4
REMARK    4  A    between atoms: C_5  and  C_7
REMARK    5  A    between atoms: N_9  and  N_10
REMARK    6  A    between atoms: C_11  and  C_13
REMARK    7  A    between atoms: C_13  and  C_19
REMARK    8  A    between atoms: C_22  and  C_25
REMARK    9  A    between atoms: C_25  and  C_26
REMARK   10  A    between atoms: C_25  and  C_27
REMARK   11  A    between atoms: C_25  and  C_28
REMARK                            x       y       z     vdW  Elec       q    Type
REMARK                         _______ _______ _______ _____ _____    ______ ____
ROOT
ATOM      1  C   UNL     1      -7.549  -2.386  -3.323  0.00  0.00    +0.073 C 
ATOM      2  C   UNL     1      -7.578  -3.750  -2.631  0.00  0.00    +0.021 C 
ATOM      3  C   UNL     1      -6.767  -4.755  -3.451  0.00  0.00    +0.001 C 
ATOM      4  C   UNL     1      -7.375  -4.880  -4.849  0.00  0.00    +0.000 C 
ATOM      5  C   UNL     1      -7.346  -3.516  -5.542  0.00  0.00    +0.001 C 
ATOM      6  C   UNL     1      -8.157  -2.511  -4.721  0.00  0.00    +0.021 C 
ENDROOT
BRANCH   1   7
ATOM      7  C   UNL     1      -8.347  -1.395  -2.515  0.00  0.00    -0.032 A 
ATOM      8  C   UNL     1      -9.505  -0.851  -3.038  0.00  0.00    +0.005 A 
ATOM      9  C   UNL     1     -10.237   0.058  -2.296  0.00  0.00    +0.004 A 
ATOM     10  C   UNL     1      -9.812   0.421  -1.032  0.00  0.00    -0.042 A 
ATOM     11  C   UNL     1      -8.654  -0.124  -0.509  0.00  0.00    +0.004 A 
ATOM     12  C   UNL     1      -7.924  -1.036  -1.249  0.00  0.00    +0.005 A 
BRANCH  10  13
ATOM     13  C   UNL     1     -10.609   1.413  -0.225  0.00  0.00    -0.013 C 
ATOM     14  C   UNL     1     -12.020   0.867   0.003  0.00  0.00    +0.015 C 
ATOM     15  C   UNL     1      -9.925   1.638   1.125  0.00  0.00    +0.015 C 
ATOM     16  C   UNL     1     -10.692   2.739  -0.983  0.00  0.00    +0.015 C 
ENDBRANCH  10  13
ENDBRANCH   1   7
BRANCH   1  18
ATOM     17  N   UNL     1      -5.839  -0.796  -4.139  0.00  0.00    -0.233 N 
ATOM     18  C   UNL     1      -6.124  -1.910  -3.436  0.00  0.00    +0.240 C 
ATOM     19  O   UNL     1      -5.233  -2.529  -2.893  0.00  0.00    -0.273 OA
ATOM     20  H   UNL     1      -6.539  -0.342  -4.633  0.00  0.00    +0.173 HD
BRANCH  17  23
ATOM     21  C   UNL     1      -4.246   0.819  -4.861  0.00  0.00    +0.315 C 
ATOM     22  O   UNL     1      -5.122   1.387  -5.479  0.00  0.00    -0.264 OA
ATOM     23  N   UNL     1      -4.531  -0.294  -4.158  0.00  0.00    -0.227 N 
ATOM     24  H   UNL     1      -3.830  -0.749  -3.664  0.00  0.00    +0.173 HD
BRANCH  21  26
ATOM     25  N   UNL     1      -2.566   2.468  -5.585  0.00  0.00    -0.305 N 
ATOM     26  C   UNL     1      -2.851   1.354  -4.881  0.00  0.00    +0.301 C 
ATOM     27  O   UNL     1      -1.974   0.786  -4.263  0.00  0.00    -0.265 OA
ATOM     28  H   UNL     1      -3.266   2.922  -6.078  0.00  0.00    +0.149 HD
BRANCH  25  30
ATOM     29  C   UNL     1      -0.393   2.277  -6.690  0.00  0.00    +0.027 C 
ATOM     30  C   UNL     1      -1.198   2.993  -5.604  0.00  0.00    +0.067 C 
ATOM     31  C   UNL     1      -1.232   4.494  -5.899  0.00  0.00    +0.027 C 
ENDBRANCH  25  30
ENDBRANCH  21  26
ENDBRANCH  17  23
ENDBRANCH   1  18
TORSDOF 6
