REMARK  Name = ZINC39227318
REMARK  8 active torsions:
REMARK  status: ('A' for Active; 'I' for Inactive)
REMARK    1  A    between atoms: C_1  and  C_2
REMARK    2  A    between atoms: C_4  and  C_36
REMARK    3  A    between atoms: C_6  and  N_8
REMARK    4  A    between atoms: C_9  and  C_11
REMARK    5  A    between atoms: C_14  and  C_17
REMARK    6  A    between atoms: N_30  and  C_33
REMARK    7  A    between atoms: C_33  and  C_34
REMARK    8  A    between atoms: C_33  and  C_35
REMARK                            x       y       z     vdW  Elec       q    Type
REMARK                         _______ _______ _______ _____ _____    ______ ____
ROOT
ATOM      1  C   UNL     1       0.643  -5.047   8.473  0.00  0.00    -0.017 A 
ATOM      2  C   UNL     1       0.673  -6.444   8.458  0.00  0.00    +0.012 A 
ATOM      3  C   UNL     1       0.788  -7.155   9.632  0.00  0.00    +0.047 A 
ATOM      4  C   UNL     1       0.878  -6.488  10.849  0.00  0.00    +0.132 A 
ATOM      5  C   UNL     1       0.852  -5.083  10.869  0.00  0.00    +0.060 A 
ATOM      6  C   UNL     1       0.739  -4.364   9.681  0.00  0.00    +0.023 A 
ATOM      7  C   UNL     1       0.960  -4.384  12.163  0.00  0.00    +0.170 C 
ATOM      8  O   UNL     1       1.155  -3.189  12.228  0.00  0.00    -0.292 OA
ATOM      9  C   UNL     1       0.813  -5.239  13.409  0.00  0.00    +0.127 C 
ATOM     10  C   UNL     1       1.551  -6.558  13.142  0.00  0.00    +0.114 C 
ATOM     11  O   UNL     1       0.986  -7.195  11.998  0.00  0.00    -0.485 OA
ATOM     12  C   UNL     1       3.032  -6.265  12.890  0.00  0.00    +0.030 C 
ATOM     13  C   UNL     1       3.784  -7.586  12.712  0.00  0.00    -0.075 C 
ATOM     14  N   UNL     1       3.642  -8.400  13.925  0.00  0.00    +0.381 N 
ATOM     15  C   UNL     1       2.231  -8.746  14.130  0.00  0.00    -0.075 C 
ATOM     16  C   UNL     1       1.418  -7.471  14.362  0.00  0.00    +0.030 C 
ATOM     17  H   UNL     1       3.979  -7.879  14.720  0.00  0.00    -0.081 HD
ENDROOT
BRANCH   1  21
ATOM     18  C   UNL     1       0.278  -2.885   4.827  0.00  0.00    +0.037 A 
ATOM     19  C   UNL     1       0.302  -4.282   4.812  0.00  0.00    +0.013 A 
ATOM     20  C   UNL     1       0.421  -4.980   5.992  0.00  0.00    +0.009 A 
ATOM     21  C   UNL     1       0.517  -4.293   7.203  0.00  0.00    -0.018 A 
ATOM     22  C   UNL     1       0.493  -2.898   7.219  0.00  0.00    +0.009 A 
ATOM     23  C   UNL     1       0.380  -2.198   6.040  0.00  0.00    +0.013 A 
BRANCH  18  25
ATOM     24  N   UNL     1       0.052  -2.797   2.392  0.00  0.00    -0.281 N 
ATOM     25  C   UNL     1       0.151  -2.134   3.561  0.00  0.00    +0.248 C 
ATOM     26  O   UNL     1       0.135  -0.919   3.574  0.00  0.00    -0.270 OA
ATOM     27  H   UNL     1      -0.013  -3.765   2.387  0.00  0.00    +0.155 HD
BRANCH  24  33
ATOM     28  C   UNL     1      -1.513  -2.364  -2.248  0.00  0.00    +0.044 C 
ATOM     29  C   UNL     1      -0.707  -1.857  -1.080  0.00  0.00    -0.048 A 
ATOM     30  C   UNL     1       0.025  -0.690  -1.201  0.00  0.00    +0.006 A 
ATOM     31  C   UNL     1       0.767  -0.221  -0.132  0.00  0.00    -0.048 A 
ATOM     32  C   UNL     1       0.777  -0.917   1.061  0.00  0.00    +0.026 A 
ATOM     33  C   UNL     1       0.043  -2.089   1.186  0.00  0.00    +0.034 A 
ATOM     34  C   UNL     1      -0.704  -2.555   0.112  0.00  0.00    +0.026 A 
ATOM     35  C   UNL     1       1.564   1.051  -0.268  0.00  0.00    +0.044 C 
ENDBRANCH  24  33
ENDBRANCH  18  25
ENDBRANCH   1  21
BRANCH  14  36
ATOM     36  C   UNL     1       4.431  -9.632  13.781  0.00  0.00    -0.075 C 
ATOM     37  C   UNL     1       5.904  -9.273  13.576  0.00  0.00    -0.014 C 
ATOM     38  C   UNL     1       4.284 -10.482  15.044  0.00  0.00    -0.014 C 
ENDBRANCH  14  36
TORSDOF 4
