REMARK  Name = ZINC14245555
REMARK  5 active torsions:
REMARK  status: ('A' for Active; 'I' for Inactive)
REMARK    1  A    between atoms: C_6  and  C_7
REMARK    2  A    between atoms: C_10  and  C_12
REMARK    3  A    between atoms: C_12  and  N_13
REMARK    4  A    between atoms: C_14  and  C_16
REMARK    5  A    between atoms: C_16  and  N_17
REMARK                            x       y       z     vdW  Elec       q    Type
REMARK                         _______ _______ _______ _____ _____    ______ ____
ROOT
ATOM      1  N   UNL     1      -0.242   1.246   2.466  0.00  0.00    -0.307 N 
ATOM      2  C   UNL     1      -0.718   1.572   1.248  0.00  0.00    +0.231 C 
ATOM      3  O   UNL     1      -1.714   2.256   1.150  0.00  0.00    -0.274 OA
ATOM      4  H   UNL     1       0.555   0.699   2.544  0.00  0.00    +0.149 HD
ENDROOT
BRANCH   1   5
ATOM      5  C   UNL     1      -0.927   1.718   3.671  0.00  0.00    +0.178 C 
BRANCH   5   9
ATOM      6  C   UNL     1       0.401  -0.057   6.575  0.00  0.00    +0.135 A 
ATOM      7  C   UNL     1       1.192   1.048   6.610  0.00  0.00    +0.050 A 
ATOM      8  C   UNL     1       0.801   1.861   5.527  0.00  0.00    +0.047 A 
ATOM      9  C   UNL     1      -0.198   1.219   4.892  0.00  0.00    +0.123 A 
ATOM     10  O   UNL     1      -0.441   0.063   5.531  0.00  0.00    -0.458 OA
BRANCH   6  16
ATOM     11  C   UNL     1       1.379  -1.190   8.566  0.00  0.00    +0.012 A 
ATOM     12  C   UNL     1       1.418  -2.249   9.449  0.00  0.00    +0.016 A 
ATOM     13  C   UNL     1       0.549  -3.316   9.296  0.00  0.00    +0.018 A 
ATOM     14  C   UNL     1      -0.368  -3.325   8.258  0.00  0.00    +0.016 A 
ATOM     15  C   UNL     1      -0.421  -2.269   7.372  0.00  0.00    +0.012 A 
ATOM     16  C   UNL     1       0.452  -1.191   7.521  0.00  0.00    +0.017 A 
ATOM     17 BR   UNL     1       0.615  -4.766  10.507  0.00  0.00    -0.050 Br
ENDBRANCH   6  16
ENDBRANCH   5   9
ENDBRANCH   1   5
BRANCH   2  18
ATOM     18  C   UNL     1      -0.013   1.086   0.008  0.00  0.00    +0.213 C 
BRANCH  18  19
ATOM     19  N   UNL     1      -0.721   1.571  -1.179  0.00  0.00    -0.215 N 
ATOM     20  C   UNL     1      -0.456   2.743  -1.795  0.00  0.00    +0.247 C 
ATOM     21  O   UNL     1       0.381   3.564  -1.486  0.00  0.00    -0.273 OA
ATOM     22  C   UNL     1      -1.422   2.813  -2.950  0.00  0.00    +0.113 C 
ATOM     23  C   UNL     1      -0.677   2.903  -4.288  0.00  0.00    +0.035 C 
ATOM     24  C   UNL     1      -1.577   3.818  -5.158  0.00  0.00    +0.003 C 
ATOM     25  C   UNL     1      -2.099   4.860  -4.136  0.00  0.00    +0.003 C 
ATOM     26  C   UNL     1      -2.327   4.043  -2.845  0.00  0.00    +0.035 C 
ATOM     27  N   UNL     1      -2.195   1.572  -2.857  0.00  0.00    -0.285 N 
ATOM     28  C   UNL     1      -1.709   0.905  -1.791  0.00  0.00    +0.310 C 
ATOM     29  O   UNL     1      -2.123  -0.178  -1.425  0.00  0.00    -0.252 OA
ATOM     30  H   UNL     1      -2.909   1.286  -3.447  0.00  0.00    +0.151 HD
ENDBRANCH  18  19
ENDBRANCH   2  18
TORSDOF 5
