REMARK  Name = ZINC20568842
REMARK  7 active torsions:
REMARK  status: ('A' for Active; 'I' for Inactive)
REMARK    1  A    between atoms: C_1  and  C_2
REMARK    2  A    between atoms: C_9  and  N_14
REMARK    3  A    between atoms: C_10  and  C_11
REMARK    4  A    between atoms: C_15  and  C_17
REMARK    5  A    between atoms: C_17  and  N_18
REMARK    6  A    between atoms: N_21  and  C_24
REMARK    7  A    between atoms: C_24  and  C_25
REMARK                            x       y       z     vdW  Elec       q    Type
REMARK                         _______ _______ _______ _____ _____    ______ ____
ROOT
ATOM      1  N   UNL     1       2.126   3.111   0.183  0.00  0.00    -0.281 N 
ATOM      2  C   UNL     1       1.800   1.804   0.153  0.00  0.00    +0.201 C 
ATOM      3  O   UNL     1       2.672   0.961   0.166  0.00  0.00    -0.278 OA
ATOM      4  H   UNL     1       1.335   3.876   0.171  0.00  0.00    +0.155 HD
ENDROOT
BRANCH   1  12
ATOM      5  C   UNL     1       9.752   4.845   0.347  0.00  0.00    +0.008 C 
ATOM      6  C   UNL     1       8.259   4.906   0.019  0.00  0.00    -0.009 C 
ATOM      7  C   UNL     1       7.593   6.004   0.852  0.00  0.00    +0.008 C 
ATOM      8  C   UNL     1       6.165   6.240   0.355  0.00  0.00    +0.037 C 
ATOM      9  C   UNL     1       5.434   4.904   0.311  0.00  0.00    -0.023 A 
ATOM     10  C   UNL     1       6.115   3.738   0.314  0.00  0.00    -0.004 A 
ATOM     11  S   UNL     1       4.867   2.484   0.264  0.00  0.00    -0.077 S 
ATOM     12  C   UNL     1       3.458   3.493   0.229  0.00  0.00    +0.084 A 
ATOM     13  C   UNL     1       3.987   4.775   0.265  0.00  0.00    +0.068 A 
ATOM     14  C   UNL     1       7.602   3.560   0.356  0.00  0.00    +0.046 C 
BRANCH  13  15
ATOM     15  C   UNL     1       3.119   5.957   0.257  0.00  0.00    +0.244 C 
ATOM     16  O   UNL     1       2.726   6.430   1.307  0.00  0.00    -0.270 OA
ATOM     17  N   UNL     1       2.756   6.518  -0.913  0.00  0.00    -0.325 N 
ATOM     18  H   UNL     1       2.104   7.404  -0.920  0.00  0.00    +0.145 HD
ATOM     19  H   UNL     1       3.111   6.090  -1.863  0.00  0.00    +0.145 HD
ENDBRANCH  13  15
ENDBRANCH   1  12
BRANCH   2  20
ATOM     20  C   UNL     1       0.352   1.389   0.103  0.00  0.00    +0.019 C 
BRANCH  20  21
ATOM     21  N   UNL     1       0.263  -0.077   0.078  0.00  0.00    +0.387 N 
ATOM     22  C   UNL     1       0.822  -0.617  -1.170  0.00  0.00    -0.063 C 
ATOM     23  C   UNL     1       0.783  -2.146  -1.123  0.00  0.00    +0.066 C 
ATOM     24  N   UNL     1      -0.604  -2.593  -0.933  0.00  0.00    -0.302 NA
ATOM     25  C   UNL     1      -1.163  -2.053   0.314  0.00  0.00    +0.066 C 
ATOM     26  C   UNL     1      -1.124  -0.523   0.267  0.00  0.00    -0.063 C 
ATOM     27  H   UNL     1       0.863  -0.465   0.914  0.00  0.00    -0.081 HD
BRANCH  24  28
ATOM     28  C   UNL     1      -0.693  -4.059  -0.959  0.00  0.00    +0.120 C 
BRANCH  28  29
ATOM     29  C   UNL     1      -0.482  -4.551  -2.367  0.00  0.00    -0.026 A 
ATOM     30  C   UNL     1       0.693  -5.140  -2.717  0.00  0.00    +0.005 A 
ATOM     31  C   UNL     1       0.906  -5.601  -4.015  0.00  0.00    +0.001 A 
ATOM     32  C   UNL     1      -0.055  -5.475  -4.970  0.00  0.00    +0.008 A 
ATOM     33  C   UNL     1      -1.282  -4.872  -4.646  0.00  0.00    -0.018 A 
ATOM     34  C   UNL     1      -1.501  -4.408  -3.325  0.00  0.00    -0.013 A 
ATOM     35  C   UNL     1      -2.727  -3.801  -3.002  0.00  0.00    +0.009 A 
ATOM     36  C   UNL     1      -3.688  -3.675  -3.957  0.00  0.00    +0.001 A 
ATOM     37  C   UNL     1      -3.474  -4.135  -5.255  0.00  0.00    +0.001 A 
ATOM     38  C   UNL     1      -2.299  -4.724  -5.605  0.00  0.00    +0.008 A 
ENDBRANCH  28  29
ENDBRANCH  24  28
ENDBRANCH  20  21
ENDBRANCH   2  20
TORSDOF 6
