REMARK  Name = ZINC09309437
REMARK  4 active torsions:
REMARK  status: ('A' for Active; 'I' for Inactive)
REMARK    1  A    between atoms: C_12  and  C_34
REMARK    2  A    between atoms: C_14  and  C_26
REMARK    3  A    between atoms: C_26  and  C_28
REMARK    4  A    between atoms: C_34  and  C_36
REMARK                            x       y       z     vdW  Elec       q    Type
REMARK                         _______ _______ _______ _____ _____    ______ ____
ROOT
ATOM      1  C   UNL     1       7.819   0.354  -5.936  0.00  0.00    +0.001 A 
ATOM      2  C   UNL     1       6.729   1.099  -5.518  0.00  0.00    +0.002 A 
ATOM      3  C   UNL     1       6.149   0.862  -4.285  0.00  0.00    +0.024 A 
ATOM      4  C   UNL     1       6.657  -0.124  -3.462  0.00  0.00    +0.038 A 
ATOM      5  C   UNL     1       7.766  -0.888  -3.889  0.00  0.00    -0.004 A 
ATOM      6  C   UNL     1       8.340  -0.638  -5.128  0.00  0.00    +0.010 A 
ATOM      7  C   UNL     1       8.284  -1.948  -2.992  0.00  0.00    +0.007 C 
ATOM      8  C   UNL     1       8.037  -1.826  -1.675  0.00  0.00    -0.003 C 
ATOM      9  C   UNL     1       7.256  -0.619  -1.255  0.00  0.00    +0.117 C 
ATOM     10  N   UNL     1       6.143  -0.422  -2.224  0.00  0.00    -0.311 N 
ATOM     11  C   UNL     1       5.269   0.556  -1.564  0.00  0.00    +0.158 C 
ATOM     12  C   UNL     1       5.242   0.074  -0.085  0.00  0.00    +0.110 C 
ATOM     13  C   UNL     1       6.542  -0.738   0.084  0.00  0.00    +0.108 C 
ATOM     14  C   UNL     1       6.262  -2.150   0.467  0.00  0.00    -0.008 A 
ATOM     15  C   UNL     1       5.555  -3.153  -0.162  0.00  0.00    +0.006 A 
ATOM     16  C   UNL     1       5.488  -4.382   0.486  0.00  0.00    +0.000 A 
ATOM     17  C   UNL     1       6.102  -4.586   1.705  0.00  0.00    +0.002 A 
ATOM     18  C   UNL     1       6.814  -3.584   2.345  0.00  0.00    +0.023 A 
ATOM     19  C   UNL     1       6.889  -2.345   1.706  0.00  0.00    +0.038 A 
ATOM     20  N   UNL     1       7.525  -1.184   2.111  0.00  0.00    -0.284 N 
ATOM     21  C   UNL     1       7.372  -0.184   1.215  0.00  0.00    +0.231 C 
ATOM     22  O   UNL     1       7.817   0.940   1.303  0.00  0.00    -0.274 OA
ATOM     23  H   UNL     1       8.021  -1.099   2.940  0.00  0.00    +0.155 HD
ENDROOT
BRANCH  12  24
ATOM     24  C   UNL     1       4.040  -0.802   0.160  0.00  0.00    +0.170 C 
ATOM     25  O   UNL     1       3.488  -1.343  -0.768  0.00  0.00    -0.292 OA
BRANCH  24  26
ATOM     26  C   UNL     1       3.538  -0.998   1.534  0.00  0.00    +0.021 A 
ATOM     27  C   UNL     1       2.496  -1.895   1.798  0.00  0.00    +0.031 A 
ATOM     28  C   UNL     1       2.058  -2.047   3.099  0.00  0.00    +0.111 A 
ATOM     29  N   UNL     1       2.607  -1.363   4.083  0.00  0.00    -0.263 NA
ATOM     30  C   UNL     1       3.589  -0.508   3.879  0.00  0.00    +0.111 A 
ATOM     31  C   UNL     1       4.090  -0.292   2.610  0.00  0.00    +0.031 A 
ENDBRANCH  24  26
ENDBRANCH  12  24
BRANCH  11  32
ATOM     32  C   UNL     1       5.854   1.941  -1.660  0.00  0.00    +0.191 C 
ATOM     33  O   UNL     1       7.029   2.087  -1.933  0.00  0.00    -0.289 OA
BRANCH  32  34
ATOM     34  C   UNL     1       5.037   3.070  -1.433  0.00  0.00    +0.056 A 
ATOM     35  C   UNL     1       5.393   4.414  -1.377  0.00  0.00    +0.019 A 
ATOM     36  C   UNL     1       4.389   5.315  -1.139  0.00  0.00    +0.008 A 
ATOM     37  C   UNL     1       3.116   4.863  -0.974  0.00  0.00    +0.046 A 
ATOM     38  S   UNL     1       3.277   3.146  -1.152  0.00  0.00    -0.094 S 
ENDBRANCH  32  34
ENDBRANCH  11  32
TORSDOF 4
