REMARK  Name = ZINC09673637
REMARK  10 active torsions:
REMARK  status: ('A' for Active; 'I' for Inactive)
REMARK    1  A    between atoms: C_1  and  C_2
REMARK    2  A    between atoms: C_5  and  S_8
REMARK    3  A    between atoms: S_8  and  C_11
REMARK    4  A    between atoms: C_12  and  N_34
REMARK    5  A    between atoms: C_13  and  C_25
REMARK    6  A    between atoms: C_15  and  N_16
REMARK    7  A    between atoms: N_16  and  C_17
REMARK    8  A    between atoms: C_20  and  O_23
REMARK    9  A    between atoms: O_23  and  C_24
REMARK   10  A    between atoms: C_25  and  C_27
REMARK                            x       y       z     vdW  Elec       q    Type
REMARK                         _______ _______ _______ _____ _____    ______ ____
ROOT
ATOM      1  C   UNL     1      -2.291   1.067   0.043  0.00  0.00    +0.143 A 
ATOM      2  C   UNL     1      -1.085   1.716  -0.042  0.00  0.00    +0.070 A 
ATOM      3  C   UNL     1      -1.079   3.114   0.044  0.00  0.00    +0.084 A 
ATOM      4  S   UNL     1      -2.815   3.485   0.235  0.00  0.00    -0.066 S 
ATOM      5  C   UNL     1      -3.442   1.814   0.202  0.00  0.00    +0.098 A 
ENDROOT
BRANCH   1   6
ATOM      6  S   UNL     1      -2.370  -0.691  -0.051  0.00  0.00    +0.029 S 
ATOM      7  O   UNL     1      -3.685  -1.015  -0.484  0.00  0.00    -0.164 OA
ATOM      8  O   UNL     1      -1.211  -1.112  -0.756  0.00  0.00    -0.164 OA
BRANCH   6  13
ATOM      9  C   UNL     1      -1.834  -2.804   5.574  0.00  0.00    +0.044 C 
ATOM     10  C   UNL     1      -1.968  -2.277   4.169  0.00  0.00    -0.050 A 
ATOM     11  C   UNL     1      -3.218  -1.988   3.656  0.00  0.00    +0.005 A 
ATOM     12  C   UNL     1      -3.341  -1.504   2.367  0.00  0.00    +0.027 A 
ATOM     13  C   UNL     1      -2.214  -1.308   1.591  0.00  0.00    +0.094 A 
ATOM     14  C   UNL     1      -0.964  -1.602   2.103  0.00  0.00    +0.027 A 
ATOM     15  C   UNL     1      -0.840  -2.082   3.393  0.00  0.00    +0.005 A 
ENDBRANCH   6  13
ENDBRANCH   1   6
BRANCH   2  16
ATOM     16  N   UNL     1       0.099   1.006  -0.202  0.00  0.00    -0.355 N 
ATOM     17  H   UNL     1       0.868   1.430  -0.614  0.00  0.00    +0.142 HD
ATOM     18  H   UNL     1       0.158   0.086   0.102  0.00  0.00    +0.142 HD
ENDBRANCH   2  16
BRANCH   5  19
ATOM     19  N   UNL     1      -4.750   1.378   0.309  0.00  0.00    -0.307 N 
ATOM     20  H   UNL     1      -4.952   0.431   0.246  0.00  0.00    +0.153 HD
BRANCH  19  21
ATOM     21  C   UNL     1      -5.782   2.302   0.508  0.00  0.00    +0.032 A 
ATOM     22  C   UNL     1      -5.584   3.396   1.340  0.00  0.00    +0.027 A 
ATOM     23  C   UNL     1      -6.601   4.311   1.531  0.00  0.00    +0.047 A 
ATOM     24  C   UNL     1      -7.823   4.131   0.901  0.00  0.00    +0.120 A 
ATOM     25  C   UNL     1      -8.024   3.036   0.074  0.00  0.00    +0.047 A 
ATOM     26  C   UNL     1      -7.006   2.123  -0.122  0.00  0.00    +0.027 A 
BRANCH  24  27
ATOM     27  O   UNL     1      -8.826   5.029   1.094  0.00  0.00    -0.495 OA
ATOM     28  C   UNL     1      -8.550   6.134   1.958  0.00  0.00    +0.277 C 
ENDBRANCH  24  27
ENDBRANCH  19  21
ENDBRANCH   5  19
BRANCH   3  29
ATOM     29  C   UNL     1       0.013   3.998  -0.009  0.00  0.00    +0.202 C 
ATOM     30  O   UNL     1       1.152   3.561  -0.015  0.00  0.00    -0.286 OA
BRANCH  29  31
ATOM     31  C   UNL     1      -0.219   5.459  -0.056  0.00  0.00    +0.023 A 
ATOM     32  C   UNL     1       0.701   6.333   0.526  0.00  0.00    +0.014 A 
ATOM     33  C   UNL     1       0.483   7.693   0.474  0.00  0.00    +0.039 A 
ATOM     34  C   UNL     1      -0.653   8.193  -0.144  0.00  0.00    +0.123 A 
ATOM     35  C   UNL     1      -1.573   7.328  -0.718  0.00  0.00    +0.039 A 
ATOM     36  C   UNL     1      -1.361   5.967  -0.677  0.00  0.00    +0.014 A 
ATOM     37  F   UNL     1      -0.865   9.526  -0.187  0.00  0.00    -0.205 F 
ENDBRANCH  29  31
ENDBRANCH   3  29
TORSDOF 8
