REMARK  Name = ZINC35300773
REMARK  9 active torsions:
REMARK  status: ('A' for Active; 'I' for Inactive)
REMARK    1  A    between atoms: C_1  and  C_2
REMARK    2  A    between atoms: C_2  and  C_3
REMARK    3  A    between atoms: C_3  and  C_5
REMARK    4  A    between atoms: C_3  and  C_6
REMARK    5  A    between atoms: C_6  and  C_8
REMARK    6  A    between atoms: C_6  and  N_23
REMARK    7  A    between atoms: C_14  and  C_16
REMARK    8  A    between atoms: N_26  and  C_27
REMARK    9  A    between atoms: C_31  and  C_33
REMARK                            x       y       z     vdW  Elec       q    Type
REMARK                         _______ _______ _______ _____ _____    ______ ____
ROOT
ATOM      1  C   UNL     1      -2.766  -0.008  -0.740  0.00  0.00    +0.163 C 
ENDROOT
BRANCH   1   2
ATOM      2  C   UNL     1      -2.378   1.448  -0.735  0.00  0.00    +0.239 C 
ATOM      3  O   UNL     1      -3.217   2.300  -0.932  0.00  0.00    -0.273 OA
ATOM      4  N   UNL     1      -1.097   1.803  -0.511  0.00  0.00    -0.262 N 
ATOM      5  C   UNL     1      -0.758   3.145  -0.395  0.00  0.00    +0.188 A 
ATOM      6  N   UNL     1      -1.524   4.227  -0.464  0.00  0.00    -0.125 NA
ATOM      7  N   UNL     1      -1.050   5.388  -0.335  0.00  0.00    -0.140 NA
ATOM      8  C   UNL     1       0.244   5.598  -0.123  0.00  0.00    +0.134 A 
ATOM      9  S   UNL     1       0.835   3.908  -0.102  0.00  0.00    -0.030 S 
ATOM     10  H   UNL     1      -0.412   1.121  -0.431  0.00  0.00    +0.157 HD
BRANCH   8  11
ATOM     11  C   UNL     1       0.984   6.866   0.052  0.00  0.00    +0.009 A 
ATOM     12  C   UNL     1       2.364   6.848   0.261  0.00  0.00    +0.013 A 
ATOM     13  C   UNL     1       3.050   8.033   0.423  0.00  0.00    +0.039 A 
ATOM     14  C   UNL     1       2.372   9.241   0.380  0.00  0.00    +0.123 A 
ATOM     15  C   UNL     1       1.001   9.264   0.173  0.00  0.00    +0.039 A 
ATOM     16  C   UNL     1       0.307   8.085   0.003  0.00  0.00    +0.013 A 
ATOM     17  F   UNL     1       3.048  10.399   0.540  0.00  0.00    -0.205 F 
ENDBRANCH   8  11
ENDBRANCH   1   2
BRANCH   1  18
ATOM     18  N   UNL     1      -4.016  -0.178  -1.487  0.00  0.00    -0.288 N 
ATOM     19  C   UNL     1      -4.303  -1.363  -2.059  0.00  0.00    +0.304 C 
ATOM     20  O   UNL     1      -3.526  -2.293  -1.955  0.00  0.00    -0.252 OA
ATOM     21  N   UNL     1      -5.452  -1.519  -2.746  0.00  0.00    -0.269 N 
ATOM     22  H   UNL     1      -4.636   0.564  -1.569  0.00  0.00    +0.151 HD
ATOM     23  H   UNL     1      -6.039  -0.760  -2.888  0.00  0.00    +0.156 HD
BRANCH  21  24
ATOM     24  C   UNL     1      -5.799  -2.776  -3.254  0.00  0.00    +0.035 A 
ATOM     25  C   UNL     1      -7.131  -3.166  -3.297  0.00  0.00    +0.023 A 
ATOM     26  C   UNL     1      -7.470  -4.407  -3.800  0.00  0.00    +0.002 A 
ATOM     27  C   UNL     1      -6.484  -5.261  -4.259  0.00  0.00    +0.012 A 
ATOM     28  C   UNL     1      -5.156  -4.877  -4.217  0.00  0.00    +0.057 A 
ATOM     29  C   UNL     1      -4.812  -3.634  -3.721  0.00  0.00    +0.035 A 
BRANCH  28  30
ATOM     30  C   UNL     1      -4.085  -5.811  -4.717  0.00  0.00    +0.417 C 
ATOM     31  F   UNL     1      -4.675  -6.996  -5.171  0.00  0.00    -0.166 F 
ATOM     32  F   UNL     1      -3.390  -5.203  -5.768  0.00  0.00    -0.166 F 
ATOM     33  F   UNL     1      -3.196  -6.101  -3.676  0.00  0.00    -0.166 F 
ENDBRANCH  28  30
ENDBRANCH  21  24
ENDBRANCH   1  18
BRANCH   1  34
ATOM     34  C   UNL     1      -2.963  -0.488   0.699  0.00  0.00    +0.015 C 
ATOM     35  C   UNL     1      -4.169   0.225   1.315  0.00  0.00    +0.010 C 
BRANCH  34  37
ATOM     36  C   UNL     1      -1.942  -2.722   0.239  0.00  0.00    +0.004 C 
ATOM     37  C   UNL     1      -3.208  -1.999   0.704  0.00  0.00    +0.002 C 
ENDBRANCH  34  37
ENDBRANCH   1  34
TORSDOF 7
