REMARK  Name = ZINC01933535
REMARK  5 active torsions:
REMARK  status: ('A' for Active; 'I' for Inactive)
REMARK    1  A    between atoms: C_4  and  C_7
REMARK    2  A    between atoms: N_9  and  C_10
REMARK    3  A    between atoms: C_11  and  C_19
REMARK    4  A    between atoms: N_21  and  C_22
REMARK    5  A    between atoms: C_26  and  C_28
REMARK                            x       y       z     vdW  Elec       q    Type
REMARK                         _______ _______ _______ _____ _____    ______ ____
ROOT
ATOM      1  C   UNL     1       6.238  -0.672   0.131  0.00  0.00    +0.085 A 
ATOM      2  C   UNL     1       7.507  -0.145  -0.065  0.00  0.00    +0.069 A 
ATOM      3  C   UNL     1       8.603  -1.082  -0.248  0.00  0.00    -0.023 A 
ATOM      4  C   UNL     1       8.255  -2.387  -0.216  0.00  0.00    -0.004 A 
ATOM      5  S   UNL     1       6.506  -2.383   0.060  0.00  0.00    -0.077 S 
ATOM      6  C   UNL     1       9.161  -3.568  -0.380  0.00  0.00    +0.043 C 
ATOM      7  C   UNL     1      10.494  -3.077  -0.965  0.00  0.00    +0.005 C 
ATOM      8  C   UNL     1      10.960  -1.854  -0.170  0.00  0.00    +0.005 C 
ATOM      9  C   UNL     1      10.050  -0.661  -0.469  0.00  0.00    +0.037 C 
ENDROOT
BRANCH   1  12
ATOM     10  C   UNL     1       3.900  -0.684   0.499  0.00  0.00    +0.249 C 
ATOM     11  O   UNL     1       3.912  -1.899   0.476  0.00  0.00    -0.270 OA
ATOM     12  N   UNL     1       5.046   0.005   0.330  0.00  0.00    -0.275 N 
ATOM     13  H   UNL     1       5.036   0.975   0.348  0.00  0.00    +0.156 HD
BRANCH  10  17
ATOM     14  C   UNL     1       0.245   1.392   1.109  0.00  0.00    +0.000 A 
ATOM     15  C   UNL     1       1.420   2.102   0.936  0.00  0.00    +0.001 A 
ATOM     16  C   UNL     1       2.611   1.434   0.738  0.00  0.00    +0.013 A 
ATOM     17  C   UNL     1       2.628   0.038   0.711  0.00  0.00    +0.037 A 
ATOM     18  C   UNL     1       1.439  -0.672   0.886  0.00  0.00    +0.013 A 
ATOM     19  C   UNL     1       0.256   0.009   1.084  0.00  0.00    +0.001 A 
ENDBRANCH  10  17
ENDBRANCH   1  12
BRANCH   2  20
ATOM     20  C   UNL     1       7.735   1.303  -0.083  0.00  0.00    +0.251 C 
ATOM     21  O   UNL     1       7.996   1.891   0.951  0.00  0.00    -0.270 OA
ATOM     22  N   UNL     1       7.654   1.983  -1.243  0.00  0.00    -0.281 N 
ATOM     23  H   UNL     1       7.522   1.506  -2.077  0.00  0.00    +0.155 HD
BRANCH  22  24
ATOM     24  C   UNL     1       7.762   3.378  -1.245  0.00  0.00    +0.034 A 
ATOM     25  C   UNL     1       8.355   4.028  -2.321  0.00  0.00    +0.023 A 
ATOM     26  C   UNL     1       8.464   5.406  -2.327  0.00  0.00    +0.003 A 
ATOM     27  C   UNL     1       7.984   6.146  -1.266  0.00  0.00    +0.015 A 
ATOM     28  C   UNL     1       7.385   5.503  -0.180  0.00  0.00    +0.065 A 
ATOM     29  C   UNL     1       7.271   4.112  -0.176  0.00  0.00    +0.038 A 
BRANCH  28  30
ATOM     30  C   UNL     1       6.870   6.293   0.957  0.00  0.00    +0.387 C 
ATOM     31  O   UNL     1       6.350   5.731   1.900  0.00  0.00    -0.241 OA
ATOM     32  O   UNL     1       6.977   7.636   0.948  0.00  0.00    -0.241 OA
ENDBRANCH  28  30
ENDBRANCH  22  24
ENDBRANCH   2  20
TORSDOF 5
