REMARK  Name = ZINC27550481
REMARK  9 active torsions:
REMARK  status: ('A' for Active; 'I' for Inactive)
REMARK    1  A    between atoms: C_1  and  C_2
REMARK    2  A    between atoms: C_4  and  C_8
REMARK    3  A    between atoms: C_5  and  C_7
REMARK    4  A    between atoms: C_10  and  C_33
REMARK    5  A    between atoms: C_11  and  N_32
REMARK    6  A    between atoms: N_12  and  C_22
REMARK    7  A    between atoms: C_18  and  C_20
REMARK    8  A    between atoms: C_18  and  C_21
REMARK    9  A    between atoms: C_24  and  N_29
REMARK                            x       y       z     vdW  Elec       q    Type
REMARK                         _______ _______ _______ _____ _____    ______ ____
ROOT
ATOM      1  C   UNL     1      -0.487   4.010   0.820  0.00  0.00    +0.098 C 
ATOM      2  C   UNL     1       0.492   4.822   1.616  0.00  0.00    +0.077 C 
ATOM      3  C   UNL     1       0.123   5.991   2.200  0.00  0.00    +0.107 C 
ATOM      4  N   UNL     1      -1.165   6.456   2.062  0.00  0.00    -0.259 N 
ATOM      5  C   UNL     1      -1.966   5.997   1.049  0.00  0.00    +0.025 C 
ATOM      6  C   UNL     1      -1.681   4.839   0.417  0.00  0.00    +0.025 C 
ATOM      7  C   UNL     1      -2.486   4.370  -0.635  0.00  0.00    +0.162 C 
ATOM      8  O   UNL     1      -2.208   3.318  -1.176  0.00  0.00    -0.292 OA
ATOM      9  C   UNL     1      -3.685   5.147  -1.105  0.00  0.00    +0.086 C 
ATOM     10  C   UNL     1      -3.451   6.637  -0.836  0.00  0.00    -0.023 C 
ATOM     11  C   UNL     1      -3.167   6.821   0.656  0.00  0.00    +0.058 C 
ATOM     12  C   UNL     1      -2.252   7.124  -1.652  0.00  0.00    +0.011 C 
ATOM     13  C   UNL     1      -4.698   7.432  -1.229  0.00  0.00    +0.011 C 
ENDROOT
BRANCH   1  17
ATOM     14  C   UNL     1      -2.772   1.952   4.879  0.00  0.00    +0.051 C 
ATOM     15  C   UNL     1      -2.031   1.984   3.567  0.00  0.00    -0.013 A 
ATOM     16  C   UNL     1      -1.632   3.055   2.839  0.00  0.00    +0.015 A 
ATOM     17  C   UNL     1      -0.954   2.844   1.653  0.00  0.00    -0.025 A 
ATOM     18  C   UNL     1      -0.718   1.572   1.248  0.00  0.00    -0.009 A 
ATOM     19  S   UNL     1      -1.453   0.622   2.568  0.00  0.00    -0.098 S 
ATOM     20  C   UNL     1      -0.013   1.086   0.008  0.00  0.00    +0.052 C 
ENDBRANCH   1  17
BRANCH   4  21
ATOM     21  C   UNL     1      -1.662   7.404   2.964  0.00  0.00    +0.060 A 
ATOM     22  C   UNL     1      -2.309   6.992   4.122  0.00  0.00    +0.058 A 
ATOM     23  C   UNL     1      -2.793   7.930   5.012  0.00  0.00    +0.128 A 
ATOM     24  C   UNL     1      -2.644   9.279   4.748  0.00  0.00    +0.034 A 
ATOM     25  C   UNL     1      -2.005   9.694   3.594  0.00  0.00    +0.024 A 
ATOM     26  C   UNL     1      -1.514   8.761   2.701  0.00  0.00    +0.063 A 
ATOM     27 CL   UNL     1      -0.712   9.282   1.252  0.00  0.00    -0.082 Cl
BRANCH  23  28
ATOM     28  N   UNL     1      -3.477   7.490   6.249  0.00  0.00    +0.056 N 
ATOM     29  O   UNL     1      -3.909   8.317   7.033  0.00  0.00    -0.126 OA
ATOM     30  O   UNL     1      -3.609   6.302   6.483  0.00  0.00    -0.126 OA
ENDBRANCH  23  28
ENDBRANCH   4  21
BRANCH   3  31
ATOM     31  N   UNL     1       1.038   6.711   2.931  0.00  0.00    -0.345 N 
ATOM     32  H   UNL     1       0.740   7.658   3.405  0.00  0.00    +0.144 HD
ATOM     33  H   UNL     1       2.067   6.341   3.042  0.00  0.00    +0.144 HD
ENDBRANCH   3  31
BRANCH   2  34
ATOM     34  C   UNL     1       1.838   4.356   1.762  0.00  0.00    +0.099 C 
ATOM     35  N   UNL     1       2.906   3.986   1.879  0.00  0.00    -0.191 NA
ENDBRANCH   2  34
TORSDOF 5
