REMARK  Name = ZINC27569784
REMARK  9 active torsions:
REMARK  status: ('A' for Active; 'I' for Inactive)
REMARK    1  A    between atoms: C_1  and  C_2
REMARK    2  A    between atoms: C_2  and  C_22
REMARK    3  A    between atoms: N_3  and  N_4
REMARK    4  A    between atoms: C_10  and  C_13
REMARK    5  A    between atoms: N_15  and  C_16
REMARK    6  A    between atoms: C_23  and  C_24
REMARK    7  A    between atoms: C_27  and  N_30
REMARK    8  A    between atoms: N_30  and  C_31
REMARK    9  A    between atoms: N_30  and  C_32
REMARK                            x       y       z     vdW  Elec       q    Type
REMARK                         _______ _______ _______ _____ _____    ______ ____
ROOT
ATOM      1  N   UNL     1       0.046  -0.006   2.261  0.00  0.00    -0.127 NA
ATOM      2  C   UNL     1       0.059  -0.677   3.396  0.00  0.00    +0.183 C 
ATOM      3  N   UNL     1       0.079  -2.059   3.414  0.00  0.00    -0.264 N 
ATOM      4  C   UNL     1      -0.214  -2.795   4.476  0.00  0.00    +0.220 C 
ATOM      5  O   UNL     1      -0.278  -3.991   4.286  0.00  0.00    -0.275 OA
ATOM      6  C   UNL     1      -0.476  -2.348   5.873  0.00  0.00    +0.120 C 
ATOM      7  C   UNL     1      -1.042  -0.928   5.937  0.00  0.00    +0.149 C 
ATOM      8  S   UNL     1       0.058   0.156   4.960  0.00  0.00    -0.075 S 
ATOM      9  H   UNL     1       0.323  -2.520   2.596  0.00  0.00    +0.157 HD
ENDROOT
BRANCH   7  10
ATOM     10  C   UNL     1      -1.081  -0.458   7.368  0.00  0.00    +0.231 C 
ATOM     11  O   UNL     1      -0.210  -0.797   8.142  0.00  0.00    -0.274 OA
ATOM     12  N   UNL     1      -2.083   0.338   7.789  0.00  0.00    -0.285 N 
ATOM     13  H   UNL     1      -2.742   0.664   7.156  0.00  0.00    +0.155 HD
BRANCH  12  14
ATOM     14  C   UNL     1      -2.173   0.696   9.139  0.00  0.00    +0.033 A 
ATOM     15  C   UNL     1      -3.417   0.837   9.739  0.00  0.00    +0.023 A 
ATOM     16  C   UNL     1      -3.503   1.190  11.072  0.00  0.00    +0.002 A 
ATOM     17  C   UNL     1      -2.352   1.402  11.808  0.00  0.00    +0.000 A 
ATOM     18  C   UNL     1      -1.111   1.262  11.213  0.00  0.00    +0.002 A 
ATOM     19  C   UNL     1      -1.019   0.903   9.882  0.00  0.00    +0.023 A 
ENDBRANCH  12  14
ENDBRANCH   7  10
BRANCH   1  22
ATOM     20  C   UNL     1       0.019   1.534   0.025  0.00  0.00    +0.067 C 
ATOM     21  C   UNL     1       0.034   0.027   0.009  0.00  0.00    +0.061 C 
ATOM     22  N   UNL     1       0.047  -0.640   1.138  0.00  0.00    -0.152 NA
BRANCH  21  23
ATOM     23  C   UNL     1       0.035  -0.666  -1.221  0.00  0.00    +0.025 C 
ATOM     24  C   UNL     1       0.048  -2.018  -1.235  0.00  0.00    +0.010 C 
BRANCH  24  25
ATOM     25  C   UNL     1       0.049  -2.740  -2.516  0.00  0.00    -0.025 A 
ATOM     26  C   UNL     1       0.042  -2.030  -3.722  0.00  0.00    +0.010 A 
ATOM     27  C   UNL     1       0.042  -2.710  -4.919  0.00  0.00    +0.023 A 
ATOM     28  C   UNL     1       0.050  -4.101  -4.931  0.00  0.00    +0.029 A 
ATOM     29  C   UNL     1       0.058  -4.811  -3.735  0.00  0.00    +0.023 A 
ATOM     30  C   UNL     1       0.063  -4.139  -2.533  0.00  0.00    +0.010 A 
BRANCH  28  31
ATOM     31  N   UNL     1       0.050  -4.786  -6.146  0.00  0.00    -0.336 N 
ATOM     32  C   UNL     1       0.041  -4.040  -7.407  0.00  0.00    +0.129 C 
ATOM     33  C   UNL     1       0.058  -6.251  -6.161  0.00  0.00    +0.129 C 
ENDBRANCH  28  31
ENDBRANCH  24  25
ENDBRANCH  21  23
ENDBRANCH   1  22
TORSDOF 6
