REMARK  Name = ZINC33058476
REMARK  8 active torsions:
REMARK  status: ('A' for Active; 'I' for Inactive)
REMARK    1  A    between atoms: C_1  and  C_2
REMARK    2  A    between atoms: C_7  and  N_8
REMARK    3  A    between atoms: N_8  and  C_9
REMARK    4  A    between atoms: C_10  and  S_24
REMARK    5  A    between atoms: C_11  and  N_23
REMARK    6  A    between atoms: C_12  and  C_14
REMARK    7  A    between atoms: C_14  and  C_16
REMARK    8  A    between atoms: S_24  and  C_27
REMARK                            x       y       z     vdW  Elec       q    Type
REMARK                         _______ _______ _______ _____ _____    ______ ____
ROOT
ATOM      1  C   UNL     1       1.062  -0.919   0.228  0.00  0.00    +0.098 A 
ATOM      2  C   UNL     1       1.445  -2.150  -0.270  0.00  0.00    +0.143 A 
ATOM      3  C   UNL     1       2.784  -2.436  -0.372  0.00  0.00    +0.070 A 
ATOM      4  C   UNL     1       3.702  -1.460   0.036  0.00  0.00    +0.084 A 
ATOM      5  S   UNL     1       2.629  -0.132   0.559  0.00  0.00    -0.066 S 
ENDROOT
BRANCH   3   6
ATOM      6  N   UNL     1       3.216  -3.661  -0.867  0.00  0.00    -0.355 N 
ATOM      7  H   UNL     1       4.292  -3.875  -0.942  0.00  0.00    +0.142 HD
ATOM      8  H   UNL     1       2.482  -4.416  -1.184  0.00  0.00    +0.142 HD
ENDBRANCH   3   6
BRANCH   2   9
ATOM      9  S   UNL     1       0.236  -3.332  -0.765  0.00  0.00    +0.029 S 
ATOM     10  O   UNL     1       0.824  -4.613  -0.585  0.00  0.00    -0.164 OA
ATOM     11  O   UNL     1      -0.981  -2.956  -0.134  0.00  0.00    -0.164 OA
BRANCH   9  12
ATOM     12  C   UNL     1      -0.011  -3.130  -2.498  0.00  0.00    +0.094 A 
ATOM     13  C   UNL     1      -0.979  -2.259  -2.960  0.00  0.00    +0.029 A 
ATOM     14  C   UNL     1      -1.170  -2.095  -4.320  0.00  0.00    +0.022 A 
ATOM     15  C   UNL     1      -0.399  -2.813  -5.217  0.00  0.00    +0.041 A 
ATOM     16  C   UNL     1       0.566  -3.689  -4.753  0.00  0.00    +0.022 A 
ATOM     17  C   UNL     1       0.759  -3.847  -3.394  0.00  0.00    +0.029 A 
ATOM     18 CL   UNL     1      -0.642  -2.614  -6.924  0.00  0.00    -0.084 Cl
ENDBRANCH   9  12
ENDBRANCH   2   9
BRANCH   1  19
ATOM     19  N   UNL     1      -0.215  -0.421   0.416  0.00  0.00    -0.307 N 
ATOM     20  H   UNL     1      -1.086  -0.993   0.065  0.00  0.00    +0.153 HD
BRANCH  19  27
ATOM     21  C   UNL     1      -2.378   1.222  -0.432  0.00  0.00    +0.045 C 
ATOM     22  C   UNL     1      -1.441   1.643   0.670  0.00  0.00    -0.029 A 
ATOM     23  C   UNL     1      -1.621   2.857   1.305  0.00  0.00    +0.005 A 
ATOM     24  C   UNL     1      -0.759   3.247   2.313  0.00  0.00    +0.000 A 
ATOM     25  C   UNL     1       0.284   2.421   2.692  0.00  0.00    +0.002 A 
ATOM     26  C   UNL     1       0.468   1.205   2.065  0.00  0.00    +0.023 A 
ATOM     27  C   UNL     1      -0.398   0.810   1.052  0.00  0.00    +0.035 A 
ENDBRANCH  19  27
ENDBRANCH   1  19
BRANCH   4  28
ATOM     28  C   UNL     1       5.107  -1.512   0.031  0.00  0.00    +0.202 C 
ATOM     29  O   UNL     1       5.678  -2.552  -0.249  0.00  0.00    -0.286 OA
BRANCH  28  30
ATOM     30  C   UNL     1       5.893  -0.303   0.364  0.00  0.00    +0.023 A 
ATOM     31  C   UNL     1       5.404   0.963   0.035  0.00  0.00    +0.014 A 
ATOM     32  C   UNL     1       6.137   2.086   0.353  0.00  0.00    +0.039 A 
ATOM     33  C   UNL     1       7.364   1.960   0.987  0.00  0.00    +0.123 A 
ATOM     34  C   UNL     1       7.856   0.705   1.310  0.00  0.00    +0.039 A 
ATOM     35  C   UNL     1       7.128  -0.425   1.002  0.00  0.00    +0.014 A 
ATOM     36  F   UNL     1       8.081   3.063   1.291  0.00  0.00    -0.205 F 
ENDBRANCH  28  30
ENDBRANCH   4  28
TORSDOF 7
