REMARK  Name = ZINC36698942
REMARK  11 active torsions:
REMARK  status: ('A' for Active; 'I' for Inactive)
REMARK    1  A    between atoms: C_1  and  C_2
REMARK    2  A    between atoms: C_7  and  C_8
REMARK    3  A    between atoms: N_12  and  C_13
REMARK    4  A    between atoms: C_13  and  C_14
REMARK    5  A    between atoms: C_14  and  C_15
REMARK    6  A    between atoms: C_15  and  N_16
REMARK    7  A    between atoms: N_16  and  C_17
REMARK    8  A    between atoms: N_16  and  C_18
REMARK    9  A    between atoms: C_19  and  C_21
REMARK   10  A    between atoms: C_24  and  S_27
REMARK   11  A    between atoms: S_27  and  N_30
REMARK                            x       y       z     vdW  Elec       q    Type
REMARK                         _______ _______ _______ _____ _____    ______ ____
ROOT
ATOM      1  C   UNL     1       0.596   0.776   0.839  0.00  0.00    +0.044 C 
ATOM      2  C   UNL     1       0.572  -0.717   0.629  0.00  0.00    -0.045 A 
ATOM      3  C   UNL     1       0.325  -1.213  -0.624  0.00  0.00    +0.032 A 
ATOM      4  C   UNL     1       0.294  -2.607  -0.856  0.00  0.00    +0.081 A 
ATOM      5  C   UNL     1       0.531  -3.432   0.268  0.00  0.00    +0.041 A 
ATOM      6  C   UNL     1       0.778  -2.926   1.519  0.00  0.00    +0.021 A 
ATOM      7  C   UNL     1       0.806  -1.556   1.708  0.00  0.00    -0.046 A 
ATOM      8  C   UNL     1       1.081  -0.982   3.074  0.00  0.00    +0.044 C 
ATOM      9  S   UNL     1       0.411  -5.063  -0.427  0.00  0.00    -0.052 S 
ATOM     10  C   UNL     1       0.065  -4.565  -2.109  0.00  0.00    +0.168 A 
ATOM     11  N   UNL     1       0.067  -3.255  -2.019  0.00  0.00    -0.224 NA
ATOM     12  N   UNL     1      -0.150  -5.358  -3.223  0.00  0.00    -0.246 N 
ATOM     13  C   UNL     1      -0.110  -6.701  -3.111  0.00  0.00    +0.252 C 
ATOM     14  O   UNL     1       0.040  -7.216  -2.021  0.00  0.00    -0.270 OA
ENDROOT
BRANCH  13  15
ATOM     15  C   UNL     1      -0.249  -7.546  -4.315  0.00  0.00    +0.037 A 
ATOM     16  C   UNL     1       0.368  -7.172  -5.510  0.00  0.00    +0.015 A 
ATOM     17  C   UNL     1       0.234  -7.966  -6.630  0.00  0.00    +0.029 A 
ATOM     18  C   UNL     1      -0.509  -9.132  -6.571  0.00  0.00    +0.106 A 
ATOM     19  C   UNL     1      -1.124  -9.508  -5.390  0.00  0.00    +0.029 A 
ATOM     20  C   UNL     1      -0.994  -8.726  -4.261  0.00  0.00    +0.015 A 
BRANCH  18  21
ATOM     21  S   UNL     1      -0.675 -10.140  -8.006  0.00  0.00    +0.061 S 
ATOM     22  O   UNL     1      -1.869 -10.893  -7.838  0.00  0.00    -0.153 OA
ATOM     23  O   UNL     1      -0.460  -9.292  -9.126  0.00  0.00    -0.153 OA
BRANCH  21  24
ATOM     24  N   UNL     1       0.575 -11.226  -7.988  0.00  0.00    -0.177 NA
ATOM     25  C   UNL     1       1.857 -10.903  -8.628  0.00  0.00    +0.109 C 
ATOM     26  C   UNL     1       2.982 -11.103  -7.607  0.00  0.00    +0.017 C 
ATOM     27  C   UNL     1       2.904 -12.522  -7.040  0.00  0.00    +0.003 C 
ATOM     28  C   UNL     1       1.564 -12.714  -6.326  0.00  0.00    +0.017 C 
ATOM     29  C   UNL     1       0.425 -12.530  -7.326  0.00  0.00    +0.109 C 
ENDBRANCH  21  24
ENDBRANCH  18  21
ENDBRANCH  13  15
BRANCH  12  30
ATOM     30  C   UNL     1      -0.420  -4.739  -4.522  0.00  0.00    +0.114 C 
BRANCH  30  31
ATOM     31  C   UNL     1       0.874  -4.143  -5.082  0.00  0.00    +0.001 C 
BRANCH  31  32
ATOM     32  C   UNL     1       0.626  -3.631  -6.503  0.00  0.00    -0.078 C 
BRANCH  32  33
ATOM     33  N   UNL     1       1.868  -3.060  -7.040  0.00  0.00    +0.376 N 
ATOM     34  C   UNL     1       1.664  -2.677  -8.444  0.00  0.00    -0.097 C 
ATOM     35  C   UNL     1       2.240  -1.873  -6.258  0.00  0.00    -0.097 C 
ATOM     36  H   UNL     1       2.607  -3.745  -6.982  0.00  0.00    -0.083 HD
ENDBRANCH  32  33
ENDBRANCH  31  32
ENDBRANCH  30  31
ENDBRANCH  12  30
TORSDOF 7
