REMARK  Name = ZINC09963303
REMARK  16 active torsions:
REMARK  status: ('A' for Active; 'I' for Inactive)
REMARK    1  A    between atoms: C_1  and  C_2
REMARK    2  A    between atoms: C_2  and  C_3
REMARK    3  A    between atoms: C_3  and  C_5
REMARK    4  A    between atoms: C_3  and  N_78
REMARK    5  A    between atoms: C_6  and  C_7
REMARK    6  A    between atoms: C_6  and  N_78
REMARK    7  A    between atoms: C_7  and  N_8
REMARK    8  A    between atoms: C_9  and  C_11
REMARK    9  A    between atoms: C_11  and  N_12
REMARK   10  A    between atoms: C_15  and  S_23
REMARK   11  A    between atoms: S_23  and  N_26
REMARK   12  A    between atoms: N_26  and  C_27
REMARK   13  A    between atoms: N_26  and  C_29
REMARK   14  A    between atoms: C_27  and  C_28
REMARK   15  A    between atoms: C_29  and  C_30
REMARK   16  A    between atoms: C_31  and  N_78
REMARK                            x       y       z     vdW  Elec       q    Type
REMARK                         _______ _______ _______ _____ _____    ______ ____
ROOT
ATOM      1  C   UNL     1       2.663   5.514   0.234  0.00  0.00    +0.209 C 
ENDROOT
BRANCH   1   2
ATOM      2  N   UNL     1       2.280   4.130  -0.055  0.00  0.00    -0.256 N 
ATOM      3  C   UNL     1       0.929   3.781  -0.200  0.00  0.00    +0.081 A 
ATOM      4  C   UNL     1      -0.036   4.755  -0.392  0.00  0.00    +0.055 A 
ATOM      5  C   UNL     1      -1.363   4.390  -0.532  0.00  0.00    +0.107 A 
ATOM      6  C   UNL     1      -1.726   3.056  -0.486  0.00  0.00    +0.032 A 
ATOM      7  C   UNL     1      -0.766   2.079  -0.289  0.00  0.00    +0.049 A 
ATOM      8  C   UNL     1       0.563   2.437  -0.148  0.00  0.00    +0.143 A 
ATOM      9  O   UNL     1       1.521   1.490   0.038  0.00  0.00    -0.481 OA
ATOM     10  C   UNL     1       2.809   1.759  -0.520  0.00  0.00    +0.325 C 
ATOM     11  C   UNL     1       3.221   3.170  -0.185  0.00  0.00    +0.258 C 
ATOM     12  O   UNL     1       4.394   3.443  -0.035  0.00  0.00    -0.271 OA
BRANCH   5  13
ATOM     13  S   UNL     1      -2.594   5.627  -0.777  0.00  0.00    +0.061 S 
ATOM     14  O   UNL     1      -3.823   5.069  -0.334  0.00  0.00    -0.153 OA
ATOM     15  O   UNL     1      -2.068   6.834  -0.242  0.00  0.00    -0.153 OA
BRANCH  13  16
ATOM     16  N   UNL     1      -2.739   5.856  -2.410  0.00  0.00    -0.177 NA
BRANCH  16  17
ATOM     17  C   UNL     1      -3.698   5.059  -3.179  0.00  0.00    +0.106 C 
ATOM     18  C   UNL     1      -5.008   5.835  -3.322  0.00  0.00    +0.022 C 
ENDBRANCH  16  17
BRANCH  16  19
ATOM     19  C   UNL     1      -1.909   6.856  -3.086  0.00  0.00    +0.106 C 
ATOM     20  C   UNL     1      -0.663   6.181  -3.661  0.00  0.00    +0.022 C 
ENDBRANCH  16  19
ENDBRANCH  13  16
ENDBRANCH   5  13
ENDBRANCH   1   2
BRANCH   1  22
ATOM     21  N   UNL     1       3.048   6.927   2.228  0.00  0.00    -0.316 N 
ATOM     22  C   UNL     1       2.715   5.721   1.725  0.00  0.00    +0.231 C 
ATOM     23  O   UNL     1       2.456   4.803   2.474  0.00  0.00    -0.274 OA
ATOM     24  H   UNL     1       3.255   7.661   1.629  0.00  0.00    +0.149 HD
BRANCH  21  25
ATOM     25  C   UNL     1       3.098   7.128   3.678  0.00  0.00    +0.086 C 
BRANCH  25  26
ATOM     26  C   UNL     1       3.498   8.573   3.979  0.00  0.00    -0.059 C 
BRANCH  26  27
ATOM     27  N   UNL     1       3.366   8.811   5.432  0.00  0.00    +0.384 N 
ATOM     28  H   UNL     1       2.436   8.501   5.737  0.00  0.00    -0.081 HD
BRANCH  27  29
ATOM     29  C   UNL     1       3.510  10.254   5.722  0.00  0.00    -0.068 C 
ATOM     30  C   UNL     1       3.186  10.495   7.198  0.00  0.00    -0.015 C 
ATOM     31  C   UNL     1       3.308  11.988   7.509  0.00  0.00    -0.002 C 
ATOM     32  C   UNL     1       2.328  12.774   6.636  0.00  0.00    -0.000 C 
ATOM     33  C   UNL     1       2.652  12.532   5.161  0.00  0.00    -0.002 C 
ATOM     34  C   UNL     1       2.529  11.039   4.849  0.00  0.00    -0.015 C 
ENDBRANCH  27  29
BRANCH  27  35
ATOM     35  C   UNL     1       4.394   8.043   6.165  0.00  0.00    -0.072 C 
ATOM     36  C   UNL     1       5.649   7.878   5.307  0.00  0.00    -0.013 C 
BRANCH  35  38
ATOM     37  C   UNL     1       2.665   6.821   7.492  0.00  0.00    +0.002 C 
ATOM     38  C   UNL     1       3.822   6.665   6.503  0.00  0.00    -0.019 C 
ENDBRANCH  35  38
ENDBRANCH  27  35
ENDBRANCH  26  27
ENDBRANCH  25  26
ENDBRANCH  21  25
ENDBRANCH   1  22
TORSDOF 12
