REMARK  Name = ZINC39695995
REMARK  11 active torsions:
REMARK  status: ('A' for Active; 'I' for Inactive)
REMARK    1  A    between atoms: C_1  and  C_2
REMARK    2  A    between atoms: C_2  and  C_3
REMARK    3  A    between atoms: C_6  and  C_9
REMARK    4  A    between atoms: C_9  and  C_11
REMARK    5  A    between atoms: C_9  and  N_12
REMARK    6  A    between atoms: C_13  and  C_15
REMARK    7  A    between atoms: C_26  and  C_28
REMARK    8  A    between atoms: C_31  and  O_36
REMARK    9  A    between atoms: C_33  and  O_34
REMARK   10  A    between atoms: O_34  and  C_35
REMARK   11  A    between atoms: O_36  and  C_37
REMARK                            x       y       z     vdW  Elec       q    Type
REMARK                         _______ _______ _______ _____ _____    ______ ____
ROOT
ATOM      1  C   UNL     1      -8.323  -0.551  -1.975  0.00  0.00    +0.100 C 
ATOM      2  C   UNL     1      -8.014   0.963  -1.996  0.00  0.00    +0.121 C 
ATOM      3  N   UNL     1      -9.312   1.605  -2.306  0.00  0.00    -0.296 N 
ATOM      4  C   UNL     1     -10.307   0.817  -1.540  0.00  0.00    +0.115 C 
ATOM      5  C   UNL     1      -9.828  -0.643  -1.675  0.00  0.00    -0.004 C 
ATOM      6  C   UNL     1     -10.062  -1.396  -0.369  0.00  0.00    -0.010 C 
ATOM      7  C   UNL     1     -11.568  -1.526  -0.122  0.00  0.00    -0.082 C 
ATOM      8  N   UNL     1     -12.189  -2.243  -1.242  0.00  0.00    +0.379 N 
ATOM      9  C   UNL     1     -12.040  -1.465  -2.478  0.00  0.00    -0.082 C 
ATOM     10  C   UNL     1     -10.555  -1.333  -2.825  0.00  0.00    -0.010 C 
ATOM     11  C   UNL     1      -9.538   2.667  -3.105  0.00  0.00    +0.250 C 
ATOM     12  O   UNL     1      -8.625   3.151  -3.747  0.00  0.00    -0.270 OA
ATOM     13  H   UNL     1     -11.742  -3.140  -1.355  0.00  0.00    -0.086 HD
ATOM     14  H   UNL     1     -13.170  -2.380  -1.049  0.00  0.00    -0.086 HD
ENDROOT
BRANCH  11  15
ATOM     15  C   UNL     1     -10.891   3.242  -3.201  0.00  0.00    +0.079 A 
ATOM     16  C   UNL     1     -11.725   3.265  -2.079  0.00  0.00    +0.020 A 
ATOM     17  C   UNL     1     -12.988   3.804  -2.172  0.00  0.00    +0.046 A 
ATOM     18  C   UNL     1     -13.440   4.325  -3.381  0.00  0.00    +0.124 A 
ATOM     19  C   UNL     1     -12.621   4.307  -4.500  0.00  0.00    +0.092 A 
ATOM     20  C   UNL     1     -11.346   3.774  -4.417  0.00  0.00    +0.136 A 
BRANCH  20  21
ATOM     21  O   UNL     1     -10.542   3.760  -5.509  0.00  0.00    -0.494 OA
ATOM     22  C   UNL     1     -11.072   4.318  -6.713  0.00  0.00    +0.277 C 
ENDBRANCH  20  21
BRANCH  18  23
ATOM     23  O   UNL     1     -14.687   4.854  -3.464  0.00  0.00    -0.495 OA
ATOM     24  C   UNL     1     -15.478   4.841  -2.274  0.00  0.00    +0.277 C 
ENDBRANCH  18  23
ENDBRANCH  11  15
BRANCH   1  26
ATOM     25  N   UNL     1      -7.314  -2.563  -0.948  0.00  0.00    -0.308 N 
ATOM     26  C   UNL     1      -7.529  -1.233  -0.890  0.00  0.00    +0.219 C 
ATOM     27  O   UNL     1      -7.084  -0.586   0.034  0.00  0.00    -0.275 OA
ATOM     28  H   UNL     1      -7.670  -3.080  -1.687  0.00  0.00    +0.149 HD
BRANCH  25  29
ATOM     29  C   UNL     1      -6.543  -3.226   0.107  0.00  0.00    +0.100 C 
ATOM     30  C   UNL     1      -7.469  -3.574   1.274  0.00  0.00    +0.033 C 
BRANCH  29  34
ATOM     31  C   UNL     1      -4.799  -6.806  -1.441  0.00  0.00    -0.048 A 
ATOM     32  C   UNL     1      -4.075  -5.999  -0.583  0.00  0.00    +0.004 A 
ATOM     33  C   UNL     1      -4.639  -4.841  -0.082  0.00  0.00    +0.006 A 
ATOM     34  C   UNL     1      -5.928  -4.488  -0.440  0.00  0.00    -0.027 A 
ATOM     35  C   UNL     1      -6.651  -5.295  -1.299  0.00  0.00    +0.006 A 
ATOM     36  C   UNL     1      -6.085  -6.451  -1.803  0.00  0.00    +0.004 A 
BRANCH  31  38
ATOM     37  C   UNL     1      -3.456  -7.756  -3.296  0.00  0.00    +0.009 C 
ATOM     38  C   UNL     1      -4.184  -8.068  -1.987  0.00  0.00    +0.032 C 
ENDBRANCH  31  38
ENDBRANCH  29  34
ENDBRANCH  25  29
ENDBRANCH   1  26
TORSDOF 7
