REMARK  Name = ZINC51330058
REMARK  6 active torsions:
REMARK  status: ('A' for Active; 'I' for Inactive)
REMARK    1  A    between atoms: C_1  and  C_2
REMARK    2  A    between atoms: C_5  and  C_8
REMARK    3  A    between atoms: C_14  and  C_22
REMARK    4  A    between atoms: C_16  and  C_17
REMARK    5  A    between atoms: C_16  and  C_19
REMARK    6  A    between atoms: C_25  and  C_28
REMARK                            x       y       z     vdW  Elec       q    Type
REMARK                         _______ _______ _______ _____ _____    ______ ____
ROOT
ATOM      1  C   UNL     1       0.059  -4.275  -0.021  0.00  0.00    +0.056 C 
ATOM      2  C   UNL     1      -1.112  -4.806   0.811  0.00  0.00    +0.084 C 
ATOM      3  C   UNL     1      -0.896  -4.408   2.254  0.00  0.00    +0.135 C 
ATOM      4  O   UNL     1      -1.765  -3.849   2.880  0.00  0.00    -0.297 OA
ATOM      5  C   UNL     1       0.437  -4.727   2.894  0.00  0.00    +0.084 C 
ATOM      6  C   UNL     1       1.552  -4.199   1.986  0.00  0.00    +0.056 C 
ATOM      7  C   UNL     1       1.376  -4.772   0.579  0.00  0.00    +0.147 C 
ENDROOT
BRANCH   1  12
ATOM      8  C   UNL     1      -0.018   1.503   0.010  0.00  0.00    +0.044 C 
ATOM      9  C   UNL     1       0.002  -0.004   0.002  0.00  0.00    -0.050 A 
ATOM     10  C   UNL     1       0.085  -0.688  -1.197  0.00  0.00    +0.003 A 
ATOM     11  C   UNL     1       0.103  -2.070  -1.204  0.00  0.00    +0.004 A 
ATOM     12  C   UNL     1       0.040  -2.768  -0.013  0.00  0.00    -0.042 A 
ATOM     13  C   UNL     1      -0.042  -2.085   1.185  0.00  0.00    +0.004 A 
ATOM     14  C   UNL     1      -0.056  -0.703   1.193  0.00  0.00    +0.003 A 
ENDBRANCH   1  12
BRANCH   6  15
ATOM     15  C   UNL     1       2.891  -4.621   2.536  0.00  0.00    -0.042 A 
ATOM     16  C   UNL     1       3.188  -5.963   2.677  0.00  0.00    +0.004 A 
ATOM     17  C   UNL     1       4.416  -6.350   3.181  0.00  0.00    +0.003 A 
ATOM     18  C   UNL     1       5.346  -5.395   3.545  0.00  0.00    -0.050 A 
ATOM     19  C   UNL     1       5.048  -4.052   3.404  0.00  0.00    +0.003 A 
ATOM     20  C   UNL     1       3.823  -3.665   2.895  0.00  0.00    +0.004 A 
ATOM     21  C   UNL     1       6.683  -5.816   4.096  0.00  0.00    +0.044 C 
ENDBRANCH   6  15
BRANCH   7  22
ATOM     22  C   UNL     1       2.523  -4.326  -0.292  0.00  0.00    +0.232 C 
ATOM     23  O   UNL     1       2.307  -3.676  -1.292  0.00  0.00    -0.274 OA
ATOM     24  N   UNL     1       3.788  -4.650   0.042  0.00  0.00    -0.328 N 
ATOM     25  H   UNL     1       3.960  -5.170   0.843  0.00  0.00    +0.145 HD
ATOM     26  H   UNL     1       4.526  -4.363  -0.518  0.00  0.00    +0.145 HD
ENDBRANCH   7  22
BRANCH   7  27
ATOM     27  C   UNL     1       1.359  -6.242   0.647  0.00  0.00    +0.080 C 
ATOM     28  N   UNL     1       1.345  -7.377   0.701  0.00  0.00    -0.195 NA
ENDBRANCH   7  27
TORSDOF 4
