REMARK  Name = ZINC16574914
REMARK  10 active torsions:
REMARK  status: ('A' for Active; 'I' for Inactive)
REMARK    1  A    between atoms: C_1  and  C_2
REMARK    2  A    between atoms: C_2  and  C_3
REMARK    3  A    between atoms: C_2  and  C_4
REMARK    4  A    between atoms: N_9  and  C_12
REMARK    5  A    between atoms: C_15  and  N_18
REMARK    6  A    between atoms: N_18  and  C_19
REMARK    7  A    between atoms: C_19  and  N_21
REMARK    8  A    between atoms: C_22  and  C_24
REMARK    9  A    between atoms: C_25  and  C_26
REMARK   10  A    between atoms: C_29  and  C_31
REMARK                            x       y       z     vdW  Elec       q    Type
REMARK                         _______ _______ _______ _____ _____    ______ ____
ROOT
ATOM      1  N   UNL     1      -4.930   2.785  -5.726  0.00  0.00    -0.297 N 
ATOM      2  H   UNL     1      -5.759   2.291  -5.817  0.00  0.00    +0.154 HD
ENDROOT
BRANCH   1   6
ATOM      3  C   UNL     1      -2.555   2.272  -2.337  0.00  0.00    +0.030 A 
ATOM      4  C   UNL     1      -3.115   1.168  -2.966  0.00  0.00    +0.025 A 
ATOM      5  C   UNL     1      -3.906   1.339  -4.084  0.00  0.00    +0.025 A 
ATOM      6  C   UNL     1      -4.132   2.613  -4.587  0.00  0.00    +0.033 A 
ATOM      7  C   UNL     1      -3.567   3.716  -3.962  0.00  0.00    +0.025 A 
ATOM      8  C   UNL     1      -2.781   3.547  -2.840  0.00  0.00    +0.025 A 
BRANCH   3  14
ATOM      9  C   UNL     1      -1.117   0.943   2.657  0.00  0.00    +0.218 C 
ATOM     10  O   UNL     1      -1.321   1.711   3.573  0.00  0.00    -0.275 OA
ATOM     11  N   UNL     1      -1.010   1.409   1.397  0.00  0.00    -0.298 N 
ATOM     12  C   UNL     1      -0.632   0.516   0.291  0.00  0.00    +0.126 C 
ATOM     13  C   UNL     1      -1.652   0.679  -0.841  0.00  0.00    +0.124 C 
ATOM     14  N   UNL     1      -1.758   2.100  -1.199  0.00  0.00    -0.327 N 
ATOM     15  C   UNL     1      -2.267   2.896  -0.074  0.00  0.00    +0.124 C 
ATOM     16  C   UNL     1      -1.273   2.824   1.089  0.00  0.00    +0.126 C 
BRANCH   9  18
ATOM     17  C   UNL     1       0.497  -0.923   2.910  0.00  0.00    +0.017 C 
ATOM     18  C   UNL     1      -0.982  -0.534   2.928  0.00  0.00    +0.069 C 
ATOM     19  C   UNL     1      -1.578  -0.857   4.300  0.00  0.00    +0.017 C 
ENDBRANCH   9  18
ENDBRANCH   3  14
ENDBRANCH   1   6
BRANCH   1  20
ATOM     20  C   UNL     1      -4.545   3.639  -6.696  0.00  0.00    +0.141 C 
ATOM     21  S   UNL     1      -3.018   4.408  -6.603  0.00  0.00    -0.018 S 
BRANCH  20  22
ATOM     22  N   UNL     1      -5.362   3.886  -7.739  0.00  0.00    -0.264 N 
ATOM     23  C   UNL     1      -4.976   4.739  -8.709  0.00  0.00    +0.242 C 
ATOM     24  O   UNL     1      -3.891   5.287  -8.642  0.00  0.00    -0.270 OA
ATOM     25  H   UNL     1      -6.226   3.450  -7.792  0.00  0.00    +0.157 HD
BRANCH  23  26
ATOM     26  C   UNL     1      -5.833   4.998  -9.803  0.00  0.00    +0.071 C 
ATOM     27  C   UNL     1      -5.445   5.859 -10.780  0.00  0.00    +0.051 C 
BRANCH  27  28
ATOM     28  C   UNL     1      -6.301   6.118 -11.874  0.00  0.00    +0.129 A 
ATOM     29  C   UNL     1      -6.033   6.971 -12.928  0.00  0.00    +0.050 A 
ATOM     30  C   UNL     1      -7.142   6.924 -13.778  0.00  0.00    +0.050 A 
ATOM     31  C   UNL     1      -8.046   6.055 -13.211  0.00  0.00    +0.136 A 
ATOM     32  O   UNL     1      -7.524   5.580 -12.066  0.00  0.00    -0.455 OA
BRANCH  31  33
ATOM     33  C   UNL     1      -9.368   5.703 -13.766  0.00  0.00    +0.017 A 
ATOM     34  C   UNL     1      -9.799   6.273 -14.967  0.00  0.00    +0.011 A 
ATOM     35  C   UNL     1     -11.033   5.936 -15.482  0.00  0.00    +0.001 A 
ATOM     36  C   UNL     1     -11.848   5.044 -14.808  0.00  0.00    +0.000 A 
ATOM     37  C   UNL     1     -11.430   4.480 -13.615  0.00  0.00    +0.001 A 
ATOM     38  C   UNL     1     -10.196   4.804 -13.091  0.00  0.00    +0.011 A 
ENDBRANCH  31  33
ENDBRANCH  27  28
ENDBRANCH  23  26
ENDBRANCH  20  22
ENDBRANCH   1  20
TORSDOF 8
