REMARK  Name = ZINC43424693
REMARK  2 active torsions:
REMARK  status: ('A' for Active; 'I' for Inactive)
REMARK    1  A    between atoms: C_3  and  N_19
REMARK    2  A    between atoms: C_6  and  N_7
REMARK                            x       y       z     vdW  Elec       q    Type
REMARK                         _______ _______ _______ _____ _____    ______ ____
ROOT
ATOM      1  N   UNL     1      -1.196  -0.729   0.010  0.00  0.00    -0.321 N 
ATOM      2  C   UNL     1      -2.497  -0.051   0.130  0.00  0.00    +0.133 C 
ATOM      3  C   UNL     1      -3.414  -0.550  -0.991  0.00  0.00    +0.179 C 
ATOM      4  O   UNL     1      -3.436  -1.980  -0.987  0.00  0.00    -0.373 OA
ATOM      5  C   UNL     1      -2.163  -2.579  -1.229  0.00  0.00    +0.139 C 
ATOM      6  C   UNL     1      -1.200  -2.200  -0.108  0.00  0.00    +0.102 C 
ATOM      7  C   UNL     1      -1.700  -2.787   1.214  0.00  0.00    +0.025 C 
ATOM      8  C   UNL     1      -1.808  -4.307   1.098  0.00  0.00    +0.002 C 
ATOM      9  C   UNL     1      -2.804  -4.660  -0.010  0.00  0.00    +0.003 C 
ATOM     10  C   UNL     1      -2.295  -4.097  -1.312  0.00  0.00    +0.033 C 
ENDROOT
BRANCH   1  16
ATOM     11  C   UNL     1       1.228  -0.667  -0.002  0.00  0.00    +0.028 A 
ATOM     12  C   UNL     1       2.386   0.089  -0.010  0.00  0.00    +0.045 A 
ATOM     13  C   UNL     1       2.290   1.476  -0.015  0.00  0.00    +0.116 A 
ATOM     14  N   UNL     1       1.108   2.073  -0.011  0.00  0.00    -0.239 NA
ATOM     15  C   UNL     1      -0.017   1.383  -0.003  0.00  0.00    +0.136 A 
ATOM     16  C   UNL     1       0.002  -0.004   0.002  0.00  0.00    +0.049 A 
BRANCH  13  17
ATOM     17  N   UNL     1       3.450   2.248  -0.022  0.00  0.00    -0.343 N 
ATOM     18  H   UNL     1       4.319   1.816  -0.025  0.00  0.00    +0.144 HD
ATOM     19  H   UNL     1       3.389   3.216  -0.026  0.00  0.00    +0.144 HD
ENDBRANCH  13  17
ENDBRANCH   1  16
TORSDOF 2
