REMARK  Name = ZINC33688976
REMARK  19 active torsions:
REMARK  status: ('A' for Active; 'I' for Inactive)
REMARK    1  A    between atoms: C_1  and  C_2
REMARK    2  A    between atoms: C_6  and  N_8
REMARK    3  A    between atoms: C_9  and  N_17
REMARK    4  A    between atoms: C_11  and  C_13
REMARK    5  A    between atoms: C_13  and  C_14
REMARK    6  A    between atoms: C_13  and  C_15
REMARK    7  A    between atoms: C_13  and  C_16
REMARK    8  A    between atoms: C_18  and  C_20
REMARK    9  A    between atoms: C_20  and  N_21
REMARK   10  A    between atoms: N_21  and  C_22
REMARK   11  A    between atoms: C_22  and  C_23
REMARK   12  A    between atoms: C_23  and  C_24
REMARK   13  A    between atoms: C_24  and  C_25
REMARK   14  A    between atoms: C_24  and  C_26
REMARK   15  A    between atoms: N_29  and  C_30
REMARK   16  A    between atoms: C_32  and  O_38
REMARK   17  A    between atoms: C_34  and  O_36
REMARK   18  A    between atoms: O_36  and  C_37
REMARK   19  A    between atoms: O_38  and  C_39
REMARK                            x       y       z     vdW  Elec       q    Type
REMARK                         _______ _______ _______ _____ _____    ______ ____
ROOT
ATOM      1  C   UNL     1      -4.299   5.837  -2.894  0.00  0.00    +0.205 C 
ENDROOT
BRANCH   1   2
ATOM      2  N   UNL     1      -4.925   7.101  -3.293  0.00  0.00    -0.277 N 
ATOM      3  C   UNL     1      -4.621   7.657  -4.482  0.00  0.00    +0.307 C 
ATOM      4  O   UNL     1      -3.828   7.111  -5.224  0.00  0.00    -0.252 OA
ATOM      5  N   UNL     1      -5.197   8.819  -4.849  0.00  0.00    -0.269 N 
ATOM      6  H   UNL     1      -5.978   9.269  -4.219  0.00  0.00    +0.156 HD
BRANCH   5   7
ATOM      7  C   UNL     1      -4.800   9.454  -6.032  0.00  0.00    +0.042 A 
ATOM      8  C   UNL     1      -3.481   9.369  -6.457  0.00  0.00    +0.069 A 
ATOM      9  C   UNL     1      -3.091   9.993  -7.631  0.00  0.00    +0.125 A 
ATOM     10  C   UNL     1      -4.014  10.712  -8.376  0.00  0.00    +0.091 A 
ATOM     11  C   UNL     1      -5.330  10.802  -7.948  0.00  0.00    +0.125 A 
ATOM     12  C   UNL     1      -5.724  10.174  -6.777  0.00  0.00    +0.069 A 
BRANCH  11  13
ATOM     13  O   UNL     1      -6.235  11.507  -8.678  0.00  0.00    -0.495 OA
ATOM     14  C   UNL     1      -5.760  12.129  -9.874  0.00  0.00    +0.277 C 
ENDBRANCH  11  13
BRANCH   9  15
ATOM     15  O   UNL     1      -1.801   9.905  -8.051  0.00  0.00    -0.495 OA
ATOM     16  C   UNL     1      -1.467  10.577  -9.267  0.00  0.00    +0.277 C 
ENDBRANCH   9  15
ENDBRANCH   5   7
BRANCH   2  17
ATOM     17  C   UNL     1      -5.881   7.759  -2.399  0.00  0.00    +0.110 C 
BRANCH  17  18
ATOM     18  C   UNL     1      -5.133   8.718  -1.470  0.00  0.00    +0.022 C 
BRANCH  18  19
ATOM     19  C   UNL     1      -6.132   9.405  -0.537  0.00  0.00    -0.016 C 
ATOM     20  C   UNL     1      -5.374  10.269   0.474  0.00  0.00    +0.007 C 
ATOM     21  C   UNL     1      -7.073  10.289  -1.358  0.00  0.00    +0.007 C 
ENDBRANCH  18  19
ENDBRANCH  17  18
ENDBRANCH   2  17
ENDBRANCH   1   2
BRANCH   1  23
ATOM     22  N   UNL     1      -2.271   5.105  -1.683  0.00  0.00    -0.269 N 
ATOM     23  C   UNL     1      -3.021   6.123  -2.149  0.00  0.00    +0.236 C 
ATOM     24  O   UNL     1      -2.667   7.269  -1.969  0.00  0.00    -0.274 OA
ATOM     25  H   UNL     1      -2.591   4.066  -1.847  0.00  0.00    +0.156 HD
BRANCH  22  27
ATOM     26  N   UNL     1      -0.236   4.445  -0.471  0.00  0.00    -0.218 N 
ATOM     27  C   UNL     1      -1.087   5.370  -0.994  0.00  0.00    +0.129 A 
ATOM     28  C   UNL     1      -0.573   6.599  -0.720  0.00  0.00    +0.069 A 
ATOM     29  C   UNL     1       0.620   6.418  -0.014  0.00  0.00    +0.071 A 
ATOM     30  N   UNL     1       0.819   5.134   0.140  0.00  0.00    -0.169 NA
BRANCH  26  36
ATOM     31  C   UNL     1       1.774  -0.027  -0.844  0.00  0.00    +0.044 C 
ATOM     32  C   UNL     1       0.566   0.863  -0.709  0.00  0.00    -0.048 A 
ATOM     33  C   UNL     1      -0.698   0.306  -0.640  0.00  0.00    +0.003 A 
ATOM     34  C   UNL     1      -1.809   1.120  -0.522  0.00  0.00    +0.002 A 
ATOM     35  C   UNL     1      -1.659   2.492  -0.460  0.00  0.00    +0.028 A 
ATOM     36  C   UNL     1      -0.392   3.054  -0.528  0.00  0.00    +0.068 A 
ATOM     37  C   UNL     1       0.722   2.234  -0.653  0.00  0.00    +0.031 A 
ENDBRANCH  26  36
BRANCH  29  38
ATOM     38  C   UNL     1       1.520   7.516   0.491  0.00  0.00    +0.006 C 
ATOM     39  C   UNL     1       0.886   8.171   1.720  0.00  0.00    +0.017 C 
ATOM     40  C   UNL     1       2.880   6.926   0.872  0.00  0.00    +0.017 C 
ATOM     41  C   UNL     1       1.709   8.565  -0.607  0.00  0.00    +0.017 C 
ENDBRANCH  29  38
ENDBRANCH  22  27
ENDBRANCH   1  23
TORSDOF 11
