REMARK  Name = ZINC39602539
REMARK  9 active torsions:
REMARK  status: ('A' for Active; 'I' for Inactive)
REMARK    1  A    between atoms: C_1  and  C_2
REMARK    2  A    between atoms: C_2  and  C_3
REMARK    3  A    between atoms: C_2  and  C_4
REMARK    4  A    between atoms: C_4  and  C_6
REMARK    5  A    between atoms: C_4  and  O_33
REMARK    6  A    between atoms: C_10  and  C_19
REMARK    7  A    between atoms: N_21  and  C_22
REMARK    8  A    between atoms: C_25  and  C_27
REMARK    9  A    between atoms: O_33  and  C_34
REMARK                            x       y       z     vdW  Elec       q    Type
REMARK                         _______ _______ _______ _____ _____    ______ ____
ROOT
ATOM      1  C   UNL     1      -1.638  -2.225   1.310  0.00  0.00    +0.257 C 
ATOM      2  O   UNL     1      -1.904  -3.096   0.508  0.00  0.00    -0.272 OA
ATOM      3  N   UNL     1      -1.055  -2.544   2.483  0.00  0.00    -0.297 N 
ATOM      4  C   UNL     1      -0.767  -1.648   3.627  0.00  0.00    +0.121 C 
ATOM      5  C   UNL     1      -1.082  -2.498   4.878  0.00  0.00    +0.100 C 
ATOM      6  C   UNL     1      -0.942  -3.955   4.408  0.00  0.00    -0.004 C 
ATOM      7  C   UNL     1      -0.564  -3.872   2.922  0.00  0.00    +0.115 C 
ATOM      8  C   UNL     1      -2.268  -4.692   4.568  0.00  0.00    -0.010 C 
ATOM      9  C   UNL     1      -2.089  -6.154   4.148  0.00  0.00    -0.082 C 
ATOM     10  N   UNL     1      -1.054  -6.780   4.980  0.00  0.00    +0.379 N 
ATOM     11  C   UNL     1       0.239  -6.124   4.750  0.00  0.00    -0.082 C 
ATOM     12  C   UNL     1       0.158  -4.661   5.195  0.00  0.00    -0.010 C 
ATOM     13  H   UNL     1      -1.306  -6.691   5.952  0.00  0.00    -0.086 HD
ATOM     14  H   UNL     1      -0.980  -7.758   4.742  0.00  0.00    -0.086 HD
ENDROOT
BRANCH   5  15
ATOM     15  C   UNL     1      -2.487  -2.230   5.354  0.00  0.00    +0.218 C 
ATOM     16  O   UNL     1      -3.358  -1.964   4.553  0.00  0.00    -0.275 OA
ATOM     17  N   UNL     1      -2.776  -2.287   6.669  0.00  0.00    -0.312 N 
ATOM     18  H   UNL     1      -2.079  -2.500   7.309  0.00  0.00    +0.149 HD
BRANCH  17  19
ATOM     19  C   UNL     1      -4.141  -2.027   7.131  0.00  0.00    +0.081 C 
ATOM     20  C   UNL     1      -4.716  -2.962   8.197  0.00  0.00    +0.033 C 
ATOM     21  C   UNL     1      -4.318  -1.531   8.568  0.00  0.00    +0.041 C 
BRANCH  21  22
ATOM     22  C   UNL     1      -5.428  -0.547   8.832  0.00  0.00    -0.042 A 
ATOM     23  C   UNL     1      -6.740  -0.897   8.570  0.00  0.00    +0.004 A 
ATOM     24  C   UNL     1      -7.758   0.006   8.813  0.00  0.00    +0.000 A 
ATOM     25  C   UNL     1      -7.464   1.259   9.318  0.00  0.00    +0.000 A 
ATOM     26  C   UNL     1      -6.153   1.609   9.581  0.00  0.00    +0.000 A 
ATOM     27  C   UNL     1      -5.135   0.704   9.342  0.00  0.00    +0.004 A 
ENDBRANCH  21  22
ENDBRANCH  17  19
ENDBRANCH   5  15
BRANCH   1  28
ATOM     28  C   UNL     1      -1.959  -0.787   0.994  0.00  0.00    +0.261 C 
BRANCH  28  30
ATOM     29  C   UNL     1      -1.022   1.379   0.174  0.00  0.00    +0.011 C 
ATOM     30  C   UNL     1      -0.712  -0.096   0.441  0.00  0.00    +0.033 C 
ATOM     31  C   UNL     1       0.425  -0.202   1.459  0.00  0.00    +0.011 C 
ENDBRANCH  28  30
BRANCH  28  32
ATOM     32  O   UNL     1      -3.005  -0.735   0.021  0.00  0.00    -0.479 OA
BRANCH  32  33
ATOM     33  C   UNL     1      -3.974   0.199   0.207  0.00  0.00    +0.122 A 
ATOM     34  C   UNL     1      -5.084   0.224  -0.626  0.00  0.00    +0.045 A 
ATOM     35  C   UNL     1      -6.068   1.174  -0.435  0.00  0.00    +0.004 A 
ATOM     36  C   UNL     1      -5.948   2.101   0.585  0.00  0.00    +0.000 A 
ATOM     37  C   UNL     1      -4.843   2.079   1.415  0.00  0.00    +0.004 A 
ATOM     38  C   UNL     1      -3.858   1.127   1.232  0.00  0.00    +0.045 A 
ENDBRANCH  32  33
ENDBRANCH  28  32
ENDBRANCH   1  28
TORSDOF 7
