REMARK  Name = ZINC33698941
REMARK  9 active torsions:
REMARK  status: ('A' for Active; 'I' for Inactive)
REMARK    1  A    between atoms: C_1  and  O_2
REMARK    2  A    between atoms: O_2  and  C_3
REMARK    3  A    between atoms: C_3  and  C_5
REMARK    4  A    between atoms: C_8  and  N_11
REMARK    5  A    between atoms: C_12  and  C_14
REMARK    6  A    between atoms: C_14  and  C_15
REMARK    7  A    between atoms: N_19  and  C_32
REMARK    8  A    between atoms: N_22  and  N_23
REMARK    9  A    between atoms: C_24  and  C_26
REMARK                            x       y       z     vdW  Elec       q    Type
REMARK                         _______ _______ _______ _____ _____    ______ ____
ROOT
ATOM      1  C   UNL     1       1.937  -8.749  -3.879  0.00  0.00    +0.191 C 
ATOM      2  C   UNL     1       1.941 -10.259  -4.018  0.00  0.00    +0.248 C 
ATOM      3  O   UNL     1       2.498 -11.059  -3.297  0.00  0.00    -0.273 OA
ATOM      4  N   UNL     1       1.197 -10.527  -5.109  0.00  0.00    -0.219 N 
ATOM      5  C   UNL     1       0.728  -9.408  -5.673  0.00  0.00    +0.164 C 
ATOM      6  S   UNL     1      -0.253  -9.388  -7.076  0.00  0.00    -0.016 S 
ATOM      7  N   UNL     1       1.116  -8.296  -5.015  0.00  0.00    -0.218 N 
ENDROOT
BRANCH   4   8
ATOM      8  C   UNL     1       0.946 -11.819  -5.594  0.00  0.00    +0.043 A 
ATOM      9  C   UNL     1       0.198 -12.711  -4.838  0.00  0.00    +0.027 A 
ATOM     10  C   UNL     1      -0.049 -13.983  -5.317  0.00  0.00    +0.040 A 
ATOM     11  C   UNL     1       0.450 -14.367  -6.551  0.00  0.00    +0.124 A 
ATOM     12  C   UNL     1       1.196 -13.479  -7.306  0.00  0.00    +0.040 A 
ATOM     13  C   UNL     1       1.440 -12.204  -6.832  0.00  0.00    +0.027 A 
ATOM     14  F   UNL     1       0.207 -15.612  -7.018  0.00  0.00    -0.205 F 
ENDBRANCH   4   8
BRANCH   7  15
ATOM     15  N   UNL     1       0.800  -6.971  -5.344  0.00  0.00    -0.228 N 
ATOM     16  C   UNL     1       1.412  -6.370  -6.383  0.00  0.00    +0.260 C 
ATOM     17  O   UNL     1       2.239  -6.978  -7.035  0.00  0.00    -0.269 OA
ATOM     18  H   UNL     1       0.140  -6.487  -4.823  0.00  0.00    +0.173 HD
BRANCH  16  19
ATOM     19  C   UNL     1       1.079  -4.973  -6.730  0.00  0.00    +0.038 A 
ATOM     20  C   UNL     1       0.134  -4.270  -5.979  0.00  0.00    +0.013 A 
ATOM     21  C   UNL     1      -0.172  -2.966  -6.308  0.00  0.00    +0.001 A 
ATOM     22  C   UNL     1       0.454  -2.354  -7.379  0.00  0.00    +0.000 A 
ATOM     23  C   UNL     1       1.391  -3.044  -8.127  0.00  0.00    +0.001 A 
ATOM     24  C   UNL     1       1.711  -4.347  -7.806  0.00  0.00    +0.013 A 
ENDBRANCH  16  19
ENDBRANCH   7  15
BRANCH   1  25
ATOM     25  C   UNL     1       1.298  -8.332  -2.553  0.00  0.00    +0.129 C 
BRANCH  25  27
ATOM     26  N   UNL     1       0.830  -6.234  -1.330  0.00  0.00    -0.285 N 
ATOM     27  C   UNL     1       1.340  -6.831  -2.425  0.00  0.00    +0.220 C 
ATOM     28  O   UNL     1       1.832  -6.161  -3.308  0.00  0.00    -0.275 OA
ATOM     29  H   UNL     1       0.496  -6.772  -0.596  0.00  0.00    +0.155 HD
BRANCH  26  33
ATOM     30  C   UNL     1       0.690  -2.077  -1.101  0.00  0.00    +0.059 A 
ATOM     31  C   UNL     1       1.759  -2.708  -1.744  0.00  0.00    +0.017 A 
ATOM     32  C   UNL     1       1.802  -4.081  -1.818  0.00  0.00    +0.024 A 
ATOM     33  C   UNL     1       0.783  -4.843  -1.253  0.00  0.00    +0.033 A 
ATOM     34  C   UNL     1      -0.283  -4.218  -0.613  0.00  0.00    +0.024 A 
ATOM     35  C   UNL     1      -0.329  -2.845  -0.530  0.00  0.00    +0.017 A 
BRANCH  30  36
ATOM     36  C   UNL     1       0.640  -0.606  -1.020  0.00  0.00    +0.339 C 
ATOM     37  O   UNL     1      -0.287  -0.059  -0.456  0.00  0.00    -0.245 OA
BRANCH  36  39
ATOM     38  C   UNL     1       1.511   1.553  -1.454  0.00  0.00    +0.280 C 
ATOM     39  O   UNL     1       1.623   0.133  -1.571  0.00  0.00    -0.464 OA
ENDBRANCH  36  39
ENDBRANCH  30  36
ENDBRANCH  26  33
ENDBRANCH  25  27
ENDBRANCH   1  25
TORSDOF 8
