REMARK  Name = ZINC38966302
REMARK  8 active torsions:
REMARK  status: ('A' for Active; 'I' for Inactive)
REMARK    1  A    between atoms: C_1  and  C_2
REMARK    2  A    between atoms: C_2  and  C_3
REMARK    3  A    between atoms: C_2  and  O_4
REMARK    4  A    between atoms: O_4  and  C_5
REMARK    5  A    between atoms: C_9  and  C_11
REMARK    6  A    between atoms: N_17  and  N_18
REMARK    7  A    between atoms: C_19  and  C_20
REMARK    8  A    between atoms: C_25  and  O_26
REMARK                            x       y       z     vdW  Elec       q    Type
REMARK                         _______ _______ _______ _____ _____    ______ ____
ROOT
ATOM      1  C   UNL     1       0.554  -1.442   5.960  0.00  0.00    +0.264 C 
ATOM      2  N   UNL     1       1.677  -2.354   5.695  0.00  0.00    -0.189 NA
ATOM      3  N   UNL     1       1.441  -3.426   6.258  0.00  0.00    -0.219 N 
ATOM      4  C   UNL     1       0.257  -3.436   6.927  0.00  0.00    +0.174 C 
ATOM      5  S   UNL     1      -0.360  -4.768   7.808  0.00  0.00    -0.015 S 
ATOM      6  N   UNL     1      -0.363  -2.239   6.796  0.00  0.00    -0.172 N 
ATOM      7  H   UNL     1       2.041  -4.188   6.226  0.00  0.00    +0.176 HD
ENDROOT
BRANCH   1  12
ATOM      8  C   UNL     1       0.009  -0.538   2.332  0.00  0.00    +0.121 A 
ATOM      9  C   UNL     1      -1.359  -0.307   2.309  0.00  0.00    +0.045 A 
ATOM     10  C   UNL     1      -2.101  -0.445   3.466  0.00  0.00    +0.004 A 
ATOM     11  C   UNL     1      -1.481  -0.813   4.646  0.00  0.00    +0.007 A 
ATOM     12  C   UNL     1      -0.118  -1.042   4.672  0.00  0.00    +0.001 A 
ATOM     13  C   UNL     1       0.627  -0.911   3.516  0.00  0.00    +0.053 A 
BRANCH   8  14
ATOM     14  O   UNL     1       0.741  -0.403   1.195  0.00  0.00    -0.489 OA
BRANCH  14  16
ATOM     15  C   UNL     1       0.016   1.609   0.069  0.00  0.00    +0.051 C 
ATOM     16  C   UNL     1       0.057   0.080   0.036  0.00  0.00    +0.167 C 
ATOM     17  C   UNL     1       0.795  -0.383  -1.222  0.00  0.00    +0.051 C 
ENDBRANCH  14  16
ENDBRANCH   8  14
ENDBRANCH   1  12
BRANCH   6  18
ATOM     18  N   UNL     1      -1.595  -1.845   7.333  0.00  0.00    -0.183 NA
ATOM     19  C   UNL     1      -2.230  -2.631   8.149  0.00  0.00    +0.142 C 
BRANCH  19  20
ATOM     20  C   UNL     1      -3.468  -2.172   8.803  0.00  0.00    +0.038 A 
ATOM     21  C   UNL     1      -4.150  -3.013   9.686  0.00  0.00    +0.028 A 
ATOM     22  C   UNL     1      -5.309  -2.577  10.294  0.00  0.00    +0.020 A 
ATOM     23  C   UNL     1      -5.799  -1.308  10.034  0.00  0.00    +0.034 A 
ATOM     24  C   UNL     1      -5.133  -0.466   9.161  0.00  0.00    +0.061 A 
ATOM     25  C   UNL     1      -3.965  -0.887   8.546  0.00  0.00    +0.139 A 
ATOM     26 BR   UNL     1      -5.814   1.264   8.813  0.00  0.00    -0.046 Br
ATOM     27 BR   UNL     1      -6.231  -3.716  11.489  0.00  0.00    -0.050 Br
BRANCH  25  28
ATOM     28  O   UNL     1      -3.307  -0.059   7.693  0.00  0.00    -0.505 OA
ATOM     29  H   UNL     1      -3.590  -0.137   6.772  0.00  0.00    +0.292 HD
ENDBRANCH  25  28
ENDBRANCH  19  20
ENDBRANCH   6  18
TORSDOF 6
