REMARK  Name = ZINC33113369
REMARK  5 active torsions:
REMARK  status: ('A' for Active; 'I' for Inactive)
REMARK    1  A    between atoms: C_1  and  C_2
REMARK    2  A    between atoms: C_5  and  N_8
REMARK    3  A    between atoms: C_9  and  C_11
REMARK    4  A    between atoms: C_14  and  C_16
REMARK    5  A    between atoms: N_25  and  C_26
REMARK                            x       y       z     vdW  Elec       q    Type
REMARK                         _______ _______ _______ _____ _____    ______ ____
ROOT
ATOM      1  C   UNL     1      -6.848  -0.206   1.722  0.00  0.00    +0.187 A 
ATOM      2  N   UNL     1      -6.601   0.558   0.661  0.00  0.00    -0.136 NA
ATOM      3  N   UNL     1      -5.462   1.079   0.504  0.00  0.00    -0.145 NA
ATOM      4  C   UNL     1      -4.476   0.883   1.363  0.00  0.00    +0.107 A 
ATOM      5  S   UNL     1      -5.254  -0.143   2.533  0.00  0.00    -0.046 S 
ENDROOT
BRANCH   4   6
ATOM      6  C   UNL     1      -3.065   1.411   1.339  0.00  0.00    +0.064 C 
ATOM      7  C   UNL     1      -3.091   2.941   1.353  0.00  0.00    +0.013 C 
ATOM      8  C   UNL     1      -1.658   3.477   1.362  0.00  0.00    +0.020 C 
ATOM      9  C   UNL     1      -0.937   3.017   0.092  0.00  0.00    +0.109 C 
ATOM     10  N   UNL     1      -1.033   1.554  -0.004  0.00  0.00    -0.285 N 
ATOM     11  C   UNL     1      -2.360   0.928   0.062  0.00  0.00    +0.119 C 
ATOM     12  C   UNL     1       0.075   0.802  -0.154  0.00  0.00    +0.302 C 
ATOM     13  O   UNL     1      -0.023  -0.398  -0.324  0.00  0.00    -0.253 OA
ATOM     14  N   UNL     1       1.292   1.380  -0.123  0.00  0.00    -0.296 N 
ATOM     15  H   UNL     1       1.379   2.474  -0.053  0.00  0.00    +0.151 HD
BRANCH  14  16
ATOM     16  C   UNL     1       2.499   0.551  -0.181  0.00  0.00    +0.074 C 
ATOM     17  C   UNL     1       2.854   0.068   1.226  0.00  0.00    +0.022 C 
ATOM     18  C   UNL     1       4.114  -0.798   1.165  0.00  0.00    +0.002 C 
ATOM     19  C   UNL     1       5.273   0.028   0.602  0.00  0.00    +0.000 C 
ATOM     20  C   UNL     1       4.918   0.511  -0.805  0.00  0.00    +0.002 C 
ATOM     21  C   UNL     1       3.658   1.377  -0.744  0.00  0.00    +0.022 C 
ENDBRANCH  14  16
ENDBRANCH   4   6
BRANCH   1  23
ATOM     22  N   UNL     1      -9.184  -0.815   1.346  0.00  0.00    -0.280 N 
ATOM     23  C   UNL     1      -8.082  -0.905   2.117  0.00  0.00    +0.275 C 
ATOM     24  O   UNL     1      -8.108  -1.564   3.140  0.00  0.00    -0.268 OA
ATOM     25  H   UNL     1      -9.138  -0.290   0.381  0.00  0.00    +0.155 HD
BRANCH  22  30
ATOM     26  C   UNL     1     -14.058  -3.141   3.081  0.00  0.00    +0.044 C 
ATOM     27  C   UNL     1     -12.763  -2.523   2.620  0.00  0.00    -0.050 A 
ATOM     28  C   UNL     1     -11.883  -1.994   3.546  0.00  0.00    +0.005 A 
ATOM     29  C   UNL     1     -10.695  -1.427   3.127  0.00  0.00    +0.023 A 
ATOM     30  C   UNL     1     -10.385  -1.388   1.774  0.00  0.00    +0.034 A 
ATOM     31  C   UNL     1     -11.274  -1.915   0.846  0.00  0.00    +0.023 A 
ATOM     32  C   UNL     1     -12.457  -2.486   1.272  0.00  0.00    +0.005 A 
ENDBRANCH  22  30
ENDBRANCH   1  23
TORSDOF 4
