REMARK  Name = ZINC01347221
REMARK  5 active torsions:
REMARK  status: ('A' for Active; 'I' for Inactive)
REMARK    1  A    between atoms: C_6  and  S_11
REMARK    2  A    between atoms: S_11  and  N_14
REMARK    3  A    between atoms: C_18  and  C_21
REMARK    4  A    between atoms: N_23  and  N_24
REMARK    5  A    between atoms: C_25  and  C_27
REMARK                            x       y       z     vdW  Elec       q    Type
REMARK                         _______ _______ _______ _____ _____    ______ ____
ROOT
ATOM      1  N   UNL     1      -1.296   3.606   0.034  0.00  0.00    -0.176 NA
ATOM      2  C   UNL     1      -0.717   3.111   1.290  0.00  0.00    +0.109 C 
ATOM      3  C   UNL     1      -0.729   1.579   1.268  0.00  0.00    +0.018 C 
ATOM      4  C   UNL     1      -0.013   1.086   0.008  0.00  0.00    +0.015 C 
ATOM      5  C   UNL     1      -0.752   1.593  -1.232  0.00  0.00    +0.092 C 
ATOM      6  C   UNL     1      -0.741   3.124  -1.238  0.00  0.00    +0.122 C 
ENDROOT
BRANCH   5   7
ATOM      7  C   UNL     1      -0.066   1.080  -2.472  0.00  0.00    +0.233 C 
ATOM      8  O   UNL     1       0.385   1.861  -3.282  0.00  0.00    -0.274 OA
ATOM      9  N   UNL     1       0.047  -0.247  -2.680  0.00  0.00    -0.234 N 
ATOM     10  H   UNL     1      -0.314  -0.872  -2.031  0.00  0.00    +0.173 HD
BRANCH   9  11
ATOM     11  N   UNL     1       0.685  -0.724  -3.832  0.00  0.00    -0.230 N 
ATOM     12  C   UNL     1       0.797  -2.051  -4.040  0.00  0.00    +0.260 C 
ATOM     13  O   UNL     1       0.345  -2.834  -3.228  0.00  0.00    -0.269 OA
ATOM     14  H   UNL     1       1.046  -0.099  -4.480  0.00  0.00    +0.173 HD
BRANCH  12  15
ATOM     15  C   UNL     1       1.470  -2.554  -5.255  0.00  0.00    +0.038 A 
ATOM     16  C   UNL     1       1.986  -1.657  -6.193  0.00  0.00    +0.016 A 
ATOM     17  C   UNL     1       2.618  -2.131  -7.322  0.00  0.00    +0.039 A 
ATOM     18  C   UNL     1       2.732  -3.497  -7.534  0.00  0.00    +0.123 A 
ATOM     19  C   UNL     1       2.217  -4.392  -6.609  0.00  0.00    +0.039 A 
ATOM     20  C   UNL     1       1.588  -3.928  -5.473  0.00  0.00    +0.016 A 
ATOM     21  F   UNL     1       3.348  -3.957  -8.645  0.00  0.00    -0.205 F 
ENDBRANCH  12  15
ENDBRANCH   9  11
ENDBRANCH   5   7
BRANCH   1  22
ATOM     22  S   UNL     1      -2.550   4.687   0.052  0.00  0.00    +0.061 S 
ATOM     23  O   UNL     1      -2.486   5.363   1.300  0.00  0.00    -0.153 OA
ATOM     24  O   UNL     1      -2.510   5.376  -1.190  0.00  0.00    -0.153 OA
BRANCH  22  30
ATOM     25  C   UNL     1      -8.143   1.175   1.231  0.00  0.00    +0.001 A 
ATOM     26  C   UNL     1      -7.550   1.532   2.440  0.00  0.00    +0.001 A 
ATOM     27  C   UNL     1      -6.396   2.253   2.468  0.00  0.00    +0.008 A 
ATOM     28  C   UNL     1      -5.791   2.645   1.261  0.00  0.00    -0.016 A 
ATOM     29  C   UNL     1      -4.600   3.390   1.250  0.00  0.00    +0.037 A 
ATOM     30  C   UNL     1      -4.044   3.752   0.062  0.00  0.00    +0.106 A 
ATOM     31  C   UNL     1      -4.640   3.399  -1.147  0.00  0.00    +0.029 A 
ATOM     32  C   UNL     1      -5.791   2.673  -1.175  0.00  0.00    +0.010 A 
ATOM     33  C   UNL     1      -6.395   2.281   0.032  0.00  0.00    -0.018 A 
ATOM     34  C   UNL     1      -7.587   1.536   0.043  0.00  0.00    +0.008 A 
ENDBRANCH  22  30
ENDBRANCH   1  22
TORSDOF 5
