REMARK  Name = ZINC49066665
REMARK  6 active torsions:
REMARK  status: ('A' for Active; 'I' for Inactive)
REMARK    1  A    between atoms: C_1  and  C_2
REMARK    2  A    between atoms: C_7  and  C_17
REMARK    3  A    between atoms: C_9  and  C_10
REMARK    4  A    between atoms: C_9  and  O_16
REMARK    5  A    between atoms: C_18  and  C_20
REMARK    6  A    between atoms: C_25  and  C_27
REMARK                            x       y       z     vdW  Elec       q    Type
REMARK                         _______ _______ _______ _____ _____    ______ ____
ROOT
ATOM      1  C   UNL     1      -3.261  -0.033   4.029  0.00  0.00    +0.101 C 
ATOM      2  C   UNL     1      -2.129   0.750   4.727  0.00  0.00    +0.120 C 
ATOM      3  N   UNL     1      -2.730   1.471   5.859  0.00  0.00    -0.315 N 
ATOM      4  C   UNL     1      -4.169   1.153   5.911  0.00  0.00    +0.115 C 
ATOM      5  C   UNL     1      -4.538   0.733   4.464  0.00  0.00    +0.052 C 
ATOM      6  C   UNL     1      -2.053   2.312   6.734  0.00  0.00    +0.099 A 
ATOM      7  C   UNL     1      -2.746   2.929   7.771  0.00  0.00    +0.042 A 
ATOM      8  C   UNL     1      -2.061   3.764   8.635  0.00  0.00    +0.005 A 
ATOM      9  C   UNL     1      -0.700   3.954   8.433  0.00  0.00    +0.018 A 
ATOM     10  C   UNL     1      -0.076   3.309   7.384  0.00  0.00    +0.084 A 
ATOM     11  N   UNL     1      -0.754   2.514   6.578  0.00  0.00    -0.350 N 
ATOM     12  H   UNL     1      -0.291   2.070   5.851  0.00  0.00    +0.166 HD
ENDROOT
BRANCH   1  21
ATOM     13  C   UNL     1      -0.543   1.617   0.292  0.00  0.00    +0.012 C 
ATOM     14  C   UNL     1      -0.483   0.096   0.166  0.00  0.00    +0.040 C 
ATOM     15  C   UNL     1      -1.835  -0.525   0.501  0.00  0.00    +0.114 C 
ATOM     16  N   UNL     1      -2.018  -0.555   1.956  0.00  0.00    -0.300 N 
ATOM     17  C   UNL     1      -0.998  -1.234   2.762  0.00  0.00    +0.114 C 
ATOM     18  C   UNL     1       0.373  -0.635   2.472  0.00  0.00    +0.040 C 
ATOM     19  C   UNL     1       0.653  -0.492   0.986  0.00  0.00    +0.099 C 
ATOM     20  C   UNL     1       0.548   0.691   3.210  0.00  0.00    +0.012 C 
ATOM     21  C   UNL     1      -3.096   0.011   2.532  0.00  0.00    +0.221 C 
ATOM     22  O   UNL     1      -3.934   0.557   1.846  0.00  0.00    -0.275 OA
BRANCH  19  23
ATOM     23  C   UNL     1       1.872   0.375   0.808  0.00  0.00    -0.016 A 
ATOM     24  C   UNL     1       3.009  -0.143   0.217  0.00  0.00    +0.006 A 
ATOM     25  C   UNL     1       4.128   0.653   0.054  0.00  0.00    +0.000 A 
ATOM     26  C   UNL     1       4.109   1.967   0.482  0.00  0.00    +0.000 A 
ATOM     27  C   UNL     1       2.972   2.486   1.073  0.00  0.00    +0.000 A 
ATOM     28  C   UNL     1       1.852   1.691   1.232  0.00  0.00    +0.006 A 
ENDBRANCH  19  23
BRANCH  19  29
ATOM     29  O   UNL     1       0.972  -1.793   0.456  0.00  0.00    -0.383 OA
ATOM     30  H   UNL     1       1.690  -2.243   0.922  0.00  0.00    +0.211 HD
ENDBRANCH  19  29
ENDBRANCH   1  21
BRANCH   5  31
ATOM     31  C   UNL     1      -5.742  -0.174   4.452  0.00  0.00    -0.007 A 
ATOM     32  C   UNL     1      -5.769  -1.297   5.257  0.00  0.00    +0.009 A 
ATOM     33  C   UNL     1      -6.873  -2.129   5.248  0.00  0.00    +0.039 A 
ATOM     34  C   UNL     1      -7.953  -1.838   4.431  0.00  0.00    +0.126 A 
ATOM     35  C   UNL     1      -7.927  -0.714   3.624  0.00  0.00    +0.077 A 
ATOM     36  C   UNL     1      -6.823   0.122   3.639  0.00  0.00    +0.130 A 
ATOM     37  F   UNL     1      -6.798   1.223   2.856  0.00  0.00    -0.205 F 
ATOM     38  F   UNL     1      -9.031  -2.652   4.421  0.00  0.00    -0.205 F 
ENDBRANCH   5  31
TORSDOF 4
