REMARK  Name = ZINC49623811
REMARK  7 active torsions:
REMARK  status: ('A' for Active; 'I' for Inactive)
REMARK    1  A    between atoms: C_3  and  C_18
REMARK    2  A    between atoms: C_6  and  C_7
REMARK    3  A    between atoms: C_7  and  S_8
REMARK    4  A    between atoms: S_8  and  C_9
REMARK    5  A    between atoms: C_15  and  N_17
REMARK    6  A    between atoms: C_19  and  C_20
REMARK    7  A    between atoms: C_20  and  O_21
REMARK                            x       y       z     vdW  Elec       q    Type
REMARK                         _______ _______ _______ _____ _____    ______ ____
ROOT
ATOM      1  C   UNL     1      -1.295  -0.772   0.010  0.00  0.00    +0.112 C 
ENDROOT
BRANCH   1   7
ATOM      2  C   UNL     1      -0.017   1.379   0.010  0.00  0.00    +0.005 A 
ATOM      3  C   UNL     1       1.167   2.088   0.002  0.00  0.00    +0.017 A 
ATOM      4  C   UNL     1       2.385   1.407  -0.013  0.00  0.00    +0.025 A 
ATOM      5  C   UNL     1       2.397   0.012  -0.021  0.00  0.00    +0.017 A 
ATOM      6  C   UNL     1       1.206  -0.685  -0.013  0.00  0.00    +0.005 A 
ATOM      7  C   UNL     1       0.002  -0.004   0.002  0.00  0.00    -0.037 A 
BRANCH   4   8
ATOM      8  C   UNL     1       3.617   2.137  -0.021  0.00  0.00    -0.064 C 
ATOM      9  C   UNL     1       4.627   2.735  -0.028  0.00  0.00    -0.069 C 
BRANCH   9  10
ATOM     10  C   UNL     1       5.893   3.485  -0.037  0.00  0.00    +0.244 C 
BRANCH  10  11
ATOM     11  O   UNL     1       6.990   2.569  -0.052  0.00  0.00    -0.383 OA
ATOM     12  H   UNL     1       7.858   2.994  -0.059  0.00  0.00    +0.211 HD
ENDBRANCH  10  11
ENDBRANCH   9  10
ENDBRANCH   4   8
ENDBRANCH   1   7
BRANCH   1  13
ATOM     13  S   UNL     1      -1.831  -1.071  -1.696  0.00  0.00    -0.083 S 
BRANCH  13  14
ATOM     14  C   UNL     1      -3.339  -1.966  -1.519  0.00  0.00    +0.171 A 
ATOM     15  N   UNL     1      -4.016  -2.361  -2.633  0.00  0.00    -0.302 N 
ATOM     16  H   UNL     1      -3.666  -2.149  -3.513  0.00  0.00    +0.171 HD
ATOM     17  C   UNL     1      -5.172  -3.047  -2.516  0.00  0.00    +0.254 A 
ATOM     18  O   UNL     1      -5.784  -3.405  -3.509  0.00  0.00    -0.268 OA
ATOM     19  C   UNL     1      -5.656  -3.341  -1.238  0.00  0.00    +0.113 A 
ATOM     20  C   UNL     1      -4.928  -2.916  -0.134  0.00  0.00    +0.124 A 
ATOM     21  N   UNL     1      -3.786  -2.244  -0.311  0.00  0.00    -0.209 NA
BRANCH  20  22
ATOM     22  N   UNL     1      -5.380  -3.191   1.141  0.00  0.00    -0.343 N 
ATOM     23  H   UNL     1      -6.207  -3.682   1.267  0.00  0.00    +0.144 HD
ATOM     24  H   UNL     1      -4.870  -2.893   1.911  0.00  0.00    +0.144 HD
ENDBRANCH  20  22
ENDBRANCH  13  14
ENDBRANCH   1  13
TORSDOF 7
