REMARK  Name = ZINC03951738
REMARK  10 active torsions:
REMARK  status: ('A' for Active; 'I' for Inactive)
REMARK    1  A    between atoms: C_1  and  C_2
REMARK    2  A    between atoms: C_4  and  C_7
REMARK    3  A    between atoms: C_8  and  C_9
REMARK    4  A    between atoms: C_8  and  C_10
REMARK    5  A    between atoms: C_21  and  C_41
REMARK    6  A    between atoms: C_23  and  O_40
REMARK    7  A    between atoms: C_25  and  C_39
REMARK    8  A    between atoms: C_29  and  C_37
REMARK    9  A    between atoms: C_29  and  C_38
REMARK   10  A    between atoms: C_30  and  O_36
REMARK                            x       y       z     vdW  Elec       q    Type
REMARK                         _______ _______ _______ _____ _____    ______ ____
ROOT
ATOM      1  C   UNL     1       3.868   1.144   0.196  0.00  0.00    +0.205 C 
ATOM      2  C   UNL     1       4.582   0.712  -1.089  0.00  0.00    +0.083 C 
ATOM      3  C   UNL     1       4.700  -0.810  -1.128  0.00  0.00    +0.151 C 
ATOM      4  C   UNL     1       4.253  -1.566  -2.375  0.00  0.00    +0.148 C 
ATOM      5  O   UNL     1       5.634  -1.377  -2.050  0.00  0.00    -0.368 OA
ATOM      6  C   UNL     1       3.690  -0.789  -3.561  0.00  0.00    +0.034 C 
ATOM      7  C   UNL     1       2.547  -1.573  -4.218  0.00  0.00    +0.003 C 
ATOM      8  C   UNL     1       1.730  -2.288  -3.146  0.00  0.00    +0.006 C 
ATOM      9  C   UNL     1       0.302  -2.568  -3.603  0.00  0.00    +0.015 C 
ATOM     10  C   UNL     1      -0.617  -1.401  -3.262  0.00  0.00    +0.127 C 
ATOM     11  C   UNL     1      -1.422  -1.660  -1.989  0.00  0.00    +0.081 C 
ATOM     12  C   UNL     1      -2.057  -0.384  -1.527  0.00  0.00    +0.147 C 
ATOM     13  O   UNL     1      -2.924   0.098  -2.248  0.00  0.00    -0.296 OA
ATOM     14  C   UNL     1      -1.734   0.361  -0.264  0.00  0.00    +0.050 C 
ATOM     15  C   UNL     1      -0.247   0.653  -0.139  0.00  0.00    +0.138 C 
ATOM     16  C   UNL     1       0.323   0.243   1.216  0.00  0.00    +0.152 C 
ATOM     17  C   UNL     1       1.798   0.579   1.252  0.00  0.00    +0.310 C 
ATOM     18  O   UNL     1       2.364   0.644   2.317  0.00  0.00    -0.251 OA
ATOM     19  O   UNL     1       2.462   0.794   0.110  0.00  0.00    -0.457 OA
ATOM     20  C   UNL     1      -2.287  -0.378   0.954  0.00  0.00    +0.021 C 
ATOM     21  C   UNL     1      -2.467   1.723  -0.340  0.00  0.00    +0.021 C 
ATOM     22  C   UNL     1      -0.581  -2.334  -0.917  0.00  0.00    +0.018 C 
ATOM     23  C   UNL     1       0.266  -2.822  -5.116  0.00  0.00    +0.010 C 
ENDROOT
BRANCH   1  25
ATOM     24  C   UNL     1       4.690   3.130   1.382  0.00  0.00    +0.031 C 
ATOM     25  C   UNL     1       4.006   2.635   0.359  0.00  0.00    -0.031 C 
ATOM     26  C   UNL     1       3.367   3.565  -0.640  0.00  0.00    +0.043 C 
BRANCH  24  30
ATOM     27  C   UNL     1       3.130   7.768   0.442  0.00  0.00    +0.073 C 
ATOM     28  C   UNL     1       3.924   6.697   1.143  0.00  0.00    +0.076 A 
ATOM     29  N   UNL     1       3.929   5.405   0.925  0.00  0.00    -0.245 NA
ATOM     30  C   UNL     1       4.692   4.586   1.635  0.00  0.00    +0.071 A 
ATOM     31  C   UNL     1       5.479   5.134   2.615  0.00  0.00    +0.074 A 
ATOM     32  S   UNL     1       5.063   6.863   2.442  0.00  0.00    -0.080 S 
ENDBRANCH  24  30
ENDBRANCH   1  25
BRANCH  15  33
ATOM     33  O   UNL     1      -0.040   2.066  -0.313  0.00  0.00    -0.390 OA
ATOM     34  H   UNL     1       0.887   2.337  -0.258  0.00  0.00    +0.210 HD
ENDBRANCH  15  33
BRANCH  10  35
ATOM     35  O   UNL     1       0.134  -0.194  -3.137  0.00  0.00    -0.391 OA
ATOM     36  H   UNL     1      -0.402   0.581  -2.920  0.00  0.00    +0.210 HD
ENDBRANCH  10  35
TORSDOF 4
