REMARK  Name = ZINC12547053
REMARK  5 active torsions:
REMARK  status: ('A' for Active; 'I' for Inactive)
REMARK    1  A    between atoms: C_5  and  N_7
REMARK    2  A    between atoms: N_10  and  C_13
REMARK    3  A    between atoms: C_13  and  C_14
REMARK    4  A    between atoms: C_17  and  C_33
REMARK    5  A    between atoms: C_25  and  C_26
REMARK                            x       y       z     vdW  Elec       q    Type
REMARK                         _______ _______ _______ _____ _____    ______ ____
ROOT
ATOM      1  C   UNL     1      -0.116  -5.325   0.445  0.00  0.00    +0.253 C 
ATOM      2  O   UNL     1       0.383  -6.424   0.570  0.00  0.00    -0.272 OA
ATOM      3  N   UNL     1       0.670  -4.234   0.358  0.00  0.00    -0.183 N 
ATOM      4  C   UNL     1       2.150  -4.220   0.387  0.00  0.00    +0.147 C 
ATOM      5  C   UNL     1       2.463  -2.874  -0.288  0.00  0.00    +0.067 C 
ATOM      6  C   UNL     1       3.587  -2.124   0.429  0.00  0.00    +0.012 C 
ATOM      7  C   UNL     1       3.707  -0.736  -0.196  0.00  0.00    +0.005 C 
ATOM      8  C   UNL     1       2.464   0.113  -0.020  0.00  0.00    +0.037 C 
ATOM      9  C   UNL     1       1.183  -0.665  -0.012  0.00  0.00    -0.023 C 
ATOM     10  C   UNL     1       0.002  -0.004   0.002  0.00  0.00    +0.020 C 
ATOM     11  C   UNL     1       1.191  -2.076  -0.014  0.00  0.00    +0.068 C 
ATOM     12  N   UNL     1       0.234  -2.912   0.211  0.00  0.00    -0.181 NA
ENDROOT
BRANCH  10  13
ATOM     13  C   UNL     1      -0.018   1.458   0.010  0.00  0.00    +0.012 A 
ATOM     14  C   UNL     1      -1.106   2.318   0.019  0.00  0.00    +0.015 A 
ATOM     15  C   UNL     1      -0.868   3.671   0.029  0.00  0.00    +0.008 A 
ATOM     16  C   UNL     1       0.415   4.122   0.019  0.00  0.00    +0.046 A 
ATOM     17  S   UNL     1       1.353   2.603   0.003  0.00  0.00    -0.097 S 
ENDBRANCH  10  13
BRANCH   4  18
ATOM     18  C   UNL     1       2.647  -4.240   1.809  0.00  0.00    +0.013 A 
ATOM     19  C   UNL     1       3.777  -4.797   2.310  0.00  0.00    +0.013 A 
ATOM     20  C   UNL     1       4.033  -4.690   3.664  0.00  0.00    +0.008 A 
ATOM     21  C   UNL     1       3.147  -4.031   4.451  0.00  0.00    +0.045 A 
ATOM     22  S   UNL     1       1.906  -3.530   3.270  0.00  0.00    -0.100 S 
ENDBRANCH   4  18
BRANCH   1  23
ATOM     23  C   UNL     1      -1.615  -5.180   0.386  0.00  0.00    +0.214 C 
BRANCH  23  32
ATOM     24  C   UNL     1      -4.167 -10.702   0.176  0.00  0.00    +0.003 A 
ATOM     25  C   UNL     1      -3.636  -9.691  -0.616  0.00  0.00    +0.014 A 
ATOM     26  C   UNL     1      -3.145  -8.539  -0.028  0.00  0.00    +0.051 A 
ATOM     27  C   UNL     1      -3.184  -8.394   1.376  0.00  0.00    +0.070 A 
ATOM     28  C   UNL     1      -3.719  -9.414   2.161  0.00  0.00    +0.038 A 
ATOM     29  C   UNL     1      -4.209 -10.570   1.547  0.00  0.00    +0.023 A 
ATOM     30  C   UNL     1      -2.594  -7.077   1.663  0.00  0.00    +0.256 C 
ATOM     31  O   UNL     1      -2.451  -6.590   2.768  0.00  0.00    -0.269 OA
ATOM     32  N   UNL     1      -2.238  -6.501   0.501  0.00  0.00    -0.225 N 
ATOM     33  C   UNL     1      -2.534  -7.296  -0.543  0.00  0.00    +0.254 C 
ATOM     34  O   UNL     1      -2.332  -7.037  -1.713  0.00  0.00    -0.270 OA
BRANCH  28  35
ATOM     35  N   UNL     1      -3.764  -9.284   3.541  0.00  0.00    -0.357 N 
ATOM     36  H   UNL     1      -3.422  -8.480   3.963  0.00  0.00    +0.142 HD
ATOM     37  H   UNL     1      -4.137  -9.996   4.084  0.00  0.00    +0.142 HD
ENDBRANCH  28  35
ENDBRANCH  23  32
ENDBRANCH   1  23
TORSDOF 5
