REMARK  Name = ZINC22511010
REMARK  9 active torsions:
REMARK  status: ('A' for Active; 'I' for Inactive)
REMARK    1  A    between atoms: C_1  and  C_2
REMARK    2  A    between atoms: C_5  and  C_34
REMARK    3  A    between atoms: C_6  and  N_8
REMARK    4  A    between atoms: N_8  and  S_9
REMARK    5  A    between atoms: S_9  and  C_12
REMARK    6  A    between atoms: C_14  and  C_19
REMARK    7  A    between atoms: C_17  and  C_18
REMARK    8  A    between atoms: N_21  and  C_22
REMARK    9  A    between atoms: C_25  and  N_28
REMARK                            x       y       z     vdW  Elec       q    Type
REMARK                         _______ _______ _______ _____ _____    ______ ____
ROOT
ATOM      1  C   UNL     1      11.717  -1.578  -1.610  0.00  0.00    +0.112 A 
ATOM      2  C   UNL     1      10.368  -1.869  -1.617  0.00  0.00    +0.042 A 
ATOM      3  C   UNL     1       9.446  -0.894  -1.236  0.00  0.00    +0.039 A 
ATOM      4  C   UNL     1       9.894   0.372  -0.856  0.00  0.00    +0.013 A 
ATOM      5  C   UNL     1      11.246   0.648  -0.848  0.00  0.00    +0.006 A 
ATOM      6  C   UNL     1      12.155  -0.323  -1.226  0.00  0.00    -0.024 A 
ATOM      7  C   UNL     1      13.630  -0.013  -1.221  0.00  0.00    +0.046 C 
ENDROOT
BRANCH   3   8
ATOM      8  C   UNL     1       7.999  -1.198  -1.241  0.00  0.00    +0.248 C 
ATOM      9  O   UNL     1       7.611  -2.300  -1.578  0.00  0.00    -0.270 OA
ATOM     10  N   UNL     1       7.111  -0.254  -0.873  0.00  0.00    -0.282 N 
ATOM     11  H   UNL     1       7.454   0.766  -0.646  0.00  0.00    +0.155 HD
BRANCH  10  12
ATOM     12  C   UNL     1       5.750  -0.572  -0.780  0.00  0.00    +0.034 A 
ATOM     13  C   UNL     1       4.791   0.379  -1.106  0.00  0.00    +0.025 A 
ATOM     14  C   UNL     1       3.450   0.065  -1.014  0.00  0.00    +0.025 A 
ATOM     15  C   UNL     1       3.059  -1.200  -0.595  0.00  0.00    +0.036 A 
ATOM     16  C   UNL     1       4.018  -2.148  -0.263  0.00  0.00    +0.025 A 
ATOM     17  C   UNL     1       5.360  -1.837  -0.360  0.00  0.00    +0.025 A 
BRANCH  15  18
ATOM     18  N   UNL     1       1.698  -1.517  -0.501  0.00  0.00    -0.271 N 
ATOM     19  C   UNL     1       0.608  -0.556  -0.703  0.00  0.00    +0.114 C 
ATOM     20  C   UNL     1      -0.657  -1.411  -0.935  0.00  0.00    +0.029 C 
ATOM     21  C   UNL     1      -0.289  -2.724  -0.205  0.00  0.00    +0.098 C 
ATOM     22  C   UNL     1       1.223  -2.742  -0.215  0.00  0.00    +0.220 C 
ATOM     23  O   UNL     1       1.908  -3.719   0.005  0.00  0.00    -0.275 OA
ENDBRANCH  15  18
ENDBRANCH  10  12
ENDBRANCH   3   8
BRANCH   1  24
ATOM     24  S   UNL     1      12.884  -2.808  -2.090  0.00  0.00    +0.073 S 
ATOM     25  O   UNL     1      12.136  -3.966  -2.433  0.00  0.00    -0.150 OA
ATOM     26  O   UNL     1      13.781  -2.184  -2.998  0.00  0.00    -0.150 OA
BRANCH  24  27
ATOM     27  N   UNL     1      13.767  -3.197  -0.744  0.00  0.00    -0.216 N 
ATOM     28  H   UNL     1      14.855  -3.033  -0.734  0.00  0.00    +0.174 HD
BRANCH  27  34
ATOM     29  C   UNL     1      10.264  -6.069   1.161  0.00  0.00    +0.044 C 
ATOM     30  C   UNL     1      11.430  -5.129   1.331  0.00  0.00    -0.049 A 
ATOM     31  C   UNL     1      11.870  -4.796   2.599  0.00  0.00    +0.004 A 
ATOM     32  C   UNL     1      12.939  -3.934   2.759  0.00  0.00    +0.005 A 
ATOM     33  C   UNL     1      13.571  -3.402   1.652  0.00  0.00    -0.028 A 
ATOM     34  C   UNL     1      13.131  -3.734   0.377  0.00  0.00    +0.051 A 
ATOM     35  C   UNL     1      12.054  -4.597   0.220  0.00  0.00    +0.028 A 
ATOM     36  C   UNL     1      14.735  -2.462   1.828  0.00  0.00    +0.046 C 
ENDBRANCH  27  34
ENDBRANCH  24  27
ENDBRANCH   1  24
TORSDOF 6
