REMARK  Name = ZINC09325703
REMARK  8 active torsions:
REMARK  status: ('A' for Active; 'I' for Inactive)
REMARK    1  A    between atoms: C_1  and  O_2
REMARK    2  A    between atoms: O_2  and  C_3
REMARK    3  A    between atoms: C_11  and  N_15
REMARK    4  A    between atoms: C_12  and  C_13
REMARK    5  A    between atoms: C_16  and  C_18
REMARK    6  A    between atoms: C_22  and  N_24
REMARK    7  A    between atoms: N_24  and  S_25
REMARK    8  A    between atoms: S_25  and  C_28
REMARK                            x       y       z     vdW  Elec       q    Type
REMARK                         _______ _______ _______ _____ _____    ______ ____
ROOT
ATOM      1  N   UNL     1      -4.110  -4.157  -0.130  0.00  0.00    -0.275 N 
ATOM      2  C   UNL     1      -2.945  -3.562  -0.455  0.00  0.00    +0.249 C 
ATOM      3  O   UNL     1      -2.212  -4.072  -1.280  0.00  0.00    -0.270 OA
ATOM      4  H   UNL     1      -4.695  -3.750   0.528  0.00  0.00    +0.156 HD
ENDROOT
BRANCH   1  13
ATOM      5  C   UNL     1      -5.474 -11.051  -2.633  0.00  0.00    +0.403 C 
ATOM      6  O   UNL     1      -6.383 -11.802  -2.341  0.00  0.00    -0.226 OA
ATOM      7  N   UNL     1      -5.694  -9.723  -2.704  0.00  0.00    -0.262 N 
ATOM      8  C   UNL     1      -7.023  -9.154  -2.432  0.00  0.00    +0.116 C 
ATOM      9  C   UNL     1      -6.956  -8.267  -1.188  0.00  0.00    +0.056 C 
ATOM     10  C   UNL     1      -5.758  -7.333  -1.302  0.00  0.00    -0.015 A 
ATOM     11  C   UNL     1      -4.736  -7.602  -2.143  0.00  0.00    +0.013 A 
ATOM     12  S   UNL     1      -3.602  -6.260  -1.927  0.00  0.00    -0.075 S 
ATOM     13  C   UNL     1      -4.472  -5.351  -0.736  0.00  0.00    +0.090 A 
ATOM     14  C   UNL     1      -5.615  -6.109  -0.531  0.00  0.00    +0.084 A 
ATOM     15  C   UNL     1      -4.610  -8.784  -3.056  0.00  0.00    +0.153 C 
BRANCH   5  17
ATOM     16  C   UNL     1      -4.083 -12.984  -2.792  0.00  0.00    +0.282 C 
ATOM     17  O   UNL     1      -4.247 -11.544  -2.886  0.00  0.00    -0.454 OA
ENDBRANCH   5  17
BRANCH  14  18
ATOM     18  C   UNL     1      -6.620  -5.699   0.404  0.00  0.00    +0.102 C 
ATOM     19  N   UNL     1      -7.416  -5.374   1.145  0.00  0.00    -0.191 NA
ENDBRANCH  14  18
ENDBRANCH   1  13
BRANCH   2  20
ATOM     20  C   UNL     1      -2.560  -2.289   0.190  0.00  0.00    +0.039 A 
ATOM     21  C   UNL     1      -3.401  -1.701   1.138  0.00  0.00    +0.013 A 
ATOM     22  C   UNL     1      -3.039  -0.513   1.739  0.00  0.00    +0.003 A 
ATOM     23  C   UNL     1      -1.842   0.096   1.411  0.00  0.00    +0.024 A 
ATOM     24  C   UNL     1      -1.000  -0.478   0.465  0.00  0.00    +0.049 A 
ATOM     25  C   UNL     1      -1.355  -1.672  -0.145  0.00  0.00    +0.037 A 
BRANCH  24  26
ATOM     26  N   UNL     1       0.205   0.145   0.134  0.00  0.00    -0.216 N 
ATOM     27  H   UNL     1       0.956   0.106   0.747  0.00  0.00    +0.174 HD
BRANCH  26  28
ATOM     28  S   UNL     1       0.353   0.950  -1.306  0.00  0.00    +0.072 S 
ATOM     29  O   UNL     1       1.658   1.513  -1.325  0.00  0.00    -0.150 OA
ATOM     30  O   UNL     1      -0.108   0.063  -2.316  0.00  0.00    -0.150 OA
BRANCH  28  31
ATOM     31  C   UNL     1      -0.778   2.300  -1.267  0.00  0.00    +0.108 A 
ATOM     32  C   UNL     1      -2.033   2.167  -1.830  0.00  0.00    +0.029 A 
ATOM     33  C   UNL     1      -2.922   3.225  -1.794  0.00  0.00    +0.002 A 
ATOM     34  C   UNL     1      -2.552   4.419  -1.205  0.00  0.00    +0.000 A 
ATOM     35  C   UNL     1      -1.295   4.554  -0.646  0.00  0.00    +0.002 A 
ATOM     36  C   UNL     1      -0.408   3.494  -0.677  0.00  0.00    +0.029 A 
ENDBRANCH  28  31
ENDBRANCH  26  28
ENDBRANCH  24  26
ENDBRANCH   2  20
TORSDOF 7
