REMARK  Name = ZINC33513710
REMARK  8 active torsions:
REMARK  status: ('A' for Active; 'I' for Inactive)
REMARK    1  A    between atoms: C_1  and  C_2
REMARK    2  A    between atoms: C_4  and  C_36
REMARK    3  A    between atoms: C_5  and  C_22
REMARK    4  A    between atoms: C_7  and  C_8
REMARK    5  A    between atoms: N_10  and  N_11
REMARK    6  A    between atoms: C_12  and  C_13
REMARK    7  A    between atoms: N_24  and  N_25
REMARK    8  A    between atoms: C_26  and  C_27
REMARK                            x       y       z     vdW  Elec       q    Type
REMARK                         _______ _______ _______ _____ _____    ______ ____
ROOT
ATOM      1  C   UNL     1       0.107   4.247   0.049  0.00  0.00    +0.066 C 
ATOM      2  C   UNL     1       0.454   2.903  -0.539  0.00  0.00    +0.051 A 
ATOM      3  N   UNL     1       0.686   2.799  -1.831  0.00  0.00    -0.256 NA
ATOM      4  C   UNL     1       0.993   1.649  -2.396  0.00  0.00    +0.051 A 
ATOM      5  C   UNL     1       1.087   0.480  -1.637  0.00  0.00    +0.060 A 
ATOM      6  C   UNL     1       0.849   0.544  -0.262  0.00  0.00    +0.029 A 
ATOM      7  C   UNL     1       0.532   1.786   0.296  0.00  0.00    +0.060 A 
ATOM      8  C   UNL     1       1.246   1.594  -3.881  0.00  0.00    +0.066 C 
ENDROOT
BRANCH   7   9
ATOM      9  C   UNL     1       0.277   1.913   1.746  0.00  0.00    +0.265 C 
ATOM     10  O   UNL     1       1.208   1.942   2.527  0.00  0.00    -0.268 OA
ATOM     11  N   UNL     1      -0.988   1.999   2.203  0.00  0.00    -0.203 N 
ATOM     12  H   UNL     1      -1.733   1.898   1.590  0.00  0.00    +0.178 HD
BRANCH  11  13
ATOM     13  N   UNL     1      -1.228   2.233   3.563  0.00  0.00    -0.187 NA
ATOM     14  C   UNL     1      -2.444   2.383   3.992  0.00  0.00    +0.138 C 
BRANCH  14  15
ATOM     15  C   UNL     1      -3.579   1.972   3.147  0.00  0.00    -0.002 A 
ATOM     16  C   UNL     1      -3.403   0.996   2.162  0.00  0.00    +0.059 A 
ATOM     17  C   UNL     1      -4.470   0.614   1.372  0.00  0.00    +0.167 A 
ATOM     18  C   UNL     1      -5.721   1.202   1.558  0.00  0.00    +0.166 A 
ATOM     19  C   UNL     1      -5.896   2.171   2.535  0.00  0.00    +0.050 A 
ATOM     20  C   UNL     1      -4.836   2.553   3.331  0.00  0.00    +0.013 A 
ATOM     21  O   UNL     1      -6.595   0.657   0.662  0.00  0.00    -0.453 OA
ATOM     22  C   UNL     1      -5.776   0.030  -0.343  0.00  0.00    +0.466 C 
ATOM     23  O   UNL     1      -4.563  -0.298   0.360  0.00  0.00    -0.453 OA
ENDBRANCH  14  15
ENDBRANCH  11  13
ENDBRANCH   7   9
BRANCH   5  24
ATOM     24  C   UNL     1       1.432  -0.805  -2.280  0.00  0.00    +0.265 C 
ATOM     25  O   UNL     1       1.147  -0.998  -3.446  0.00  0.00    -0.268 OA
ATOM     26  N   UNL     1       2.063  -1.764  -1.573  0.00  0.00    -0.203 N 
ATOM     27  H   UNL     1       2.212  -1.646  -0.622  0.00  0.00    +0.178 HD
BRANCH  26  28
ATOM     28  N   UNL     1       2.502  -2.931  -2.212  0.00  0.00    -0.187 NA
ATOM     29  C   UNL     1       3.131  -3.843  -1.537  0.00  0.00    +0.138 C 
BRANCH  29  30
ATOM     30  C   UNL     1       3.207  -3.752  -0.068  0.00  0.00    -0.002 A 
ATOM     31  C   UNL     1       4.234  -4.401   0.623  0.00  0.00    +0.059 A 
ATOM     32  C   UNL     1       4.301  -4.312   2.001  0.00  0.00    +0.167 A 
ATOM     33  C   UNL     1       3.343  -3.576   2.699  0.00  0.00    +0.166 A 
ATOM     34  C   UNL     1       2.324  -2.933   2.013  0.00  0.00    +0.050 A 
ATOM     35  C   UNL     1       2.255  -3.013   0.638  0.00  0.00    +0.013 A 
ATOM     36  O   UNL     1       3.630  -3.645   4.032  0.00  0.00    -0.453 OA
ATOM     37  C   UNL     1       4.527  -4.762   4.176  0.00  0.00    +0.466 C 
ATOM     38  O   UNL     1       5.184  -4.841   2.897  0.00  0.00    -0.453 OA
ENDBRANCH  29  30
ENDBRANCH  26  28
ENDBRANCH   5  24
TORSDOF 6
