REMARK  Name = ZINC13630184
REMARK  8 active torsions:
REMARK  status: ('A' for Active; 'I' for Inactive)
REMARK    1  A    between atoms: C_1  and  C_2
REMARK    2  A    between atoms: C_5  and  C_9
REMARK    3  A    between atoms: N_11  and  C_12
REMARK    4  A    between atoms: C_12  and  N_14
REMARK    5  A    between atoms: N_14  and  N_15
REMARK    6  A    between atoms: C_16  and  C_18
REMARK    7  A    between atoms: N_23  and  C_25
REMARK    8  A    between atoms: C_25  and  C_26
REMARK                            x       y       z     vdW  Elec       q    Type
REMARK                         _______ _______ _______ _____ _____    ______ ____
ROOT
ATOM      1  N   UNL     1      -4.880   5.854   6.459  0.00  0.00    -0.246 N 
ATOM      2  H   UNL     1      -5.756   5.810   6.045  0.00  0.00    +0.172 HD
ENDROOT
BRANCH   1   3
ATOM      3  N   UNL     1      -3.743   5.470   5.736  0.00  0.00    -0.235 N 
ATOM      4  C   UNL     1      -3.867   5.040   4.464  0.00  0.00    +0.234 C 
ATOM      5  O   UNL     1      -4.962   4.986   3.946  0.00  0.00    -0.274 OA
ATOM      6  H   UNL     1      -2.867   5.513   6.150  0.00  0.00    +0.173 HD
BRANCH   4   7
ATOM      7  C   UNL     1      -2.644   4.627   3.686  0.00  0.00    +0.102 C 
ATOM      8  C   UNL     1      -1.662   5.811   3.530  0.00  0.00    +0.110 C 
ATOM      9  C   UNL     1      -1.094   5.641   2.138  0.00  0.00    +0.217 C 
ATOM     10  O   UNL     1      -0.093   6.187   1.725  0.00  0.00    -0.276 OA
ATOM     11  N   UNL     1      -1.861   4.798   1.426  0.00  0.00    -0.293 N 
ATOM     12  C   UNL     1      -3.006   4.324   2.213  0.00  0.00    +0.121 C 
BRANCH  11  13
ATOM     13  C   UNL     1      -1.592   4.406   0.040  0.00  0.00    +0.182 C 
BRANCH  13  14
ATOM     14  C   UNL     1      -0.722   3.175   0.026  0.00  0.00    +0.122 A 
ATOM     15  C   UNL     1      -1.159   1.903   0.017  0.00  0.00    +0.046 A 
ATOM     16  C   UNL     1      -0.013   1.076   0.008  0.00  0.00    +0.041 A 
ATOM     17  C   UNL     1       1.057   1.892   0.002  0.00  0.00    +0.195 A 
ATOM     18  O   UNL     1       0.621   3.162   0.013  0.00  0.00    -0.466 OA
ENDBRANCH  13  14
ENDBRANCH  11  13
ENDBRANCH   4   7
ENDBRANCH   1   3
BRANCH   1  19
ATOM     19  C   UNL     1      -4.756   6.284   7.731  0.00  0.00    +0.153 C 
ATOM     20  S   UNL     1      -6.145   6.753   8.615  0.00  0.00    -0.017 S 
BRANCH  19  23
ATOM     21  C   UNL     1      -3.415   6.774   9.577  0.00  0.00    +0.250 C 
ATOM     22  O   UNL     1      -4.401   7.107  10.205  0.00  0.00    -0.270 OA
ATOM     23  N   UNL     1      -3.538   6.344   8.306  0.00  0.00    -0.263 N 
ATOM     24  H   UNL     1      -2.752   6.078   7.805  0.00  0.00    +0.157 HD
BRANCH  21  29
ATOM     25  C   UNL     1       1.784   7.032  12.032  0.00  0.00    +0.045 C 
ATOM     26  C   UNL     1       0.422   6.965  11.389  0.00  0.00    -0.036 A 
ATOM     27  C   UNL     1       0.298   6.522  10.084  0.00  0.00    +0.005 A 
ATOM     28  C   UNL     1      -0.946   6.453   9.491  0.00  0.00    +0.013 A 
ATOM     29  C   UNL     1      -2.080   6.840  10.208  0.00  0.00    +0.038 A 
ATOM     30  C   UNL     1      -1.948   7.285  11.524  0.00  0.00    +0.028 A 
ATOM     31  C   UNL     1      -0.698   7.345  12.107  0.00  0.00    +0.021 A 
ATOM     32 BR   UNL     1      -0.516   7.947  13.891  0.00  0.00    -0.050 Br
ENDBRANCH  21  29
ENDBRANCH  19  23
ENDBRANCH   1  19
TORSDOF 7
