REMARK  Name = ZINC34946527
REMARK  10 active torsions:
REMARK  status: ('A' for Active; 'I' for Inactive)
REMARK    1  A    between atoms: C_1  and  C_2
REMARK    2  A    between atoms: C_5  and  N_8
REMARK    3  A    between atoms: N_11  and  C_12
REMARK    4  A    between atoms: N_11  and  C_26
REMARK    5  A    between atoms: C_12  and  C_13
REMARK    6  A    between atoms: C_13  and  N_14
REMARK    7  A    between atoms: N_17  and  C_18
REMARK    8  A    between atoms: C_19  and  C_25
REMARK    9  A    between atoms: C_23  and  C_24
REMARK   10  A    between atoms: C_30  and  C_32
REMARK                            x       y       z     vdW  Elec       q    Type
REMARK                         _______ _______ _______ _____ _____    ______ ____
ROOT
ATOM      1  N   UNL     1       0.118  -6.371   0.696  0.00  0.00    -0.269 N 
ATOM      2  C   UNL     1       0.699  -7.561   0.444  0.00  0.00    +0.311 C 
ATOM      3  O   UNL     1       1.051  -7.839  -0.686  0.00  0.00    -0.252 OA
ATOM      4  N   UNL     1       0.890  -8.442   1.446  0.00  0.00    -0.254 N 
ATOM      5  H   UNL     1      -0.107  -6.124   1.606  0.00  0.00    +0.156 HD
ENDROOT
BRANCH   1  10
ATOM      6  C   UNL     1      -1.017  -2.810  -3.572  0.00  0.00    +0.044 C 
ATOM      7  C   UNL     1      -0.715  -3.756  -2.439  0.00  0.00    -0.050 A 
ATOM      8  C   UNL     1      -1.560  -3.813  -1.345  0.00  0.00    +0.005 A 
ATOM      9  C   UNL     1      -1.286  -4.679  -0.305  0.00  0.00    +0.023 A 
ATOM     10  C   UNL     1      -0.162  -5.493  -0.357  0.00  0.00    +0.035 A 
ATOM     11  C   UNL     1       0.684  -5.433  -1.457  0.00  0.00    +0.023 A 
ATOM     12  C   UNL     1       0.402  -4.569  -2.497  0.00  0.00    +0.005 A 
ENDBRANCH   1  10
BRANCH   4  13
ATOM     13  C   UNL     1       1.585  -9.633   1.206  0.00  0.00    +0.038 A 
ATOM     14  C   UNL     1       1.035 -10.605   0.380  0.00  0.00    +0.023 A 
ATOM     15  C   UNL     1       1.723 -11.780   0.146  0.00  0.00    +0.002 A 
ATOM     16  C   UNL     1       2.958 -11.988   0.732  0.00  0.00    +0.012 A 
ATOM     17  C   UNL     1       3.508 -11.023   1.556  0.00  0.00    +0.057 A 
ATOM     18  C   UNL     1       2.827  -9.844   1.790  0.00  0.00    +0.036 A 
BRANCH  17  19
ATOM     19  C   UNL     1       4.853 -11.255   2.193  0.00  0.00    +0.417 C 
ATOM     20  F   UNL     1       5.343 -12.507   1.806  0.00  0.00    -0.166 F 
ATOM     21  F   UNL     1       5.743 -10.257   1.781  0.00  0.00    -0.166 F 
ATOM     22  F   UNL     1       4.722 -11.215   3.586  0.00  0.00    -0.166 F 
ENDBRANCH  17  19
ENDBRANCH   4  13
BRANCH   4  23
ATOM     23  C   UNL     1       0.371  -8.154   2.785  0.00  0.00    +0.134 C 
BRANCH  23  24
ATOM     24  C   UNL     1      -1.050  -8.708   2.912  0.00  0.00    +0.125 C 
BRANCH  24  25
ATOM     25  N   UNL     1      -1.569  -8.419   4.251  0.00  0.00    -0.298 N 
ATOM     26  C   UNL     1      -2.811  -8.816   4.592  0.00  0.00    +0.304 C 
ATOM     27  O   UNL     1      -3.500  -9.413   3.788  0.00  0.00    -0.253 OA
ATOM     28  N   UNL     1      -3.288  -8.550   5.824  0.00  0.00    -0.269 N 
ATOM     29  H   UNL     1      -1.019  -7.942   4.892  0.00  0.00    +0.150 HD
ATOM     30  H   UNL     1      -2.749  -8.048   6.455  0.00  0.00    +0.156 HD
BRANCH  28  31
ATOM     31  C   UNL     1      -4.562  -8.998   6.192  0.00  0.00    +0.041 A 
ATOM     32  C   UNL     1      -4.709  -9.871   7.262  0.00  0.00    -0.029 A 
ATOM     33  C   UNL     1      -5.968 -10.312   7.624  0.00  0.00    +0.005 A 
ATOM     34  C   UNL     1      -7.080  -9.884   6.921  0.00  0.00    +0.001 A 
ATOM     35  C   UNL     1      -6.936  -9.015   5.855  0.00  0.00    +0.005 A 
ATOM     36  C   UNL     1      -5.681  -8.567   5.492  0.00  0.00    -0.029 A 
ATOM     37  C   UNL     1      -5.526  -7.615   4.335  0.00  0.00    +0.045 C 
ATOM     38  C   UNL     1      -3.498 -10.338   8.028  0.00  0.00    +0.045 C 
ENDBRANCH  28  31
ENDBRANCH  24  25
ENDBRANCH  23  24
ENDBRANCH   4  23
TORSDOF 7
