REMARK  Name = ZINC33779614
REMARK  11 active torsions:
REMARK  status: ('A' for Active; 'I' for Inactive)
REMARK    1  A    between atoms: C_1  and  C_2
REMARK    2  A    between atoms: C_5  and  N_8
REMARK    3  A    between atoms: C_9  and  C_22
REMARK    4  A    between atoms: C_12  and  S_13
REMARK    5  A    between atoms: S_13  and  C_14
REMARK    6  A    between atoms: C_14  and  C_15
REMARK    7  A    between atoms: C_20  and  C_21
REMARK    8  A    between atoms: C_22  and  C_24
REMARK    9  A    between atoms: C_22  and  N_25
REMARK   10  A    between atoms: C_26  and  C_28
REMARK   11  A    between atoms: C_32  and  N_34
REMARK                            x       y       z     vdW  Elec       q    Type
REMARK                         _______ _______ _______ _____ _____    ______ ____
ROOT
ATOM      1  N   UNL     1       0.002  -0.004   0.002  0.00  0.00    -0.273 N 
ATOM      2  C   UNL     1      -0.438  -0.843   0.991  0.00  0.00    +0.159 A 
ATOM      3  N   UNL     1      -0.238  -2.064   0.581  0.00  0.00    -0.131 NA
ATOM      4  N   UNL     1       0.294  -2.056  -0.589  0.00  0.00    -0.122 NA
ATOM      5  C   UNL     1       0.459  -0.819  -0.997  0.00  0.00    +0.196 A 
ENDROOT
BRANCH   1  10
ATOM      6  C   UNL     1      -0.075   5.671   0.031  0.00  0.00    +0.044 C 
ATOM      7  C   UNL     1      -0.054   4.165   0.024  0.00  0.00    -0.050 A 
ATOM      8  C   UNL     1       1.153   3.491   0.009  0.00  0.00    +0.005 A 
ATOM      9  C   UNL     1       1.175   2.110   0.002  0.00  0.00    +0.026 A 
ATOM     10  C   UNL     1      -0.017   1.398   0.010  0.00  0.00    +0.050 A 
ATOM     11  C   UNL     1      -1.228   2.077   0.019  0.00  0.00    +0.026 A 
ATOM     12  C   UNL     1      -1.243   3.458   0.032  0.00  0.00    +0.005 A 
ENDBRANCH   1  10
BRANCH   2  13
ATOM     13  C   UNL     1      -1.043  -0.431   2.308  0.00  0.00    +0.139 C 
ATOM     14  C   UNL     1      -2.555  -0.666   2.271  0.00  0.00    +0.036 C 
BRANCH  13  15
ATOM     15  N   UNL     1      -0.452  -1.227   3.387  0.00  0.00    -0.302 N 
ATOM     16  C   UNL     1      -0.427  -0.744   4.645  0.00  0.00    +0.245 C 
ATOM     17  O   UNL     1      -0.896   0.351   4.885  0.00  0.00    -0.270 OA
ATOM     18  H   UNL     1      -0.028  -2.219   3.170  0.00  0.00    +0.150 HD
BRANCH  16  19
ATOM     19  C   UNL     1       0.170  -1.547   5.734  0.00  0.00    +0.039 A 
ATOM     20  C   UNL     1       0.708  -2.806   5.462  0.00  0.00    +0.013 A 
ATOM     21  C   UNL     1       1.264  -3.550   6.482  0.00  0.00    +0.003 A 
ATOM     22  C   UNL     1       1.287  -3.051   7.772  0.00  0.00    +0.033 A 
ATOM     23  C   UNL     1       0.755  -1.805   8.049  0.00  0.00    +0.127 A 
ATOM     24  C   UNL     1       0.202  -1.048   7.036  0.00  0.00    +0.045 A 
BRANCH  23  25
ATOM     25  N   UNL     1       0.785  -1.279   9.432  0.00  0.00    +0.056 N 
ATOM     26  O   UNL     1       1.278  -1.944  10.326  0.00  0.00    -0.126 OA
ATOM     27  O   UNL     1       0.317  -0.181   9.676  0.00  0.00    -0.126 OA
ENDBRANCH  23  25
ENDBRANCH  16  19
ENDBRANCH  13  15
ENDBRANCH   2  13
BRANCH   5  28
ATOM     28  S   UNL     1       1.143  -0.306  -2.538  0.00  0.00    -0.081 S 
BRANCH  28  29
ATOM     29  C   UNL     1       1.494  -1.920  -3.279  0.00  0.00    +0.112 C 
BRANCH  29  30
ATOM     30  C   UNL     1       2.103  -1.724  -4.643  0.00  0.00    -0.034 A 
ATOM     31  C   UNL     1       1.290  -1.653  -5.759  0.00  0.00    +0.005 A 
ATOM     32  C   UNL     1       1.848  -1.469  -7.010  0.00  0.00    +0.000 A 
ATOM     33  C   UNL     1       3.220  -1.367  -7.147  0.00  0.00    +0.000 A 
ATOM     34  C   UNL     1       4.033  -1.443  -6.032  0.00  0.00    +0.003 A 
ATOM     35  C   UNL     1       3.474  -1.622  -4.780  0.00  0.00    -0.046 A 
ATOM     36  C   UNL     1       4.361  -1.706  -3.564  0.00  0.00    +0.044 C 
ENDBRANCH  29  30
ENDBRANCH  28  29
ENDBRANCH   5  28
TORSDOF 8
