REMARK  Name = ZINC12973203
REMARK  4 active torsions:
REMARK  status: ('A' for Active; 'I' for Inactive)
REMARK    1  A    between atoms: C_5  and  N_7
REMARK    2  A    between atoms: C_8  and  C_10
REMARK    3  A    between atoms: C_10  and  N_50
REMARK    4  A    between atoms: C_14  and  C_16
REMARK                            x       y       z     vdW  Elec       q    Type
REMARK                         _______ _______ _______ _____ _____    ______ ____
ROOT
ATOM      1  C   UNL     1       3.309   3.678   1.373  0.00  0.00    -0.077 C 
ATOM      2  C   UNL     1       4.519   4.636   1.401  0.00  0.00    -0.020 C 
ATOM      3  C   UNL     1       4.127   5.804   0.472  0.00  0.00    -0.013 C 
ATOM      4  C   UNL     1       2.713   5.452  -0.039  0.00  0.00    -0.037 C 
ATOM      5  N   UNL     1       2.648   4.000   0.104  0.00  0.00    +0.390 N 
ATOM      6  H   UNL     1       3.142   3.548  -0.675  0.00  0.00    -0.080 HD
ENDROOT
BRANCH   4   7
ATOM      7  C   UNL     1       2.558   5.866  -1.480  0.00  0.00    -0.057 A 
ATOM      8  C   UNL     1       3.156   5.121  -2.479  0.00  0.00    +0.006 A 
ATOM      9  C   UNL     1       3.016   5.494  -3.804  0.00  0.00    +0.049 A 
ATOM     10  C   UNL     1       2.274   6.618  -4.126  0.00  0.00    +0.162 A 
ATOM     11  C   UNL     1       1.675   7.366  -3.123  0.00  0.00    +0.162 A 
ATOM     12  C   UNL     1       1.812   6.987  -1.798  0.00  0.00    +0.051 A 
ATOM     13  O   UNL     1       0.946   8.472  -3.451  0.00  0.00    -0.488 OA
ATOM     14  C   UNL     1       1.687   9.575  -3.976  0.00  0.00    +0.232 C 
ATOM     15  C   UNL     1       1.906   9.414  -5.472  0.00  0.00    +0.082 C 
ATOM     16  C   UNL     1       2.777   8.213  -5.803  0.00  0.00    +0.232 C 
ATOM     17  O   UNL     1       2.127   6.996  -5.429  0.00  0.00    -0.488 OA
ENDBRANCH   4   7
BRANCH   5  18
ATOM     18  C   UNL     1       1.226   3.531   0.121  0.00  0.00    +0.020 C 
BRANCH  18  20
ATOM     19  N   UNL     1      -0.017   1.395   0.010  0.00  0.00    -0.286 N 
ATOM     20  C   UNL     1       1.172   2.030   0.002  0.00  0.00    +0.201 C 
ATOM     21  O   UNL     1       2.199   1.392  -0.100  0.00  0.00    -0.278 OA
ATOM     22  H   UNL     1      -0.840   1.908   0.006  0.00  0.00    +0.155 HD
BRANCH  19  27
ATOM     23  C   UNL     1       0.953  -2.113   0.530  0.00  0.00    +0.002 A 
ATOM     24  C   UNL     1      -0.157  -2.769   0.029  0.00  0.00    +0.001 A 
ATOM     25  C   UNL     1      -1.220  -2.046  -0.479  0.00  0.00    +0.016 A 
ATOM     26  C   UNL     1      -1.177  -0.665  -0.487  0.00  0.00    +0.035 A 
ATOM     27  C   UNL     1      -0.064  -0.003   0.016  0.00  0.00    +0.047 A 
ATOM     28  C   UNL     1       1.004  -0.733   0.520  0.00  0.00    +0.024 A 
ATOM     29  I   UNL     1      -2.788   0.430  -1.258  0.00  0.00    -0.042 I 
ENDBRANCH  19  27
ENDBRANCH  18  20
ENDBRANCH   5  18
TORSDOF 4
