REMARK  Name = ZINC13266642
REMARK  8 active torsions:
REMARK  status: ('A' for Active; 'I' for Inactive)
REMARK    1  A    between atoms: C_1  and  C_2
REMARK    2  A    between atoms: C_2  and  C_4
REMARK    3  A    between atoms: C_2  and  N_9
REMARK    4  A    between atoms: C_10  and  C_12
REMARK    5  A    between atoms: C_12  and  S_13
REMARK    6  A    between atoms: S_13  and  C_14
REMARK    7  A    between atoms: C_18  and  C_32
REMARK    8  A    between atoms: N_24  and  C_25
REMARK                            x       y       z     vdW  Elec       q    Type
REMARK                         _______ _______ _______ _____ _____    ______ ____
ROOT
ATOM      1  C   UNL     1       2.164  -6.659  -4.017  0.00  0.00    +0.177 A 
ATOM      2  N   UNL     1       0.888  -6.371  -4.098  0.00  0.00    -0.223 NA
ATOM      3  C   UNL     1       0.043  -7.104  -4.861  0.00  0.00    +0.080 A 
ATOM      4  C   UNL     1      -1.316  -6.792  -4.949  0.00  0.00    +0.043 A 
ATOM      5  C   UNL     1      -2.146  -7.577  -5.740  0.00  0.00    +0.065 A 
ATOM      6  C   UNL     1      -1.629  -8.672  -6.445  0.00  0.00    +0.016 A 
ATOM      7  C   UNL     1      -0.303  -8.986  -6.366  0.00  0.00    +0.016 A 
ATOM      8  C   UNL     1       0.548  -8.213  -5.578  0.00  0.00    +0.065 A 
ATOM      9  C   UNL     1       1.983  -8.516  -5.464  0.00  0.00    +0.267 A 
ATOM     10  O   UNL     1       2.478  -9.458  -6.057  0.00  0.00    -0.267 OA
ATOM     11  N   UNL     1       2.734  -7.712  -4.677  0.00  0.00    -0.253 N 
ENDROOT
BRANCH  11  12
ATOM     12  C   UNL     1       4.106  -7.960  -4.537  0.00  0.00    +0.087 A 
ATOM     13  C   UNL     1       4.563  -8.790  -3.522  0.00  0.00    +0.029 A 
ATOM     14  C   UNL     1       5.915  -9.037  -3.390  0.00  0.00    +0.002 A 
ATOM     15  C   UNL     1       6.816  -8.450  -4.259  0.00  0.00    +0.003 A 
ATOM     16  C   UNL     1       6.367  -7.617  -5.268  0.00  0.00    +0.040 A 
ATOM     17  C   UNL     1       5.014  -7.370  -5.410  0.00  0.00    +0.147 A 
ATOM     18  F   UNL     1       4.574  -6.556  -6.394  0.00  0.00    -0.203 F 
ENDBRANCH  11  12
BRANCH   5  19
ATOM     19  C   UNL     1      -3.586  -7.253  -5.840  0.00  0.00    +0.387 C 
ATOM     20  O   UNL     1      -4.039  -6.304  -5.231  0.00  0.00    -0.241 OA
ATOM     21  O   UNL     1      -4.396  -8.010  -6.605  0.00  0.00    -0.241 OA
ENDBRANCH   5  19
BRANCH   1  22
ATOM     22  S   UNL     1       3.191  -5.646  -3.005  0.00  0.00    -0.078 S 
BRANCH  22  23
ATOM     23  C   UNL     1       1.965  -4.459  -2.401  0.00  0.00    +0.173 C 
BRANCH  23  25
ATOM     24  N   UNL     1       1.913  -2.481  -0.917  0.00  0.00    -0.308 N 
ATOM     25  C   UNL     1       2.635  -3.465  -1.488  0.00  0.00    +0.224 C 
ATOM     26  O   UNL     1       3.825  -3.550  -1.268  0.00  0.00    -0.275 OA
ATOM     27  H   UNL     1       0.961  -2.413  -1.093  0.00  0.00    +0.149 HD
BRANCH  24  29
ATOM     28  C   UNL     1       2.632  -2.087   1.387  0.00  0.00    +0.033 C 
ATOM     29  C   UNL     1       2.565  -1.514  -0.030  0.00  0.00    +0.107 C 
BRANCH  29  30
ATOM     30  C   UNL     1       1.773  -0.232  -0.016  0.00  0.00    +0.010 A 
ATOM     31  C   UNL     1       2.220   1.048  -0.013  0.00  0.00    +0.013 A 
ATOM     32  C   UNL     1       1.300   2.079   0.001  0.00  0.00    +0.008 A 
ATOM     33  C   UNL     1      -0.022   1.781   0.012  0.00  0.00    +0.045 A 
ATOM     34  S   UNL     1       0.002  -0.004   0.002  0.00  0.00    -0.100 S 
ENDBRANCH  29  30
ENDBRANCH  24  29
ENDBRANCH  23  25
ENDBRANCH  22  23
ENDBRANCH   1  22
TORSDOF 7
