REMARK  Name = ZINC49519797
REMARK  2 active torsions:
REMARK  status: ('A' for Active; 'I' for Inactive)
REMARK    1  A    between atoms: C_2  and  C_8
REMARK    2  A    between atoms: C_14  and  N_17
REMARK                            x       y       z     vdW  Elec       q    Type
REMARK                         _______ _______ _______ _____ _____    ______ ____
ROOT
ATOM      1  C   UNL     1       1.407   3.453   0.007  0.00  0.00    +0.249 C 
ATOM      2  O   UNL     1       1.297   2.244  -0.072  0.00  0.00    -0.270 OA
ATOM      3  N   UNL     1       0.307   4.223   0.123  0.00  0.00    -0.296 N 
ATOM      4  C   UNL     1      -1.024   3.614   0.249  0.00  0.00    +0.108 C 
ATOM      5  C   UNL     1      -1.710   4.182   1.496  0.00  0.00    +0.021 C 
ATOM      6  C   UNL     1      -1.724   5.710   1.413  0.00  0.00    +0.025 C 
ATOM      7  C   UNL     1      -0.286   6.234   1.372  0.00  0.00    +0.092 C 
ATOM      8  C   UNL     1       0.416   5.689   0.131  0.00  0.00    +0.130 C 
ENDROOT
BRANCH   1  10
ATOM      9  C   UNL     1       3.057   5.138  -0.948  0.00  0.00    +0.042 A 
ATOM     10  C   UNL     1       2.739   4.074  -0.025  0.00  0.00    +0.064 A 
ATOM     11  C   UNL     1       3.745   3.669   0.827  0.00  0.00    +0.091 A 
ATOM     12  S   UNL     1       5.046   4.649   0.423  0.00  0.00    -0.064 S 
ATOM     13  C   UNL     1       4.313   5.622  -0.875  0.00  0.00    +0.080 A 
ATOM     14 CL   UNL     1       5.040   6.885  -1.817  0.00  0.00    -0.076 Cl
ATOM     15 CL   UNL     1       3.680   2.429   2.040  0.00  0.00    -0.075 Cl
ENDBRANCH   1  10
BRANCH   7  16
ATOM     16  N   UNL     1      -0.300   7.698   1.326  0.00  0.00    -0.295 N 
ATOM     17  C   UNL     1       0.759   8.397   1.779  0.00  0.00    +0.297 C 
ATOM     18  O   UNL     1       1.727   7.812   2.226  0.00  0.00    -0.253 OA
ATOM     19  N   UNL     1       0.747   9.744   1.736  0.00  0.00    -0.313 N 
ATOM     20  H   UNL     1      -1.072   8.165   0.969  0.00  0.00    +0.151 HD
ATOM     21  H   UNL     1      -0.025  10.210   1.380  0.00  0.00    +0.146 HD
ATOM     22  H   UNL     1       1.509  10.246   2.063  0.00  0.00    +0.146 HD
ENDBRANCH   7  16
TORSDOF 2
