REMARK  Name = ZINC27528334
REMARK  9 active torsions:
REMARK  status: ('A' for Active; 'I' for Inactive)
REMARK    1  A    between atoms: C_1  and  C_2
REMARK    2  A    between atoms: C_5  and  C_8
REMARK    3  A    between atoms: C_8  and  C_10
REMARK    4  A    between atoms: C_11  and  N_39
REMARK    5  A    between atoms: N_12  and  C_30
REMARK    6  A    between atoms: C_15  and  C_17
REMARK    7  A    between atoms: C_20  and  O_23
REMARK    8  A    between atoms: O_23  and  C_24
REMARK    9  A    between atoms: C_33  and  N_36
REMARK                            x       y       z     vdW  Elec       q    Type
REMARK                         _______ _______ _______ _____ _____    ______ ____
ROOT
ATOM      1  C   UNL     1       2.671  -2.848   0.181  0.00  0.00    +0.048 C 
ATOM      2  C   UNL     1       2.470  -4.206   0.130  0.00  0.00    +0.100 C 
ATOM      3  N   UNL     1       3.499  -5.037  -0.239  0.00  0.00    -0.261 N 
ATOM      4  C   UNL     1       4.582  -4.548  -0.923  0.00  0.00    +0.024 C 
ATOM      5  C   UNL     1       4.864  -3.228  -0.916  0.00  0.00    +0.024 C 
ATOM      6  C   UNL     1       4.010  -2.255  -0.144  0.00  0.00    +0.091 C 
ATOM      7  C   UNL     1       5.963  -2.719  -1.631  0.00  0.00    +0.162 C 
ATOM      8  O   UNL     1       6.197  -1.527  -1.595  0.00  0.00    -0.292 OA
ATOM      9  C   UNL     1       6.856  -3.621  -2.438  0.00  0.00    +0.080 C 
ATOM     10  C   UNL     1       6.044  -4.831  -2.912  0.00  0.00    +0.014 C 
ATOM     11  C   UNL     1       5.446  -5.523  -1.685  0.00  0.00    +0.052 C 
ENDROOT
BRANCH   6  12
ATOM     12  C   UNL     1       4.713  -1.889   1.137  0.00  0.00    -0.035 A 
ATOM     13  C   UNL     1       5.067  -2.877   2.037  0.00  0.00    +0.008 A 
ATOM     14  C   UNL     1       5.717  -2.545   3.209  0.00  0.00    +0.046 A 
ATOM     15  C   UNL     1       6.003  -1.217   3.490  0.00  0.00    +0.120 A 
ATOM     16  C   UNL     1       5.641  -0.226   2.589  0.00  0.00    +0.046 A 
ATOM     17  C   UNL     1       4.997  -0.564   1.415  0.00  0.00    +0.008 A 
BRANCH  15  18
ATOM     18  O   UNL     1       6.637  -0.887   4.646  0.00  0.00    -0.495 OA
ATOM     19  C   UNL     1       6.979  -1.959   5.527  0.00  0.00    +0.277 C 
ENDBRANCH  15  18
ENDBRANCH   6  12
BRANCH   3  20
ATOM     20  C   UNL     1       3.443  -6.397   0.090  0.00  0.00    +0.040 A 
ATOM     21  C   UNL     1       4.293  -6.913   1.059  0.00  0.00    +0.026 A 
ATOM     22  C   UNL     1       4.231  -8.254   1.385  0.00  0.00    +0.034 A 
ATOM     23  C   UNL     1       3.333  -9.084   0.740  0.00  0.00    +0.126 A 
ATOM     24  C   UNL     1       2.489  -8.573  -0.229  0.00  0.00    +0.034 A 
ATOM     25  C   UNL     1       2.541  -7.233  -0.556  0.00  0.00    +0.026 A 
BRANCH  23  26
ATOM     26  N   UNL     1       3.274 -10.521   1.088  0.00  0.00    +0.056 N 
ATOM     27  O   UNL     1       2.483 -11.253   0.520  0.00  0.00    -0.126 OA
ATOM     28  O   UNL     1       4.016 -10.972   1.942  0.00  0.00    -0.126 OA
ENDBRANCH  23  26
ENDBRANCH   3  20
BRANCH   2  29
ATOM     29  N   UNL     1       1.243  -4.730   0.443  0.00  0.00    -0.346 N 
ATOM     30  H   UNL     1       1.083  -5.818   0.402  0.00  0.00    +0.143 HD
ATOM     31  H   UNL     1       0.418  -4.064   0.735  0.00  0.00    +0.143 HD
ENDBRANCH   2  29
BRANCH   1  32
ATOM     32  C   UNL     1       1.611  -2.005   0.548  0.00  0.00    +0.193 C 
ATOM     33  O   UNL     1       1.157  -2.054   1.679  0.00  0.00    -0.287 OA
BRANCH  32  38
ATOM     34  C   UNL     1      -0.591   1.685  -3.282  0.00  0.00    +0.044 C 
ATOM     35  C   UNL     1      -0.014   0.719  -2.280  0.00  0.00    -0.050 A 
ATOM     36  C   UNL     1      -0.452   0.746  -0.967  0.00  0.00    +0.004 A 
ATOM     37  C   UNL     1       0.072  -0.136  -0.044  0.00  0.00    +0.012 A 
ATOM     38  C   UNL     1       1.045  -1.056  -0.437  0.00  0.00    +0.022 A 
ATOM     39  C   UNL     1       1.482  -1.077  -1.762  0.00  0.00    +0.012 A 
ATOM     40  C   UNL     1       0.950  -0.190  -2.675  0.00  0.00    +0.004 A 
ENDBRANCH  32  38
ENDBRANCH   1  32
TORSDOF 7
