REMARK  Name = ZINC09993414
REMARK  16 active torsions:
REMARK  status: ('A' for Active; 'I' for Inactive)
REMARK    1  A    between atoms: C_1  and  C_2
REMARK    2  A    between atoms: C_2  and  O_3
REMARK    3  A    between atoms: O_3  and  C_4
REMARK    4  A    between atoms: C_4  and  C_6
REMARK    5  A    between atoms: C_8  and  C_35
REMARK    6  A    between atoms: C_15  and  C_26
REMARK    7  A    between atoms: C_17  and  C_21
REMARK    8  A    between atoms: C_18  and  C_20
REMARK    9  A    between atoms: C_21  and  O_23
REMARK   10  A    between atoms: O_23  and  C_24
REMARK   11  A    between atoms: C_24  and  C_25
REMARK   12  A    between atoms: C_29  and  N_32
REMARK   13  A    between atoms: N_32  and  C_33
REMARK   14  A    between atoms: N_32  and  C_34
REMARK   15  A    between atoms: C_38  and  O_41
REMARK   16  A    between atoms: O_41  and  C_42
REMARK                            x       y       z     vdW  Elec       q    Type
REMARK                         _______ _______ _______ _____ _____    ______ ____
ROOT
ATOM      1  C   UNL     1       1.656  -2.659  -1.418  0.00  0.00    +0.176 C 
ATOM      2  C   UNL     1       1.553  -3.830  -2.402  0.00  0.00    +0.046 C 
ATOM      3  C   UNL     1       2.636  -4.854  -2.052  0.00  0.00    +0.060 C 
ATOM      4  C   UNL     1       3.993  -4.198  -2.118  0.00  0.00    +0.016 C 
ATOM      5  C   UNL     1       4.146  -2.886  -1.841  0.00  0.00    +0.025 C 
ATOM      6  C   UNL     1       3.045  -2.085  -1.482  0.00  0.00    +0.176 C 
ATOM      7  O   UNL     1       3.217  -0.911  -1.219  0.00  0.00    -0.291 OA
ATOM      8  C   UNL     1       5.505  -2.236  -1.912  0.00  0.00    +0.092 C 
ATOM      9  C   UNL     1       6.596  -3.266  -1.887  0.00  0.00    +0.065 C 
ATOM     10  C   UNL     1       6.342  -4.558  -2.161  0.00  0.00    +0.016 C 
ATOM     11  N   UNL     1       5.073  -4.965  -2.464  0.00  0.00    -0.321 N 
ATOM     12  C   UNL     1       7.465  -5.563  -2.136  0.00  0.00    +0.061 C 
ATOM     13  H   UNL     1       4.936  -5.806  -2.928  0.00  0.00    +0.152 HD
ENDROOT
BRANCH   8  14
ATOM     14  C   UNL     1       5.607  -1.440  -3.187  0.00  0.00    -0.035 A 
ATOM     15  C   UNL     1       5.463  -2.072  -4.408  0.00  0.00    +0.006 A 
ATOM     16  C   UNL     1       5.556  -1.345  -5.579  0.00  0.00    +0.023 A 
ATOM     17  C   UNL     1       5.793   0.023  -5.528  0.00  0.00    +0.029 A 
ATOM     18  C   UNL     1       5.938   0.654  -4.300  0.00  0.00    +0.023 A 
ATOM     19  C   UNL     1       5.838  -0.077  -3.133  0.00  0.00    +0.006 A 
BRANCH  17  20
ATOM     20  N   UNL     1       5.888   0.761  -6.710  0.00  0.00    -0.336 N 
ATOM     21  C   UNL     1       5.737   0.093  -8.005  0.00  0.00    +0.129 C 
ATOM     22  C   UNL     1       6.139   2.203  -6.655  0.00  0.00    +0.129 C 
ENDBRANCH  17  20
ENDBRANCH   8  14
BRANCH   2  23
ATOM     23  C   UNL     1       0.193  -4.468  -2.290  0.00  0.00    -0.042 A 
ATOM     24  C   UNL     1      -0.768  -4.217  -3.252  0.00  0.00    +0.007 A 
ATOM     25  C   UNL     1      -2.017  -4.800  -3.151  0.00  0.00    +0.046 A 
ATOM     26  C   UNL     1      -2.306  -5.638  -2.084  0.00  0.00    +0.120 A 
ATOM     27  C   UNL     1      -1.340  -5.889  -1.121  0.00  0.00    +0.046 A 
ATOM     28  C   UNL     1      -0.091  -5.307  -1.228  0.00  0.00    +0.007 A 
BRANCH  26  29
ATOM     29  O   UNL     1      -3.533  -6.213  -1.983  0.00  0.00    -0.495 OA
ATOM     30  C   UNL     1      -3.760  -7.064  -0.858  0.00  0.00    +0.277 C 
ENDBRANCH  26  29
ENDBRANCH   2  23
BRANCH   1  31
ATOM     31  C   UNL     1       1.376  -3.149  -0.021  0.00  0.00    +0.318 C 
ATOM     32  O   UNL     1       2.260  -3.650   0.633  0.00  0.00    -0.250 OA
BRANCH  31  33
ATOM     33  O   UNL     1       0.144  -3.028   0.498  0.00  0.00    -0.464 OA
BRANCH  33  35
ATOM     34  C   UNL     1      -1.506  -3.292   2.245  0.00  0.00    +0.048 C 
ATOM     35  C   UNL     1      -0.050  -3.513   1.828  0.00  0.00    +0.229 C 
ENDBRANCH  33  35
ENDBRANCH  31  33
ENDBRANCH   1  31
BRANCH   9  36
ATOM     36  C   UNL     1       7.916  -2.871  -1.570  0.00  0.00    +0.338 C 
ATOM     37  O   UNL     1       8.796  -3.707  -1.476  0.00  0.00    -0.245 OA
BRANCH  36  38
ATOM     38  O   UNL     1       8.201  -1.567  -1.371  0.00  0.00    -0.462 OA
BRANCH  38  39
ATOM     39  C   UNL     1       9.555  -1.239  -1.054  0.00  0.00    +0.229 C 
ATOM     40  C   UNL     1       9.683   0.274  -0.865  0.00  0.00    +0.048 C 
ENDBRANCH  38  39
ENDBRANCH  36  38
ENDBRANCH   9  36
TORSDOF 10
