REMARK  Name = ZINC20168670
REMARK  11 active torsions:
REMARK  status: ('A' for Active; 'I' for Inactive)
REMARK    1  A    between atoms: C_1  and  C_2
REMARK    2  A    between atoms: C_2  and  O_3
REMARK    3  A    between atoms: O_3  and  C_4
REMARK    4  A    between atoms: C_4  and  C_6
REMARK    5  A    between atoms: C_8  and  C_24
REMARK    6  A    between atoms: C_10  and  N_11
REMARK    7  A    between atoms: N_11  and  C_12
REMARK    8  A    between atoms: C_12  and  N_14
REMARK    9  A    between atoms: N_14  and  N_15
REMARK   10  A    between atoms: C_16  and  C_18
REMARK   11  A    between atoms: C_24  and  C_25
REMARK                            x       y       z     vdW  Elec       q    Type
REMARK                         _______ _______ _______ _____ _____    ______ ____
ROOT
ATOM      1  C   UNL     1      -3.748  -2.475   0.001  0.00  0.00    +0.088 A 
ATOM      2  C   UNL     1      -5.113  -2.946   0.011  0.00  0.00    +0.028 A 
ATOM      3  C   UNL     1      -6.084  -2.016   0.020  0.00  0.00    -0.003 A 
ATOM      4  S   UNL     1      -5.182  -0.481   0.023  0.00  0.00    -0.077 S 
ATOM      5  C   UNL     1      -3.563  -1.096   0.013  0.00  0.00    +0.085 A 
ENDROOT
BRANCH   1   6
ATOM      6  C   UNL     1      -2.615  -3.402  -0.017  0.00  0.00    +0.342 C 
ATOM      7  O   UNL     1      -1.478  -2.972  -0.021  0.00  0.00    -0.245 OA
BRANCH   6   8
ATOM      8  O   UNL     1      -2.833  -4.733  -0.028  0.00  0.00    -0.461 OA
BRANCH   8  10
ATOM      9  C   UNL     1      -2.106  -7.057  -0.057  0.00  0.00    +0.048 C 
ATOM     10  C   UNL     1      -1.663  -5.593  -0.046  0.00  0.00    +0.229 C 
ENDBRANCH   8  10
ENDBRANCH   6   8
ENDBRANCH   1   6
BRANCH   5  11
ATOM     11  N   UNL     1      -2.373  -0.388   0.011  0.00  0.00    -0.290 N 
ATOM     12  H   UNL     1      -1.413  -0.924   0.004  0.00  0.00    +0.154 HD
BRANCH  11  13
ATOM     13  C   UNL     1      -2.392   0.960   0.019  0.00  0.00    +0.151 C 
ATOM     14  S   UNL     1      -3.886   1.796   0.030  0.00  0.00    -0.017 S 
BRANCH  13  15
ATOM     15  N   UNL     1      -1.234   1.650   0.017  0.00  0.00    -0.245 N 
ATOM     16  H   UNL     1      -1.249   2.750   0.023  0.00  0.00    +0.172 HD
BRANCH  15  17
ATOM     17  N   UNL     1      -0.011   0.966   0.007  0.00  0.00    -0.229 N 
ATOM     18  C   UNL     1       1.147   1.655   0.000  0.00  0.00    +0.295 C 
ATOM     19  O   UNL     1       1.130   2.873   0.007  0.00  0.00    -0.265 OA
ATOM     20  H   UNL     1       0.004  -0.134   0.006  0.00  0.00    +0.173 HD
BRANCH  18  21
ATOM     21  C   UNL     1       2.426   0.940  -0.016  0.00  0.00    +0.192 A 
ATOM     22  C   UNL     1       3.666   1.513  -0.030  0.00  0.00    +0.056 A 
ATOM     23  C   UNL     1       4.596   0.463  -0.040  0.00  0.00    +0.058 A 
ATOM     24  C   UNL     1       3.892  -0.693  -0.040  0.00  0.00    +0.171 A 
ATOM     25  O   UNL     1       2.585  -0.400  -0.025  0.00  0.00    -0.444 OA
ATOM     26 BR   UNL     1       4.631  -2.433  -0.056  0.00  0.00    -0.008 Br
ENDBRANCH  18  21
ENDBRANCH  15  17
ENDBRANCH  13  15
ENDBRANCH  11  13
ENDBRANCH   5  11
BRANCH   3  27
ATOM     27  C   UNL     1      -7.577  -2.223   0.026  0.00  0.00    +0.077 C 
BRANCH  27  28
ATOM     28  C   UNL     1      -8.068  -2.299   1.449  0.00  0.00    -0.043 A 
ATOM     29  C   UNL     1      -8.134  -3.520   2.093  0.00  0.00    +0.004 A 
ATOM     30  C   UNL     1      -8.579  -3.589   3.400  0.00  0.00    +0.000 A 
ATOM     31  C   UNL     1      -8.969  -2.438   4.059  0.00  0.00    +0.000 A 
ATOM     32  C   UNL     1      -8.908  -1.218   3.413  0.00  0.00    +0.000 A 
ATOM     33  C   UNL     1      -8.457  -1.148   2.108  0.00  0.00    +0.004 A 
ENDBRANCH  27  28
ENDBRANCH   3  27
TORSDOF 10
