REMARK  Name = ZINC13264453
REMARK  10 active torsions:
REMARK  status: ('A' for Active; 'I' for Inactive)
REMARK    1  A    between atoms: C_1  and  C_2
REMARK    2  A    between atoms: C_2  and  C_3
REMARK    3  A    between atoms: C_4  and  C_32
REMARK    4  A    between atoms: C_6  and  C_8
REMARK    5  A    between atoms: N_10  and  N_11
REMARK    6  A    between atoms: C_12  and  C_13
REMARK    7  A    between atoms: C_12  and  C_14
REMARK    8  A    between atoms: C_17  and  S_20
REMARK    9  A    between atoms: S_20  and  N_23
REMARK   10  A    between atoms: C_28  and  C_30
REMARK                            x       y       z     vdW  Elec       q    Type
REMARK                         _______ _______ _______ _____ _____    ______ ____
ROOT
ATOM      1  C   UNL     1      -3.582   3.652  -3.231  0.00  0.00    -0.002 A 
ATOM      2  C   UNL     1      -2.527   4.417  -2.728  0.00  0.00    +0.011 A 
ATOM      3  C   UNL     1      -1.627   3.852  -1.849  0.00  0.00    +0.029 A 
ATOM      4  C   UNL     1      -1.767   2.530  -1.464  0.00  0.00    +0.106 A 
ATOM      5  C   UNL     1      -2.807   1.765  -1.963  0.00  0.00    +0.029 A 
ATOM      6  C   UNL     1      -3.717   2.318  -2.838  0.00  0.00    +0.011 A 
ENDROOT
BRANCH   1   8
ATOM      7  N   UNL     1      -4.419   5.489  -4.535  0.00  0.00    -0.184 NA
ATOM      8  C   UNL     1      -4.548   4.249  -4.172  0.00  0.00    +0.063 C 
ATOM      9  C   UNL     1      -5.685   3.420  -4.711  0.00  0.00    +0.068 C 
BRANCH   7  12
ATOM     10  C   UNL     1      -5.203   7.343  -5.805  0.00  0.00    +0.270 C 
ATOM     11  O   UNL     1      -4.285   8.013  -5.369  0.00  0.00    -0.268 OA
ATOM     12  N   UNL     1      -5.337   6.056  -5.428  0.00  0.00    -0.202 N 
ATOM     13  H   UNL     1      -6.069   5.522  -5.776  0.00  0.00    +0.178 HD
BRANCH  10  17
ATOM     14  C   UNL     1      -8.128   8.557  -8.433  0.00  0.00    -0.007 A 
ATOM     15  C   UNL     1      -7.225   9.521  -8.118  0.00  0.00    -0.040 A 
ATOM     16  C   UNL     1      -6.205   9.226  -7.248  0.00  0.00    +0.024 A 
ATOM     17  C   UNL     1      -6.163   7.936  -6.740  0.00  0.00    +0.076 A 
ATOM     18  S   UNL     1      -7.578   7.186  -7.526  0.00  0.00    -0.088 S 
ATOM     19  C   UNL     1      -7.342  10.900  -8.715  0.00  0.00    +0.044 C 
BRANCH  14  21
ATOM     20  C   UNL     1      -8.893   8.275 -10.775  0.00  0.00    +0.009 C 
ATOM     21  C   UNL     1      -9.317   8.653  -9.355  0.00  0.00    +0.039 C 
ENDBRANCH  14  21
ENDBRANCH  10  17
ENDBRANCH   7  12
ENDBRANCH   1   8
BRANCH   4  22
ATOM     22  S   UNL     1      -0.613   1.817  -0.341  0.00  0.00    +0.062 S 
ATOM     23  O   UNL     1      -0.645   0.413  -0.561  0.00  0.00    -0.153 OA
ATOM     24  O   UNL     1       0.582   2.578  -0.449  0.00  0.00    -0.153 OA
BRANCH  22  25
ATOM     25  N   UNL     1      -1.198   2.069   1.188  0.00  0.00    -0.163 NA
ATOM     26  C   UNL     1      -0.998   3.358   1.863  0.00  0.00    +0.110 C 
ATOM     27  C   UNL     1      -2.358   3.888   2.329  0.00  0.00    +0.017 C 
ATOM     28  C   UNL     1      -3.045   2.827   3.192  0.00  0.00    +0.003 C 
ATOM     29  C   UNL     1      -3.278   1.563   2.360  0.00  0.00    +0.032 C 
ATOM     30  C   UNL     1      -1.933   1.010   1.892  0.00  0.00    +0.192 C 
BRANCH  30  31
ATOM     31  C   UNL     1      -2.164  -0.151   0.960  0.00  0.00    +0.374 C 
ATOM     32  O   UNL     1      -2.906  -0.028   0.014  0.00  0.00    -0.245 OA
ATOM     33  O   UNL     1      -1.545  -1.322   1.179  0.00  0.00    -0.245 OA
ENDBRANCH  30  31
ENDBRANCH  22  25
ENDBRANCH   4  22
TORSDOF 7
