REMARK  Name = ZINC01555890
REMARK  3 active torsions:
REMARK  status: ('A' for Active; 'I' for Inactive)
REMARK    1  A    between atoms: C_1  and  C_2
REMARK    2  A    between atoms: C_2  and  C_21
REMARK    3  A    between atoms: C_3  and  C_14
REMARK                            x       y       z     vdW  Elec       q    Type
REMARK                         _______ _______ _______ _____ _____    ______ ____
ROOT
ATOM      1  C   UNL     1      -0.019   1.526   0.010  0.00  0.00    +0.056 C 
ATOM      2  C   UNL     1       0.002  -0.004   0.002  0.00  0.00    +0.118 C 
ATOM      3  C   UNL     1       0.665  -0.536  -1.291  0.00  0.00    +0.101 C 
ATOM      4  C   UNL     1      -0.171  -1.767  -1.582  0.00  0.00    +0.065 A 
ATOM      5  C   UNL     1       0.014  -2.867  -2.405  0.00  0.00    +0.129 A 
ATOM      6  N   UNL     1      -0.920  -3.818  -2.426  0.00  0.00    -0.200 NA
ATOM      7  C   UNL     1      -2.002  -3.710  -1.670  0.00  0.00    +0.217 A 
ATOM      8  N   UNL     1      -2.207  -2.671  -0.877  0.00  0.00    -0.179 NA
ATOM      9  C   UNL     1      -1.320  -1.676  -0.806  0.00  0.00    +0.225 A 
ATOM     10  O   UNL     1      -1.334  -0.531  -0.080  0.00  0.00    -0.469 OA
ATOM     11  N   UNL     1      -2.950  -4.718  -1.711  0.00  0.00    -0.327 N 
ATOM     12  N   UNL     1       1.149  -2.975  -3.193  0.00  0.00    -0.343 N 
ATOM     13  C   UNL     1       0.722  -0.541   1.241  0.00  0.00    +0.056 C 
ATOM     14  H   UNL     1      -2.816  -5.487  -2.287  0.00  0.00    +0.145 HD
ATOM     15  H   UNL     1      -3.749  -4.655  -1.164  0.00  0.00    +0.145 HD
ATOM     16  H   UNL     1       1.823  -2.277  -3.172  0.00  0.00    +0.144 HD
ATOM     17  H   UNL     1       1.269  -3.748  -3.767  0.00  0.00    +0.144 HD
ENDROOT
BRANCH   3  18
ATOM     18  C   UNL     1       0.550   0.468  -2.409  0.00  0.00    -0.036 A 
ATOM     19  C   UNL     1      -0.696   0.875  -2.847  0.00  0.00    +0.006 A 
ATOM     20  C   UNL     1      -0.802   1.800  -3.868  0.00  0.00    +0.020 A 
ATOM     21  C   UNL     1       0.340   2.312  -4.459  0.00  0.00    +0.041 A 
ATOM     22  C   UNL     1       1.587   1.901  -4.023  0.00  0.00    +0.020 A 
ATOM     23  C   UNL     1       1.692   0.979  -2.998  0.00  0.00    +0.006 A 
ATOM     24 CL   UNL     1       0.208   3.470  -5.745  0.00  0.00    -0.084 Cl
ENDBRANCH   3  18
TORSDOF 1
