REMARK  Name = ZINC08858767
REMARK  13 active torsions:
REMARK  status: ('A' for Active; 'I' for Inactive)
REMARK    1  A    between atoms: C_1  and  C_2
REMARK    2  A    between atoms: N_4  and  C_5
REMARK    3  A    between atoms: C_9  and  N_11
REMARK    4  A    between atoms: N_11  and  C_12
REMARK    5  A    between atoms: C_12  and  N_14
REMARK    6  A    between atoms: N_14  and  C_15
REMARK    7  A    between atoms: C_15  and  C_17
REMARK    8  A    between atoms: C_15  and  N_21
REMARK    9  A    between atoms: C_22  and  C_24
REMARK   10  A    between atoms: C_27  and  O_32
REMARK   11  A    between atoms: C_28  and  O_30
REMARK   12  A    between atoms: O_30  and  C_31
REMARK   13  A    between atoms: O_32  and  C_33
REMARK                            x       y       z     vdW  Elec       q    Type
REMARK                         _______ _______ _______ _____ _____    ______ ____
ROOT
ATOM      1  C   UNL     1      -0.281   1.380   1.029  0.00  0.00    +0.211 C 
ENDROOT
BRANCH   1   2
ATOM      2  C   UNL     1       0.744   0.872   0.013  0.00  0.00    +0.225 C 
ATOM      3 CL   UNL     1       1.198  -0.826   0.415  0.00  0.00    -0.080 Cl
ATOM      4 CL   UNL     1       2.213   1.916   0.068  0.00  0.00    -0.080 Cl
ATOM      5 CL   UNL     1       0.029   0.927  -1.641  0.00  0.00    -0.080 Cl
ENDBRANCH   1   2
BRANCH   1   6
ATOM      6  N   UNL     1      -0.650   2.759   0.703  0.00  0.00    -0.290 N 
ATOM      7  C   UNL     1      -1.945   3.132   0.720  0.00  0.00    +0.246 C 
ATOM      8  O   UNL     1      -2.807   2.324   1.007  0.00  0.00    -0.270 OA
ATOM      9  H   UNL     1       0.037   3.404   0.474  0.00  0.00    +0.151 HD
BRANCH   7  10
ATOM     10  C   UNL     1      -2.317   4.522   0.391  0.00  0.00    +0.040 A 
ATOM     11  C   UNL     1      -1.327   5.454   0.068  0.00  0.00    +0.017 A 
ATOM     12  C   UNL     1      -1.677   6.750  -0.244  0.00  0.00    +0.050 A 
ATOM     13  C   UNL     1      -3.010   7.136  -0.227  0.00  0.00    +0.162 A 
ATOM     14  C   UNL     1      -4.002   6.213   0.100  0.00  0.00    +0.162 A 
ATOM     15  C   UNL     1      -3.659   4.911   0.409  0.00  0.00    +0.062 A 
BRANCH  14  16
ATOM     16  O   UNL     1      -5.308   6.594   0.116  0.00  0.00    -0.491 OA
ATOM     17  C   UNL     1      -6.271   5.596   0.460  0.00  0.00    +0.277 C 
ENDBRANCH  14  16
BRANCH  13  18
ATOM     18  O   UNL     1      -3.349   8.416  -0.529  0.00  0.00    -0.491 OA
ATOM     19  C   UNL     1      -2.282   9.309  -0.855  0.00  0.00    +0.277 C 
ENDBRANCH  13  18
ENDBRANCH   7  10
ENDBRANCH   1   6
BRANCH   1  20
ATOM     20  N   UNL     1       0.300   1.335   2.373  0.00  0.00    -0.305 N 
ATOM     21  H   UNL     1       1.203   1.657   2.523  0.00  0.00    +0.150 HD
BRANCH  20  22
ATOM     22  C   UNL     1      -0.419   0.845   3.403  0.00  0.00    +0.136 C 
ATOM     23  S   UNL     1      -2.012   0.275   3.139  0.00  0.00    -0.019 S 
BRANCH  22  24
ATOM     24  N   UNL     1       0.116   0.803   4.639  0.00  0.00    -0.297 N 
ATOM     25  H   UNL     1       1.036   1.075   4.779  0.00  0.00    +0.154 HD
BRANCH  24  30
ATOM     26  C   UNL     1      -1.386   0.624   7.995  0.00  0.00    +0.035 A 
ATOM     27  C   UNL     1      -2.191  -0.500   7.860  0.00  0.00    +0.023 A 
ATOM     28  C   UNL     1      -2.227  -1.185   6.660  0.00  0.00    +0.004 A 
ATOM     29  C   UNL     1      -1.464  -0.755   5.592  0.00  0.00    +0.023 A 
ATOM     30  C   UNL     1      -0.657   0.368   5.721  0.00  0.00    +0.034 A 
ATOM     31  C   UNL     1      -0.614   1.055   6.926  0.00  0.00    +0.046 A 
BRANCH  26  35
ATOM     32  C   UNL     1      -1.255   3.412  10.522  0.00  0.00    +0.109 C 
ATOM     33  C   UNL     1      -1.228   2.659   9.217  0.00  0.00    +0.214 C 
ATOM     34  O   UNL     1      -1.095   3.262   8.172  0.00  0.00    -0.276 OA
ATOM     35  N   UNL     1      -1.350   1.317   9.210  0.00  0.00    -0.286 N 
ATOM     36  H   UNL     1      -1.412   0.832  10.047  0.00  0.00    +0.155 HD
ENDBRANCH  26  35
ENDBRANCH  24  30
ENDBRANCH  22  24
ENDBRANCH  20  22
ENDBRANCH   1  20
TORSDOF 10
