REMARK  Name = ZINC09300964
REMARK  4 active torsions:
REMARK  status: ('A' for Active; 'I' for Inactive)
REMARK    1  A    between atoms: C_6  and  C_7
REMARK    2  A    between atoms: C_17  and  C_19
REMARK    3  A    between atoms: N_21  and  C_22
REMARK    4  A    between atoms: C_22  and  C_23
REMARK                            x       y       z     vdW  Elec       q    Type
REMARK                         _______ _______ _______ _____ _____    ______ ____
ROOT
ATOM      1  C   UNL     1      -1.020   6.101   0.035  0.00  0.00    +0.250 C 
ATOM      2  O   UNL     1       0.184   6.271   0.024  0.00  0.00    -0.270 OA
ATOM      3  N   UNL     1      -1.524   4.850   0.037  0.00  0.00    -0.261 N 
ATOM      4  C   UNL     1      -0.668   3.757   0.025  0.00  0.00    +0.165 A 
ATOM      5  N   UNL     1      -0.963   2.477   0.020  0.00  0.00    -0.229 NA
ATOM      6  C   UNL     1      -0.019   1.525   0.010  0.00  0.00    +0.066 A 
ATOM      7  C   UNL     1       1.263   1.962   0.001  0.00  0.00    +0.015 A 
ATOM      8  S   UNL     1       1.068   3.729   0.007  0.00  0.00    -0.057 S 
ATOM      9  C   UNL     1       2.248   0.833  -0.011  0.00  0.00    +0.045 C 
ATOM     10  C   UNL     1       1.429  -0.403   0.428  0.00  0.00    +0.024 C 
ATOM     11  C   UNL     1       0.002  -0.004   0.002  0.00  0.00    +0.125 C 
ATOM     12  H   UNL     1      -2.484   4.714   0.046  0.00  0.00    +0.157 HD
ENDROOT
BRANCH   1  18
ATOM     13  C   UNL     1      -3.313   7.069   0.061  0.00  0.00    +0.017 A 
ATOM     14  C   UNL     1      -4.161   8.155   0.073  0.00  0.00    +0.050 A 
ATOM     15  C   UNL     1      -3.645   9.444   0.071  0.00  0.00    +0.166 A 
ATOM     16  C   UNL     1      -2.264   9.644   0.058  0.00  0.00    +0.167 A 
ATOM     17  C   UNL     1      -1.409   8.560   0.052  0.00  0.00    +0.062 A 
ATOM     18  C   UNL     1      -1.930   7.262   0.048  0.00  0.00    +0.041 A 
ATOM     19  O   UNL     1      -2.019  10.987   0.060  0.00  0.00    -0.453 OA
ATOM     20  C   UNL     1      -3.258  11.604  -0.339  0.00  0.00    +0.466 C 
ATOM     21  O   UNL     1      -4.261  10.660   0.082  0.00  0.00    -0.453 OA
ENDBRANCH   1  18
BRANCH  11  22
ATOM     22  C   UNL     1      -0.294  -0.521  -1.382  0.00  0.00    +0.222 C 
ATOM     23  O   UNL     1       0.532  -1.187  -1.970  0.00  0.00    -0.275 OA
ATOM     24  N   UNL     1      -1.476  -0.243  -1.967  0.00  0.00    -0.315 N 
ATOM     25  H   UNL     1      -2.136   0.289  -1.497  0.00  0.00    +0.149 HD
BRANCH  24  26
ATOM     26  C   UNL     1      -1.764  -0.746  -3.312  0.00  0.00    +0.107 C 
BRANCH  26  27
ATOM     27  C   UNL     1      -3.161  -0.292  -3.738  0.00  0.00    +0.006 C 
ATOM     28  C   UNL     1      -4.208  -0.943  -2.831  0.00  0.00    +0.005 C 
ATOM     29  C   UNL     1      -5.605  -0.488  -3.257  0.00  0.00    +0.000 C 
ATOM     30  C   UNL     1      -5.857  -0.906  -4.707  0.00  0.00    +0.000 C 
ATOM     31  C   UNL     1      -4.811  -0.256  -5.615  0.00  0.00    +0.000 C 
ATOM     32  C   UNL     1      -3.413  -0.710  -5.189  0.00  0.00    +0.005 C 
ENDBRANCH  26  27
ENDBRANCH  24  26
ENDBRANCH  11  22
TORSDOF 4
