REMARK  Name = ZINC62569564
REMARK  9 active torsions:
REMARK  status: ('A' for Active; 'I' for Inactive)
REMARK    1  A    between atoms: C_1  and  O_2
REMARK    2  A    between atoms: O_2  and  C_3
REMARK    3  A    between atoms: C_5  and  N_12
REMARK    4  A    between atoms: C_8  and  O_9
REMARK    5  A    between atoms: O_9  and  C_10
REMARK    6  A    between atoms: C_13  and  C_15
REMARK    7  A    between atoms: C_15  and  C_16
REMARK    8  A    between atoms: C_16  and  N_17
REMARK    9  A    between atoms: N_20  and  C_21
REMARK                            x       y       z     vdW  Elec       q    Type
REMARK                         _______ _______ _______ _____ _____    ______ ____
ROOT
ATOM      1  C   UNL     1      -5.681   3.822   0.366  0.00  0.00    +0.115 C 
ENDROOT
BRANCH   1   2
ATOM      2  N   UNL     1      -6.921   4.593   0.487  0.00  0.00    -0.299 N 
ATOM      3  C   UNL     1      -6.872   5.936   0.591  0.00  0.00    +0.300 C 
ATOM      4  O   UNL     1      -5.799   6.508   0.584  0.00  0.00    -0.253 OA
ATOM      5  N   UNL     1      -8.013   6.645   0.702  0.00  0.00    -0.294 N 
ATOM      6  H   UNL     1      -7.777   4.136   0.493  0.00  0.00    +0.150 HD
ATOM      7  H   UNL     1      -8.869   6.189   0.707  0.00  0.00    +0.151 HD
BRANCH   5   8
ATOM      8  C   UNL     1      -7.960   8.104   0.814  0.00  0.00    +0.037 C 
ATOM      9  C   UNL     1      -7.161   8.492   2.060  0.00  0.00    +0.029 C 
ATOM     10  C   UNL     1      -7.106  10.016   2.178  0.00  0.00    -0.008 C 
ATOM     11  C   UNL     1      -8.528  10.571   2.290  0.00  0.00    +0.007 C 
ATOM     12  C   UNL     1      -9.326  10.184   1.044  0.00  0.00    -0.008 C 
ATOM     13  C   UNL     1      -9.382   8.659   0.927  0.00  0.00    +0.029 C 
ATOM     14  C   UNL     1      -8.649  10.766  -0.198  0.00  0.00    +0.007 C 
ATOM     15  C   UNL     1      -7.227  10.212  -0.310  0.00  0.00    -0.008 C 
ATOM     16  C   UNL     1      -6.428  10.599   0.936  0.00  0.00    +0.007 C 
ATOM     17  C   UNL     1      -7.282   8.687  -0.427  0.00  0.00    +0.029 C 
ENDBRANCH   5   8
ENDBRANCH   1   2
BRANCH   1  18
ATOM     18  C   UNL     1      -6.014   2.332   0.265  0.00  0.00    +0.115 C 
BRANCH  18  20
ATOM     19  N   UNL     1      -4.787   0.197   0.038  0.00  0.00    -0.284 N 
ATOM     20  C   UNL     1      -4.738   1.539   0.141  0.00  0.00    +0.219 C 
ATOM     21  O   UNL     1      -3.668   2.110   0.134  0.00  0.00    -0.275 OA
ATOM     22  H   UNL     1      -5.643  -0.254  -0.037  0.00  0.00    +0.155 HD
BRANCH  19  25
ATOM     23  C   UNL     1      -1.288  -0.776   0.640  0.00  0.00    +0.163 A 
ATOM     24  C   UNL     1      -2.459  -0.037   0.639  0.00  0.00    +0.073 A 
ATOM     25  C   UNL     1      -3.601  -0.550   0.039  0.00  0.00    +0.051 A 
ATOM     26  C   UNL     1      -3.568  -1.802  -0.561  0.00  0.00    +0.043 A 
ATOM     27  C   UNL     1      -2.398  -2.540  -0.560  0.00  0.00    +0.066 A 
ATOM     28  C   UNL     1      -1.256  -2.028   0.034  0.00  0.00    +0.163 A 
ATOM     29 BR   UNL     1      -5.124  -2.500  -1.378  0.00  0.00    -0.048 Br
BRANCH  23  31
ATOM     30  C   UNL     1      -0.273   1.015   1.831  0.00  0.00    +0.277 C 
ATOM     31  O   UNL     1      -0.168  -0.276   1.228  0.00  0.00    -0.491 OA
ENDBRANCH  23  31
BRANCH  28  32
ATOM     32  O   UNL     1      -0.104  -2.752   0.029  0.00  0.00    -0.491 OA
ATOM     33  C   UNL     1      -0.143  -4.029  -0.612  0.00  0.00    +0.277 C 
ENDBRANCH  28  32
ENDBRANCH  19  25
ENDBRANCH  18  20
ENDBRANCH   1  18
TORSDOF 7
