REMARK  Name = ZINC08444961
REMARK  7 active torsions:
REMARK  status: ('A' for Active; 'I' for Inactive)
REMARK    1  A    between atoms: C_1  and  C_2
REMARK    2  A    between atoms: C_4  and  N_17
REMARK    3  A    between atoms: C_6  and  C_8
REMARK    4  A    between atoms: C_13  and  O_14
REMARK    5  A    between atoms: N_17  and  N_18
REMARK    6  A    between atoms: C_19  and  C_20
REMARK    7  A    between atoms: C_25  and  O_26
REMARK                            x       y       z     vdW  Elec       q    Type
REMARK                         _______ _______ _______ _____ _____    ______ ____
ROOT
ATOM      1  C   UNL     1      -8.521  -0.900   0.076  0.00  0.00    +0.066 C 
ATOM      2  C   UNL     1      -7.198  -0.177   0.068  0.00  0.00    +0.044 A 
ATOM      3  C   UNL     1      -6.013  -0.890   0.052  0.00  0.00    +0.068 A 
ATOM      4  C   UNL     1      -4.809  -0.181   0.045  0.00  0.00    +0.142 A 
ATOM      5  N   UNL     1      -4.843   1.148   0.058  0.00  0.00    -0.211 NA
ATOM      6  C   UNL     1      -6.001   1.794   0.068  0.00  0.00    +0.166 A 
ATOM      7  N   UNL     1      -7.158   1.146   0.075  0.00  0.00    -0.232 NA
ENDROOT
BRANCH   6   8
ATOM      8  C   UNL     1      -6.002   3.275   0.077  0.00  0.00    +0.063 A 
ATOM      9  C   UNL     1      -7.207   3.975   0.092  0.00  0.00    +0.030 A 
ATOM     10  C   UNL     1      -7.203   5.355   0.101  0.00  0.00    +0.020 A 
ATOM     11  C   UNL     1      -6.004   6.049   0.093  0.00  0.00    +0.034 A 
ATOM     12  C   UNL     1      -4.803   5.365   0.077  0.00  0.00    +0.061 A 
ATOM     13  C   UNL     1      -4.793   3.978   0.075  0.00  0.00    +0.141 A 
ATOM     14 BR   UNL     1      -3.172   6.322   0.065  0.00  0.00    -0.046 Br
ATOM     15 BR   UNL     1      -8.840   6.302   0.122  0.00  0.00    -0.050 Br
BRANCH  13  16
ATOM     16  O   UNL     1      -3.613   3.306   0.065  0.00  0.00    -0.505 OA
ATOM     17  H   UNL     1      -3.276   3.116  -0.821  0.00  0.00    +0.292 HD
ENDBRANCH  13  16
ENDBRANCH   6   8
BRANCH   4  18
ATOM     18  N   UNL     1      -3.598  -0.853   0.030  0.00  0.00    -0.221 N 
ATOM     19  H   UNL     1      -3.582  -1.823   0.025  0.00  0.00    +0.176 HD
BRANCH  18  20
ATOM     20  N   UNL     1      -2.397  -0.132   0.023  0.00  0.00    -0.189 NA
ATOM     21  C   UNL     1      -1.262  -0.762   0.009  0.00  0.00    +0.141 C 
BRANCH  21  22
ATOM     22  C   UNL     1       0.002  -0.004   0.002  0.00  0.00    +0.036 A 
ATOM     23  C   UNL     1       1.225  -0.678  -0.013  0.00  0.00    +0.013 A 
ATOM     24  C   UNL     1       2.404   0.038  -0.021  0.00  0.00    +0.001 A 
ATOM     25  C   UNL     1       2.381   1.422  -0.013  0.00  0.00    +0.004 A 
ATOM     26  C   UNL     1       1.176   2.100   0.002  0.00  0.00    +0.046 A 
ATOM     27  C   UNL     1      -0.017   1.397   0.010  0.00  0.00    +0.125 A 
BRANCH  27  28
ATOM     28  O   UNL     1      -1.201   2.063   0.019  0.00  0.00    -0.506 OA
ATOM     29  H   UNL     1      -1.539   2.251   0.905  0.00  0.00    +0.292 HD
ENDBRANCH  27  28
ENDBRANCH  21  22
ENDBRANCH  18  20
ENDBRANCH   4  18
TORSDOF 6
