REMARK  Name = ZINC20153335
REMARK  7 active torsions:
REMARK  status: ('A' for Active; 'I' for Inactive)
REMARK    1  A    between atoms: C_3  and  N_27
REMARK    2  A    between atoms: C_4  and  C_10
REMARK    3  A    between atoms: C_6  and  N_7
REMARK    4  A    between atoms: N_12  and  C_13
REMARK    5  A    between atoms: C_13  and  N_15
REMARK    6  A    between atoms: N_15  and  C_16
REMARK    7  A    between atoms: C_18  and  C_24
REMARK                            x       y       z     vdW  Elec       q    Type
REMARK                         _______ _______ _______ _____ _____    ______ ____
ROOT
ATOM      1  C   UNL     1       3.605  -0.758  -0.520  0.00  0.00    +0.251 C 
ATOM      2  O   UNL     1       4.624  -0.143  -0.767  0.00  0.00    -0.270 OA
ATOM      3  N   UNL     1       3.659  -2.083  -0.278  0.00  0.00    -0.264 N 
ATOM      4  H   UNL     1       2.846  -2.574  -0.081  0.00  0.00    +0.157 HD
ENDROOT
BRANCH   1   8
ATOM      5  C   UNL     1      -0.129   1.267  -0.419  0.00  0.00    +0.034 A 
ATOM      6  C   UNL     1       1.021   1.976  -0.700  0.00  0.00    +0.026 A 
ATOM      7  C   UNL     1       2.248   1.325  -0.736  0.00  0.00    +0.042 A 
ATOM      8  C   UNL     1       2.310  -0.055  -0.484  0.00  0.00    +0.060 A 
ATOM      9  C   UNL     1       1.136  -0.758  -0.201  0.00  0.00    +0.047 A 
ATOM     10  C   UNL     1      -0.071  -0.095  -0.171  0.00  0.00    +0.127 A 
BRANCH   7  11
ATOM     11  N   UNL     1       3.407   2.036  -1.019  0.00  0.00    -0.329 N 
ATOM     12  C   UNL     1       3.968   2.260  -2.359  0.00  0.00    +0.105 C 
ATOM     13  C   UNL     1       5.267   3.075  -2.181  0.00  0.00    +0.020 C 
ATOM     14  C   UNL     1       5.664   2.778  -0.710  0.00  0.00    +0.020 C 
ATOM     15  C   UNL     1       4.275   2.695  -0.026  0.00  0.00    +0.105 C 
ENDBRANCH   7  11
BRANCH  10  16
ATOM     16  N   UNL     1      -1.314  -0.842   0.129  0.00  0.00    +0.056 N 
ATOM     17  O   UNL     1      -2.375  -0.264   0.157  0.00  0.00    -0.126 OA
ATOM     18  O   UNL     1      -1.267  -2.031   0.346  0.00  0.00    -0.126 OA
ENDBRANCH  10  16
ENDBRANCH   1   8
BRANCH   3  19
ATOM     19  C   UNL     1       4.843  -2.726  -0.310  0.00  0.00    +0.141 C 
ATOM     20  S   UNL     1       6.278  -1.859  -0.659  0.00  0.00    -0.018 S 
BRANCH  19  21
ATOM     21  N   UNL     1       4.898  -4.050  -0.069  0.00  0.00    -0.295 N 
ATOM     22  H   UNL     1       4.095  -4.530   0.190  0.00  0.00    +0.154 HD
BRANCH  21  23
ATOM     23  C   UNL     1       6.113  -4.735  -0.191  0.00  0.00    +0.052 A 
ATOM     24  C   UNL     1       7.259  -4.219   0.390  0.00  0.00    +0.041 A 
ATOM     25  C   UNL     1       8.470  -4.905   0.267  0.00  0.00    +0.083 A 
ATOM     26  C   UNL     1       8.515  -6.110  -0.444  0.00  0.00    +0.057 A 
ATOM     27  C   UNL     1       7.367  -6.615  -1.019  0.00  0.00    +0.042 A 
ATOM     28  C   UNL     1       6.168  -5.936  -0.891  0.00  0.00    +0.064 A 
ATOM     29 CL   UNL     1       4.727  -6.583  -1.612  0.00  0.00    -0.082 Cl
ATOM     30 CL   UNL     1      10.016  -6.968  -0.603  0.00  0.00    -0.083 Cl
BRANCH  25  31
ATOM     31  C   UNL     1       9.694  -4.363   0.882  0.00  0.00    +0.388 C 
ATOM     32  O   UNL     1       9.652  -3.309   1.502  0.00  0.00    -0.241 OA
ATOM     33  O   UNL     1      10.753  -4.966   0.772  0.00  0.00    -0.241 OA
ENDBRANCH  25  31
ENDBRANCH  21  23
ENDBRANCH  19  21
ENDBRANCH   3  19
TORSDOF 7
