REMARK  Name = ZINC12428860
REMARK  6 active torsions:
REMARK  status: ('A' for Active; 'I' for Inactive)
REMARK    1  A    between atoms: C_3  and  C_25
REMARK    2  A    between atoms: C_5  and  S_7
REMARK    3  A    between atoms: S_7  and  N_10
REMARK    4  A    between atoms: C_15  and  N_69
REMARK    5  A    between atoms: N_27  and  C_28
REMARK    6  A    between atoms: C_32  and  N_34
REMARK                            x       y       z     vdW  Elec       q    Type
REMARK                         _______ _______ _______ _____ _____    ______ ____
ROOT
ATOM      1  S   UNL     1       3.727  10.401   0.573  0.00  0.00    +0.061 S 
ATOM      2  O   UNL     1       4.738   9.592  -0.013  0.00  0.00    -0.153 OA
ATOM      3  O   UNL     1       3.447  11.718   0.117  0.00  0.00    -0.153 OA
ENDROOT
BRANCH   1   4
ATOM      4  N   UNL     1       4.093  10.525   2.183  0.00  0.00    -0.180 NA
ATOM      5  C   UNL     1       3.610  11.662   2.981  0.00  0.00    +0.091 C 
ATOM      6  C   UNL     1       2.923  11.110   4.240  0.00  0.00    -0.061 C 
ATOM      7  C   UNL     1       4.180   9.040   4.114  0.00  0.00    -0.061 C 
ATOM      8  C   UNL     1       4.914   9.504   2.851  0.00  0.00    +0.091 C 
ATOM      9  N   UNL     1       3.873  10.223   4.947  0.00  0.00    +0.385 N 
ATOM     10  H   UNL     1       4.742  10.740   5.124  0.00  0.00    -0.081 HD
BRANCH   9  11
ATOM     11  C   UNL     1       3.297   9.794   6.239  0.00  0.00    -0.065 C 
ATOM     12  C   UNL     1       2.026   8.973   6.016  0.00  0.00    -0.009 C 
ATOM     13  C   UNL     1       1.454   8.542   7.368  0.00  0.00    -0.012 C 
ATOM     14  C   UNL     1       1.120   9.783   8.198  0.00  0.00    +0.007 C 
ATOM     15  C   UNL     1       2.391  10.605   8.421  0.00  0.00    -0.012 C 
ATOM     16  C   UNL     1       2.964  11.035   7.069  0.00  0.00    -0.009 C 
ATOM     17  C   UNL     1       3.424   9.756   9.165  0.00  0.00    +0.007 C 
ATOM     18  C   UNL     1       3.757   8.515   8.335  0.00  0.00    -0.012 C 
ATOM     19  C   UNL     1       2.486   7.693   8.112  0.00  0.00    +0.007 C 
ATOM     20  C   UNL     1       4.330   8.945   6.983  0.00  0.00    -0.009 C 
ENDBRANCH   9  11
ENDBRANCH   1   4
BRANCH   1  25
ATOM     21  C   UNL     1      -0.177   9.459   0.365  0.00  0.00    +0.003 A 
ATOM     22  C   UNL     1      -0.159   8.084   0.255  0.00  0.00    +0.013 A 
ATOM     23  C   UNL     1       1.059   7.403   0.240  0.00  0.00    +0.039 A 
ATOM     24  C   UNL     1       2.253   8.120   0.343  0.00  0.00    +0.041 A 
ATOM     25  C   UNL     1       2.222   9.495   0.448  0.00  0.00    +0.106 A 
ATOM     26  C   UNL     1       1.010  10.163   0.462  0.00  0.00    +0.028 A 
BRANCH  23  27
ATOM     27  C   UNL     1       1.085   5.930   0.122  0.00  0.00    +0.248 C 
ATOM     28  O   UNL     1       2.148   5.340   0.109  0.00  0.00    -0.270 OA
ATOM     29  N   UNL     1      -0.069   5.241   0.028  0.00  0.00    -0.281 N 
ATOM     30  H   UNL     1      -0.913   5.715  -0.039  0.00  0.00    +0.155 HD
BRANCH  29  31
ATOM     31  C   UNL     1      -0.051   3.842   0.028  0.00  0.00    +0.036 A 
ATOM     32  C   UNL     1      -0.990   3.134  -0.711  0.00  0.00    +0.023 A 
ATOM     33  C   UNL     1      -0.969   1.753  -0.709  0.00  0.00    +0.004 A 
ATOM     34  C   UNL     1      -0.015   1.076   0.028  0.00  0.00    +0.033 A 
ATOM     35  C   UNL     1       0.918   1.778   0.769  0.00  0.00    +0.128 A 
ATOM     36  C   UNL     1       0.906   3.159   0.766  0.00  0.00    +0.056 A 
BRANCH  35  37
ATOM     37  N   UNL     1       1.934   1.048   1.561  0.00  0.00    +0.056 N 
ATOM     38  O   UNL     1       1.947  -0.170   1.560  0.00  0.00    -0.126 OA
ATOM     39  O   UNL     1       2.756   1.666   2.213  0.00  0.00    -0.126 OA
ENDBRANCH  35  37
ENDBRANCH  29  31
ENDBRANCH  23  27
ENDBRANCH   1  25
TORSDOF 6
