REMARK  Name = ZINC14957882
REMARK  14 active torsions:
REMARK  status: ('A' for Active; 'I' for Inactive)
REMARK    1  A    between atoms: C_1  and  C_2
REMARK    2  A    between atoms: C_4  and  O_31
REMARK    3  A    between atoms: C_5  and  C_11
REMARK    4  A    between atoms: C_6  and  O_10
REMARK    5  A    between atoms: C_7  and  C_8
REMARK    6  A    between atoms: C_11  and  C_12
REMARK    7  A    between atoms: C_13  and  C_14
REMARK    8  A    between atoms: C_13  and  C_15
REMARK    9  A    between atoms: C_15  and  C_17
REMARK   10  A    between atoms: C_15  and  O_30
REMARK   11  A    between atoms: C_17  and  C_18
REMARK   12  A    between atoms: C_18  and  C_29
REMARK   13  A    between atoms: C_19  and  C_28
REMARK   14  A    between atoms: C_25  and  C_27
REMARK                            x       y       z     vdW  Elec       q    Type
REMARK                         _______ _______ _______ _____ _____    ______ ____
ROOT
ATOM      1  C   UNL     1      -3.088   3.894  -1.381  0.00  0.00    -0.021 C 
ATOM      2  C   UNL     1      -4.208   3.329  -1.758  0.00  0.00    -0.048 C 
ATOM      3  C   UNL     1      -5.157   2.775  -0.725  0.00  0.00    +0.041 C 
ENDROOT
BRANCH   1   4
ATOM      4  C   UNL     1      -2.698   3.898   0.074  0.00  0.00    +0.069 C 
BRANCH   4   9
ATOM      5  C   UNL     1       2.422   1.253   0.711  0.00  0.00    +0.045 C 
ATOM      6  C   UNL     1       1.094   1.945   0.545  0.00  0.00    -0.033 A 
ATOM      7  C   UNL     1      -0.064   1.225   0.617  0.00  0.00    +0.050 A 
ATOM      8  C   UNL     1      -1.296   1.855   0.459  0.00  0.00    +0.124 A 
ATOM      9  C   UNL     1      -1.361   3.223   0.238  0.00  0.00    +0.040 A 
ATOM     10  C   UNL     1      -0.196   3.966   0.162  0.00  0.00    +0.134 A 
ATOM     11  C   UNL     1       1.048   3.327   0.317  0.00  0.00    +0.059 A 
BRANCH  11  12
ATOM     12  C   UNL     1       2.289   4.101   0.238  0.00  0.00    +0.262 C 
ATOM     13  O   UNL     1       3.361   3.536   0.295  0.00  0.00    -0.296 OA
ENDBRANCH  11  12
BRANCH  10  14
ATOM     14  O   UNL     1      -0.252   5.303  -0.059  0.00  0.00    -0.506 OA
ATOM     15  H   UNL     1      -0.234   5.548  -0.994  0.00  0.00    +0.292 HD
ENDBRANCH  10  14
BRANCH   8  16
ATOM     16  O   UNL     1      -2.439   1.127   0.527  0.00  0.00    -0.506 OA
ATOM     17  H   UNL     1      -2.809   1.059   1.418  0.00  0.00    +0.292 HD
ENDBRANCH   8  16
ENDBRANCH   4   9
ENDBRANCH   1   4
BRANCH   2  18
ATOM     18  C   UNL     1      -4.549   3.232  -3.222  0.00  0.00    +0.141 C 
BRANCH  18  19
ATOM     19  O   UNL     1      -5.830   3.822  -3.453  0.00  0.00    -0.387 OA
ATOM     20  H   UNL     1      -6.551   3.402  -2.964  0.00  0.00    +0.210 HD
ENDBRANCH  18  19
BRANCH  18  21
ATOM     21  C   UNL     1      -4.582   1.761  -3.642  0.00  0.00    +0.043 C 
BRANCH  21  22
ATOM     22  C   UNL     1      -4.804   1.667  -5.153  0.00  0.00    -0.018 C 
ATOM     23  C   UNL     1      -4.839   0.197  -5.573  0.00  0.00    -0.007 C 
ATOM     24  C   UNL     1      -4.972   0.095  -7.094  0.00  0.00    +0.011 C 
ATOM     25  C   UNL     1      -6.310   0.700  -7.529  0.00  0.00    +0.075 C 
ATOM     26  C   UNL     1      -6.399   2.110  -6.989  0.00  0.00    +0.137 C 
ATOM     27  O   UNL     1      -6.673   3.036  -7.715  0.00  0.00    -0.297 OA
ATOM     28  C   UNL     1      -6.137   2.332  -5.516  0.00  0.00    +0.058 C 
ATOM     29  C   UNL     1      -7.263   1.709  -4.690  0.00  0.00    +0.016 C 
ATOM     30  C   UNL     1      -3.546  -0.490  -5.129  0.00  0.00    +0.008 C 
ATOM     31  C   UNL     1      -3.663   2.380  -5.882  0.00  0.00    +0.012 C 
ENDBRANCH  21  22
ENDBRANCH  18  21
ENDBRANCH   2  18
TORSDOF 9
