REMARK  Name = ZINC50323987
REMARK  4 active torsions:
REMARK  status: ('A' for Active; 'I' for Inactive)
REMARK    1  A    between atoms: C_3  and  C_20
REMARK    2  A    between atoms: C_8  and  C_10
REMARK    3  A    between atoms: C_11  and  N_19
REMARK    4  A    between atoms: C_12  and  C_16
REMARK                            x       y       z     vdW  Elec       q    Type
REMARK                         _______ _______ _______ _____ _____    ______ ____
ROOT
ATOM      1  C   UNL     1       0.032   1.397  -0.173  0.00  0.00    +0.020 C 
ATOM      2  C   UNL     1       1.472   1.916  -0.190  0.00  0.00    +0.015 C 
ATOM      3  C   UNL     1       2.176   1.513   1.108  0.00  0.00    +0.110 C 
ATOM      4  C   UNL     1       2.214  -0.015   1.210  0.00  0.00    +0.120 C 
ATOM      5  N   UNL     1       0.845  -0.531   1.082  0.00  0.00    -0.296 N 
ATOM      6  C   UNL     1       0.046  -0.132  -0.085  0.00  0.00    +0.108 C 
ATOM      7  C   UNL     1       0.332  -1.357   2.016  0.00  0.00    +0.266 C 
ATOM      8  O   UNL     1       1.032  -1.753   2.929  0.00  0.00    -0.268 OA
ENDROOT
BRANCH   7   9
ATOM      9  C   UNL     1      -1.069  -1.776   1.932  0.00  0.00    +0.141 A 
ATOM     10  C   UNL     1      -1.607  -2.732   1.074  0.00  0.00    +0.078 A 
ATOM     11  C   UNL     1      -2.977  -2.770   1.380  0.00  0.00    +0.087 A 
ATOM     12  N   UNL     1      -3.200  -1.907   2.336  0.00  0.00    -0.176 NA
ATOM     13  N   UNL     1      -2.117  -1.313   2.688  0.00  0.00    -0.271 N 
ATOM     14  H   UNL     1      -2.050  -0.638   3.381  0.00  0.00    +0.189 HD
BRANCH  11  15
ATOM     15  C   UNL     1      -4.008  -3.651   0.723  0.00  0.00    +0.041 C 
ATOM     16  C   UNL     1      -5.478  -3.394   1.064  0.00  0.00    +0.010 C 
ATOM     17  C   UNL     1      -4.770  -4.633   1.615  0.00  0.00    +0.010 C 
ENDBRANCH  11  15
BRANCH  10  18
ATOM     18  N   UNL     1      -0.932  -3.486   0.117  0.00  0.00    -0.355 N 
ATOM     19  H   UNL     1       0.023  -3.372  -0.006  0.00  0.00    +0.142 HD
ATOM     20  H   UNL     1      -1.418  -4.126  -0.427  0.00  0.00    +0.142 HD
ENDBRANCH  10  18
ENDBRANCH   7   9
BRANCH   3  21
ATOM     21  C   UNL     1       3.605   2.061   1.104  0.00  0.00    +0.394 C 
ATOM     22  F   UNL     1       3.569   3.457   1.007  0.00  0.00    -0.170 F 
ATOM     23  F   UNL     1       4.248   1.693   2.291  0.00  0.00    -0.170 F 
ATOM     24  F   UNL     1       4.303   1.536   0.012  0.00  0.00    -0.170 F 
ENDBRANCH   3  21
TORSDOF 4
