REMARK  Name = ZINC20463712
REMARK  8 active torsions:
REMARK  status: ('A' for Active; 'I' for Inactive)
REMARK    1  A    between atoms: C_4  and  O_7
REMARK    2  A    between atoms: O_7  and  C_8
REMARK    3  A    between atoms: C_10  and  O_34
REMARK    4  A    between atoms: C_12  and  N_21
REMARK    5  A    between atoms: N_21  and  C_22
REMARK    6  A    between atoms: C_22  and  C_23
REMARK    7  A    between atoms: C_26  and  O_29
REMARK    8  A    between atoms: O_29  and  C_30
REMARK                            x       y       z     vdW  Elec       q    Type
REMARK                         _______ _______ _______ _____ _____    ______ ____
ROOT
ATOM      1  C   UNL     1      -1.250  -1.274  -2.371  0.00  0.00    +0.256 C 
ATOM      2  C   UNL     1      -1.831  -0.412  -1.244  0.00  0.00    +0.149 C 
ATOM      3  C   UNL     1      -1.278  -0.897   0.101  0.00  0.00    -0.007 C 
ATOM      4  C   UNL     1      -1.513  -2.413   0.207  0.00  0.00    +0.136 C 
ATOM      5  C   UNL     1      -2.987  -2.700  -0.278  0.00  0.00    +0.193 C 
ATOM      6  O   UNL     1      -2.863  -2.934  -1.693  0.00  0.00    -0.345 OA
ATOM      7  C   UNL     1      -1.474  -2.755  -2.027  0.00  0.00    +0.294 C 
ATOM      8  O   UNL     1      -0.719  -3.042  -0.829  0.00  0.00    -0.344 OA
ENDROOT
BRANCH   3   9
ATOM      9  N   UNL     1       0.162  -0.614   0.173  0.00  0.00    +0.387 N 
ATOM     10  H   UNL     1       0.720  -1.425  -0.318  0.00  0.00    -0.085 HD
ATOM     11  H   UNL     1       0.375   0.338  -0.334  0.00  0.00    -0.085 HD
BRANCH   9  12
ATOM     12  C   UNL     1       0.609  -0.514   1.569  0.00  0.00    -0.046 C 
BRANCH  12  13
ATOM     13  C   UNL     1       2.087  -0.224   1.604  0.00  0.00    -0.064 A 
ATOM     14  C   UNL     1       2.994  -1.267   1.636  0.00  0.00    +0.005 A 
ATOM     15  C   UNL     1       4.350  -1.004   1.662  0.00  0.00    +0.046 A 
ATOM     16  C   UNL     1       4.801   0.308   1.667  0.00  0.00    +0.130 A 
ATOM     17  C   UNL     1       3.889   1.352   1.641  0.00  0.00    +0.046 A 
ATOM     18  C   UNL     1       2.534   1.084   1.609  0.00  0.00    +0.005 A 
BRANCH  16  19
ATOM     19  O   UNL     1       6.135   0.569   1.698  0.00  0.00    -0.406 OA
BRANCH  19  20
ATOM     20  C   UNL     1       7.016  -0.556   1.724  0.00  0.00    +0.575 C 
ATOM     21  F   UNL     1       6.812  -1.335   0.580  0.00  0.00    -0.133 F 
ATOM     22  F   UNL     1       8.341  -0.109   1.754  0.00  0.00    -0.133 F 
ATOM     23  F   UNL     1       6.757  -1.324   2.864  0.00  0.00    -0.133 F 
ENDBRANCH  19  20
ENDBRANCH  16  19
ENDBRANCH  12  13
ENDBRANCH   9  12
ENDBRANCH   3   9
BRANCH   2  24
ATOM     24  O   UNL     1      -3.255  -0.524  -1.243  0.00  0.00    -0.389 OA
ATOM     25  H   UNL     1      -3.849   0.028  -0.500  0.00  0.00    +0.210 HD
ENDBRANCH   2  24
BRANCH   1  26
ATOM     26  O   UNL     1       0.150  -1.018  -2.497  0.00  0.00    -0.481 OA
BRANCH  26  30
ATOM     27  C   UNL     1       1.860  -1.738  -6.182  0.00  0.00    +0.000 A 
ATOM     28  C   UNL     1       2.611  -1.166  -5.172  0.00  0.00    +0.004 A 
ATOM     29  C   UNL     1       2.041  -0.924  -3.937  0.00  0.00    +0.045 A 
ATOM     30  C   UNL     1       0.713  -1.255  -3.711  0.00  0.00    +0.121 A 
ATOM     31  C   UNL     1      -0.037  -1.834  -4.724  0.00  0.00    +0.045 A 
ATOM     32  C   UNL     1       0.536  -2.069  -5.959  0.00  0.00    +0.004 A 
ENDBRANCH  26  30
ENDBRANCH   1  26
TORSDOF 8
