REMARK  Name = ZINC13456981
REMARK  5 active torsions:
REMARK  status: ('A' for Active; 'I' for Inactive)
REMARK    1  A    between atoms: C_6  and  O_13
REMARK    2  A    between atoms: C_7  and  C_11
REMARK    3  A    between atoms: O_13  and  C_14
REMARK    4  A    between atoms: C_14  and  C_15
REMARK    5  A    between atoms: N_17  and  C_18
REMARK                            x       y       z     vdW  Elec       q    Type
REMARK                         _______ _______ _______ _____ _____    ______ ____
ROOT
ATOM      1  C   UNL     1       1.279   2.114   0.012  0.00  0.00    +0.324 C 
ENDROOT
BRANCH   1   2
ATOM      2  C   UNL     1      -0.016   1.343   0.012  0.00  0.00    +0.255 C 
ATOM      3  O   UNL     1      -1.074   1.936   0.017  0.00  0.00    -0.272 OA
ATOM      4  N   UNL     1       0.002  -0.004   0.002  0.00  0.00    -0.282 N 
ATOM      5  H   UNL     1       0.845  -0.477  -0.084  0.00  0.00    +0.155 HD
BRANCH   4   6
ATOM      6  C   UNL     1      -1.196  -0.722   0.115  0.00  0.00    +0.051 A 
ATOM      7  C   UNL     1      -2.296  -0.144   0.735  0.00  0.00    +0.073 A 
ATOM      8  C   UNL     1      -3.481  -0.853   0.847  0.00  0.00    +0.164 A 
ATOM      9  C   UNL     1      -3.568  -2.144   0.336  0.00  0.00    +0.163 A 
ATOM     10  C   UNL     1      -2.467  -2.719  -0.282  0.00  0.00    +0.066 A 
ATOM     11  C   UNL     1      -1.286  -2.009  -0.397  0.00  0.00    +0.043 A 
ATOM     12 BR   UNL     1       0.209  -2.795  -1.246  0.00  0.00    -0.048 Br
ATOM     13  O   UNL     1      -4.725  -2.855   0.432  0.00  0.00    -0.485 OA
ATOM     14  C   UNL     1      -5.687  -2.391   1.386  0.00  0.00    +0.270 C 
ATOM     15  C   UNL     1      -5.829  -0.872   1.225  0.00  0.00    +0.270 C 
ATOM     16  O   UNL     1      -4.549  -0.275   1.461  0.00  0.00    -0.485 OA
ENDBRANCH   4   6
ENDBRANCH   1   2
BRANCH   1  17
ATOM     17  O   UNL     1       0.999   3.516   0.024  0.00  0.00    -0.482 OA
BRANCH  17  23
ATOM     18  C   UNL     1       6.604   6.444   0.025  0.00  0.00    +0.001 A 
ATOM     19  C   UNL     1       6.802   5.064   0.013  0.00  0.00    +0.001 A 
ATOM     20  C   UNL     1       5.748   4.204   0.010  0.00  0.00    +0.008 A 
ATOM     21  C   UNL     1       4.436   4.709   0.018  0.00  0.00    -0.014 A 
ATOM     22  C   UNL     1       3.328   3.845   0.022  0.00  0.00    +0.055 A 
ATOM     23  C   UNL     1       2.064   4.357   0.026  0.00  0.00    +0.136 A 
ATOM     24  C   UNL     1       1.852   5.752   0.037  0.00  0.00    +0.105 A 
ATOM     25  C   UNL     1       2.929   6.625   0.040  0.00  0.00    +0.027 A 
ATOM     26  C   UNL     1       4.234   6.113   0.030  0.00  0.00    -0.017 A 
ATOM     27  C   UNL     1       5.350   6.971   0.033  0.00  0.00    +0.008 A 
BRANCH  24  28
ATOM     28  C   UNL     1       0.477   6.285   0.047  0.00  0.00    +0.390 C 
ATOM     29  O   UNL     1      -0.469   5.522   0.045  0.00  0.00    -0.240 OA
ATOM     30  O   UNL     1       0.270   7.616   0.058  0.00  0.00    -0.240 OA
ENDBRANCH  24  28
ENDBRANCH  17  23
ENDBRANCH   1  17
TORSDOF 5
