REMARK  Name = ZINC53241253
REMARK  5 active torsions:
REMARK  status: ('A' for Active; 'I' for Inactive)
REMARK    1  A    between atoms: N_4  and  C_21
REMARK    2  A    between atoms: C_5  and  N_6
REMARK    3  A    between atoms: C_7  and  C_9
REMARK    4  A    between atoms: C_9  and  N_10
REMARK    5  A    between atoms: C_21  and  C_22
REMARK                            x       y       z     vdW  Elec       q    Type
REMARK                         _______ _______ _______ _____ _____    ______ ____
ROOT
ATOM      1  N   UNL     1      -1.112  -0.843   0.009  0.00  0.00    -0.269 N 
ATOM      2  C   UNL     1      -2.352  -0.317   0.023  0.00  0.00    +0.236 C 
ATOM      3  O   UNL     1      -2.500   0.887   0.031  0.00  0.00    -0.274 OA
ATOM      4  H   UNL     1      -0.994  -1.806   0.003  0.00  0.00    +0.156 HD
ENDROOT
BRANCH   1   9
ATOM      5  C   UNL     1      -0.016   1.357   0.009  0.00  0.00    +0.065 A 
ATOM      6  C   UNL     1       1.308   1.803  -0.001  0.00  0.00    +0.136 A 
ATOM      7  N   UNL     1       2.094   0.757  -0.014  0.00  0.00    -0.178 NA
ATOM      8  N   UNL     1       1.297  -0.395  -0.012  0.00  0.00    -0.250 N 
ATOM      9  C   UNL     1       0.002  -0.004   0.002  0.00  0.00    +0.123 A 
BRANCH   8  10
ATOM     10  C   UNL     1       1.780  -1.778  -0.025  0.00  0.00    +0.149 C 
BRANCH  10  11
ATOM     11  C   UNL     1       1.962  -2.267   1.414  0.00  0.00    +0.010 C 
ATOM     12  C   UNL     1       3.068  -1.458   2.092  0.00  0.00    +0.005 C 
ATOM     13  C   UNL     1       3.250  -1.947   3.530  0.00  0.00    +0.000 C 
ATOM     14  C   UNL     1       3.634  -3.428   3.521  0.00  0.00    +0.000 C 
ATOM     15  C   UNL     1       2.527  -4.237   2.842  0.00  0.00    +0.000 C 
ATOM     16  C   UNL     1       2.346  -3.748   1.404  0.00  0.00    +0.005 C 
ENDBRANCH  10  11
ENDBRANCH   8  10
ENDBRANCH   1   9
BRANCH   2  17
ATOM     17  C   UNL     1      -3.556  -1.224   0.030  0.00  0.00    +0.214 C 
BRANCH  17  18
ATOM     18  N   UNL     1      -4.777  -0.414   0.046  0.00  0.00    -0.215 N 
ATOM     19  C   UNL     1      -5.395   0.003   1.169  0.00  0.00    +0.248 C 
ATOM     20  O   UNL     1      -5.057  -0.211   2.314  0.00  0.00    -0.273 OA
ATOM     21  C   UNL     1      -6.598   0.796   0.703  0.00  0.00    +0.122 C 
ATOM     22  C   UNL     1      -7.884   0.130   1.186  0.00  0.00    +0.047 C 
ATOM     23  C   UNL     1      -8.319   0.729   2.553  0.00  0.00    +0.072 C 
ATOM     24  S   UNL     1      -7.911   2.505   2.255  0.00  0.00    -0.158 S 
ATOM     25  C   UNL     1      -6.452   2.260   1.159  0.00  0.00    +0.104 C 
ATOM     26  N   UNL     1      -6.512   0.730  -0.765  0.00  0.00    -0.284 N 
ATOM     27  C   UNL     1      -5.414   0.007  -1.053  0.00  0.00    +0.310 C 
ATOM     28  O   UNL     1      -5.044  -0.239  -2.184  0.00  0.00    -0.252 OA
ATOM     29  H   UNL     1      -7.125   1.131  -1.400  0.00  0.00    +0.151 HD
ENDBRANCH  17  18
ENDBRANCH   2  17
TORSDOF 5
