REMARK  Name = ZINC21809162
REMARK  5 active torsions:
REMARK  status: ('A' for Active; 'I' for Inactive)
REMARK    1  A    between atoms: C_1  and  C_2
REMARK    2  A    between atoms: C_5  and  S_9
REMARK    3  A    between atoms: C_7  and  N_8
REMARK    4  A    between atoms: S_9  and  N_12
REMARK    5  A    between atoms: N_12  and  C_13
REMARK                            x       y       z     vdW  Elec       q    Type
REMARK                         _______ _______ _______ _____ _____    ______ ____
ROOT
ATOM      1  S   UNL     1      -1.611   2.329  -0.003  0.00  0.00    +0.072 S 
ATOM      2  O   UNL     1      -1.432   3.651  -0.493  0.00  0.00    -0.150 OA
ATOM      3  O   UNL     1      -2.563   1.433  -0.560  0.00  0.00    -0.150 OA
ENDROOT
BRANCH   1   8
ATOM      4  C   UNL     1       3.768  -0.384  -0.411  0.00  0.00    +0.045 C 
ATOM      5  C   UNL     1       2.425   0.291  -0.307  0.00  0.00    -0.030 A 
ATOM      6  C   UNL     1       2.347   1.668  -0.230  0.00  0.00    +0.007 A 
ATOM      7  C   UNL     1       1.115   2.288  -0.135  0.00  0.00    +0.029 A 
ATOM      8  C   UNL     1      -0.043   1.533  -0.117  0.00  0.00    +0.110 A 
ATOM      9  C   UNL     1       0.027   0.156  -0.194  0.00  0.00    +0.051 A 
ATOM     10  C   UNL     1       1.263  -0.471  -0.289  0.00  0.00    +0.029 A 
BRANCH  10  11
ATOM     11  N   UNL     1       1.338  -1.863  -0.367  0.00  0.00    -0.358 N 
ATOM     12  H   UNL     1       0.417  -2.465  -0.352  0.00  0.00    +0.142 HD
ATOM     13  H   UNL     1       2.317  -2.358  -0.442  0.00  0.00    +0.142 HD
ENDBRANCH  10  11
ENDBRANCH   1   8
BRANCH   1  14
ATOM     14  N   UNL     1      -1.975   2.466   1.607  0.00  0.00    -0.213 N 
ATOM     15  H   UNL     1      -2.877   1.983   2.010  0.00  0.00    +0.174 HD
BRANCH  14  16
ATOM     16  C   UNL     1      -1.134   3.196   2.455  0.00  0.00    +0.086 A 
ATOM     17  C   UNL     1      -0.498   4.339   1.988  0.00  0.00    +0.030 A 
ATOM     18  C   UNL     1       0.331   5.060   2.825  0.00  0.00    +0.043 A 
ATOM     19  C   UNL     1       0.530   4.644   4.131  0.00  0.00    +0.161 A 
ATOM     20  C   UNL     1      -0.102   3.504   4.601  0.00  0.00    +0.195 A 
ATOM     21  C   UNL     1      -0.939   2.782   3.767  0.00  0.00    +0.183 A 
ATOM     22  F   UNL     1      -1.561   1.675   4.227  0.00  0.00    -0.200 F 
ATOM     23  F   UNL     1       0.094   3.100   5.876  0.00  0.00    -0.199 F 
ATOM     24  F   UNL     1       1.342   5.351   4.947  0.00  0.00    -0.202 F 
ENDBRANCH  14  16
ENDBRANCH   1  14
TORSDOF 4
