REMARK  Name = ZINC40288104
REMARK  8 active torsions:
REMARK  status: ('A' for Active; 'I' for Inactive)
REMARK    1  A    between atoms: C_1  and  C_2
REMARK    2  A    between atoms: C_2  and  C_3
REMARK    3  A    between atoms: C_2  and  C_4
REMARK    4  A    between atoms: C_4  and  C_6
REMARK    5  A    between atoms: C_4  and  N_10
REMARK    6  A    between atoms: C_6  and  O_8
REMARK    7  A    between atoms: O_8  and  C_9
REMARK    8  A    between atoms: C_22  and  C_24
REMARK                            x       y       z     vdW  Elec       q    Type
REMARK                         _______ _______ _______ _____ _____    ______ ____
ROOT
ATOM      1  N   UNL     1      -1.148  -2.384  -2.463  0.00  0.00    -0.286 N 
ATOM      2  C   UNL     1      -1.794  -1.208  -2.338  0.00  0.00    +0.304 C 
ATOM      3  O   UNL     1      -1.872  -0.671  -1.250  0.00  0.00    -0.253 OA
ATOM      4  N   UNL     1      -2.354  -0.628  -3.418  0.00  0.00    -0.273 N 
ATOM      5  C   UNL     1      -2.959   0.709  -3.326  0.00  0.00    +0.116 C 
ATOM      6  C   UNL     1      -4.464   0.599  -3.599  0.00  0.00    +0.074 C 
ATOM      7  C   UNL     1      -4.676  -0.285  -4.800  0.00  0.00    +0.040 A 
ATOM      8  C   UNL     1      -3.759  -1.141  -5.300  0.00  0.00    +0.062 A 
ATOM      9  N   UNL     1      -4.296  -1.755  -6.356  0.00  0.00    -0.348 N 
ATOM     10  C   UNL     1      -5.513  -1.313  -6.535  0.00  0.00    +0.171 A 
ATOM     11  N   UNL     1      -5.786  -0.392  -5.583  0.00  0.00    -0.349 N 
ATOM     12  H   UNL     1      -6.616   0.100  -5.477  0.00  0.00    +0.166 HD
ATOM     13  C   UNL     1      -2.371  -1.317  -4.721  0.00  0.00    +0.156 C 
ATOM     14  H   UNL     1      -1.147  -2.849  -3.315  0.00  0.00    +0.151 HD
ATOM     15  H   UNL     1      -3.854  -2.424  -6.903  0.00  0.00    +0.167 HD
ENDROOT
BRANCH  13  16
ATOM     16  C   UNL     1      -1.346  -0.702  -5.639  0.00  0.00    -0.020 A 
ATOM     17  C   UNL     1      -1.475   0.617  -6.033  0.00  0.00    +0.009 A 
ATOM     18  C   UNL     1      -0.536   1.183  -6.875  0.00  0.00    +0.040 A 
ATOM     19  C   UNL     1       0.535   0.429  -7.323  0.00  0.00    +0.137 A 
ATOM     20  C   UNL     1       0.664  -0.892  -6.927  0.00  0.00    +0.053 A 
ATOM     21  C   UNL     1      -0.274  -1.455  -6.081  0.00  0.00    +0.024 A 
ATOM     22 BR   UNL     1       2.126  -1.924  -7.537  0.00  0.00    -0.047 Br
ATOM     23  F   UNL     1       1.453   0.981  -8.145  0.00  0.00    -0.204 F 
ENDBRANCH  13  16
BRANCH   1  24
ATOM     24  C   UNL     1      -0.447  -2.961  -1.314  0.00  0.00    +0.186 C 
BRANCH  24  26
ATOM     25  C   UNL     1      -1.946  -4.959  -1.268  0.00  0.00    +0.009 C 
ATOM     26  C   UNL     1      -1.434  -3.762  -0.463  0.00  0.00    +0.014 C 
ATOM     27  C   UNL     1      -0.731  -4.261   0.801  0.00  0.00    +0.009 C 
ENDBRANCH  24  26
BRANCH  24  28
ATOM     28  C   UNL     1       0.651  -3.872  -1.800  0.00  0.00    +0.328 C 
ATOM     29  O   UNL     1       0.830  -4.023  -2.986  0.00  0.00    -0.249 OA
BRANCH  28  30
ATOM     30  O   UNL     1       1.431  -4.514  -0.917  0.00  0.00    -0.467 OA
ATOM     31  C   UNL     1       2.452  -5.361  -1.448  0.00  0.00    +0.280 C 
ENDBRANCH  28  30
ENDBRANCH  24  28
ENDBRANCH   1  24
TORSDOF 5
