REMARK  Name = ZINC00989001
REMARK  11 active torsions:
REMARK  status: ('A' for Active; 'I' for Inactive)
REMARK    1  A    between atoms: C_1  and  C_2
REMARK    2  A    between atoms: C_5  and  N_8
REMARK    3  A    between atoms: C_11  and  C_13
REMARK    4  A    between atoms: C_14  and  C_22
REMARK    5  A    between atoms: C_16  and  C_20
REMARK    6  A    between atoms: C_17  and  N_19
REMARK    7  A    between atoms: C_25  and  O_30
REMARK    8  A    between atoms: C_26  and  O_28
REMARK    9  A    between atoms: O_28  and  C_29
REMARK   10  A    between atoms: O_30  and  C_31
REMARK   11  A    between atoms: C_31  and  C_32
REMARK                            x       y       z     vdW  Elec       q    Type
REMARK                         _______ _______ _______ _____ _____    ______ ____
ROOT
ATOM      1  N   UNL     1      -2.458   3.824   0.046  0.00  0.00    -0.200 N 
ATOM      2  C   UNL     1      -3.595   3.441  -0.576  0.00  0.00    +0.230 A 
ATOM      3  C   UNL     1      -4.547   4.385  -0.309  0.00  0.00    +0.050 A 
ATOM      4  C   UNL     1      -3.971   5.365   0.488  0.00  0.00    +0.068 A 
ATOM      5  N   UNL     1      -2.719   5.036   0.704  0.00  0.00    -0.168 NA
ATOM      6  C   UNL     1      -4.664   6.596   1.013  0.00  0.00    +0.068 C 
ATOM      7  C   UNL     1      -5.955   4.292  -0.839  0.00  0.00    +0.101 C 
ATOM      8  C   UNL     1      -6.157   2.905  -1.396  0.00  0.00    +0.098 C 
ATOM      9  C   UNL     1      -5.132   2.048  -1.601  0.00  0.00    +0.200 C 
ATOM     10  O   UNL     1      -3.844   2.341  -1.328  0.00  0.00    -0.423 OA
ENDROOT
BRANCH   1  15
ATOM     11  C   UNL     1       2.490   1.045  -0.016  0.00  0.00    +0.044 C 
ATOM     12  C   UNL     1       1.176   1.783   0.000  0.00  0.00    -0.050 A 
ATOM     13  C   UNL     1      -0.013   1.076   0.008  0.00  0.00    +0.005 A 
ATOM     14  C   UNL     1      -1.218   1.749   0.017  0.00  0.00    +0.028 A 
ATOM     15  C   UNL     1      -1.236   3.138   0.031  0.00  0.00    +0.069 A 
ATOM     16  C   UNL     1      -0.041   3.845   0.024  0.00  0.00    +0.028 A 
ATOM     17  C   UNL     1       1.161   3.165   0.008  0.00  0.00    +0.005 A 
ENDBRANCH   1  15
BRANCH   7  18
ATOM     18  C   UNL     1      -6.156   5.313  -1.929  0.00  0.00    -0.031 A 
ATOM     19  C   UNL     1      -5.366   5.275  -3.064  0.00  0.00    +0.008 A 
ATOM     20  C   UNL     1      -5.551   6.206  -4.069  0.00  0.00    +0.050 A 
ATOM     21  C   UNL     1      -6.521   7.186  -3.936  0.00  0.00    +0.162 A 
ATOM     22  C   UNL     1      -7.312   7.227  -2.792  0.00  0.00    +0.162 A 
ATOM     23  C   UNL     1      -7.126   6.288  -1.790  0.00  0.00    +0.054 A 
BRANCH  22  24
ATOM     24  O   UNL     1      -8.266   8.187  -2.657  0.00  0.00    -0.491 OA
ATOM     25  C   UNL     1      -9.041   8.168  -1.456  0.00  0.00    +0.277 C 
ENDBRANCH  22  24
BRANCH  21  26
ATOM     26  O   UNL     1      -6.701   8.106  -4.921  0.00  0.00    -0.484 OA
BRANCH  26  27
ATOM     27  C   UNL     1      -5.853   8.003  -6.067  0.00  0.00    +0.264 C 
BRANCH  27  28
ATOM     28  C   UNL     1      -6.194   9.097  -7.045  0.00  0.00    -0.010 A 
ATOM     29  C   UNL     1      -7.146   8.877  -8.024  0.00  0.00    +0.007 A 
ATOM     30  C   UNL     1      -7.463   9.883  -8.918  0.00  0.00    +0.000 A 
ATOM     31  C   UNL     1      -6.821  11.105  -8.840  0.00  0.00    +0.000 A 
ATOM     32  C   UNL     1      -5.866  11.323  -7.865  0.00  0.00    +0.000 A 
ATOM     33  C   UNL     1      -5.553  10.319  -6.968  0.00  0.00    +0.007 A 
ENDBRANCH  27  28
ENDBRANCH  26  27
ENDBRANCH  21  26
ENDBRANCH   7  18
BRANCH   9  34
ATOM     34  N   UNL     1      -5.418   0.809  -2.117  0.00  0.00    -0.328 N 
ATOM     35  H   UNL     1      -6.335   0.569  -2.324  0.00  0.00    +0.145 HD
ATOM     36  H   UNL     1      -4.703   0.172  -2.275  0.00  0.00    +0.145 HD
ENDBRANCH   9  34
BRANCH   8  37
ATOM     37  C   UNL     1      -7.486   2.479  -1.720  0.00  0.00    +0.101 C 
ATOM     38  N   UNL     1      -8.540   2.141  -1.977  0.00  0.00    -0.191 NA
ENDBRANCH   8  37
TORSDOF 8
