REMARK  Name = ZINC15435512
REMARK  7 active torsions:
REMARK  status: ('A' for Active; 'I' for Inactive)
REMARK    1  A    between atoms: C_1  and  C_2
REMARK    2  A    between atoms: N_5  and  S_11
REMARK    3  A    between atoms: C_7  and  C_10
REMARK    4  A    between atoms: S_11  and  C_14
REMARK    5  A    between atoms: C_18  and  C_20
REMARK    6  A    between atoms: N_22  and  N_23
REMARK    7  A    between atoms: C_24  and  C_26
REMARK                            x       y       z     vdW  Elec       q    Type
REMARK                         _______ _______ _______ _____ _____    ______ ____
ROOT
ATOM      1  C   UNL     1      -0.048   3.850   0.022  0.00  0.00    +0.106 A 
ATOM      2  C   UNL     1       1.155   3.167   0.007  0.00  0.00    +0.028 A 
ATOM      3  C   UNL     1       1.172   1.783   0.000  0.00  0.00    +0.003 A 
ATOM      4  C   UNL     1      -0.013   1.076   0.008  0.00  0.00    +0.013 A 
ATOM      5  C   UNL     1      -1.230   1.759   0.017  0.00  0.00    +0.040 A 
ATOM      6  C   UNL     1      -1.240   3.155   0.030  0.00  0.00    +0.041 A 
ENDROOT
BRANCH   5   7
ATOM      7  C   UNL     1      -2.503   1.007   0.019  0.00  0.00    +0.260 C 
ATOM      8  O   UNL     1      -3.561   1.604   0.028  0.00  0.00    -0.269 OA
ATOM      9  N   UNL     1      -2.490  -0.341   0.012  0.00  0.00    -0.230 N 
ATOM     10  H   UNL     1      -1.645  -0.818   0.005  0.00  0.00    +0.173 HD
BRANCH   9  11
ATOM     11  N   UNL     1      -3.696  -1.053   0.014  0.00  0.00    -0.230 N 
ATOM     12  C   UNL     1      -3.683  -2.401   0.006  0.00  0.00    +0.260 C 
ATOM     13  O   UNL     1      -2.624  -2.998  -0.002  0.00  0.00    -0.269 OA
ATOM     14  H   UNL     1      -4.541  -0.576   0.020  0.00  0.00    +0.173 HD
BRANCH  12  15
ATOM     15  C   UNL     1      -4.956  -3.152   0.009  0.00  0.00    +0.038 A 
ATOM     16  C   UNL     1      -6.173  -2.470   0.024  0.00  0.00    +0.013 A 
ATOM     17  C   UNL     1      -7.357  -3.177   0.019  0.00  0.00    +0.001 A 
ATOM     18  C   UNL     1      -7.340  -4.561   0.012  0.00  0.00    +0.000 A 
ATOM     19  C   UNL     1      -6.137  -5.244   0.003  0.00  0.00    +0.001 A 
ATOM     20  C   UNL     1      -4.946  -4.548   0.001  0.00  0.00    +0.013 A 
ENDBRANCH  12  15
ENDBRANCH   9  11
ENDBRANCH   5   7
BRANCH   1  21
ATOM     21  S   UNL     1      -0.059   5.612   0.031  0.00  0.00    +0.061 S 
ATOM     22  O   UNL     1      -1.301   6.008   0.596  0.00  0.00    -0.153 OA
ATOM     23  O   UNL     1       1.189   6.023   0.572  0.00  0.00    -0.153 OA
BRANCH  21  27
ATOM     24  C   UNL     1      -1.288   4.066  -3.322  0.00  0.00    +0.039 C 
ATOM     25  C   UNL     1      -1.294   5.572  -3.590  0.00  0.00    +0.131 C 
ATOM     26  C   UNL     1      -1.347   6.329  -2.258  0.00  0.00    +0.140 C 
ATOM     27  N   UNL     1      -0.077   6.109  -1.548  0.00  0.00    -0.172 NA
ATOM     28  C   UNL     1       1.176   6.350  -2.281  0.00  0.00    +0.140 C 
ATOM     29  C   UNL     1       1.106   5.587  -3.613  0.00  0.00    +0.131 C 
ATOM     30  O   UNL     1      -0.103   5.937  -4.292  0.00  0.00    -0.371 OA
ATOM     31  C   UNL     1       2.308   5.967  -4.481  0.00  0.00    +0.039 C 
ENDBRANCH  21  27
ENDBRANCH   1  21
TORSDOF 5
