REMARK  Name = ZINC58886438
REMARK  8 active torsions:
REMARK  status: ('A' for Active; 'I' for Inactive)
REMARK    1  A    between atoms: C_4  and  C_7
REMARK    2  A    between atoms: C_7  and  C_9
REMARK    3  A    between atoms: C_7  and  O_27
REMARK    4  A    between atoms: C_9  and  C_10
REMARK    5  A    between atoms: C_10  and  C_11
REMARK    6  A    between atoms: N_13  and  N_14
REMARK    7  A    between atoms: C_15  and  C_16
REMARK    8  A    between atoms: C_18  and  N_24
REMARK                            x       y       z     vdW  Elec       q    Type
REMARK                         _______ _______ _______ _____ _____    ______ ____
ROOT
ATOM      1  C   UNL     1       5.773  -2.286   2.777  0.00  0.00    +0.232 C 
ATOM      2  O   UNL     1       4.975  -2.126   3.677  0.00  0.00    -0.274 OA
ATOM      3  N   UNL     1       6.956  -2.882   3.023  0.00  0.00    -0.207 N 
ATOM      4  H   UNL     1       7.594  -3.010   2.303  0.00  0.00    +0.177 HD
ENDROOT
BRANCH   3   5
ATOM      5  N   UNL     1       7.265  -3.317   4.318  0.00  0.00    -0.188 NA
ATOM      6  C   UNL     1       8.405  -3.891   4.556  0.00  0.00    +0.138 C 
BRANCH   6   7
ATOM      7  C   UNL     1       8.730  -4.348   5.919  0.00  0.00    -0.002 A 
ATOM      8  C   UNL     1       9.959  -4.962   6.178  0.00  0.00    +0.046 A 
ATOM      9  C   UNL     1      10.259  -5.388   7.453  0.00  0.00    +0.174 A 
ATOM     10  C   UNL     1       9.342  -5.209   8.481  0.00  0.00    +0.222 A 
ATOM     11  C   UNL     1       8.119  -4.600   8.229  0.00  0.00    +0.063 A 
ATOM     12  C   UNL     1       7.813  -4.165   6.957  0.00  0.00    +0.027 A 
ATOM     13  I   UNL     1       6.742  -4.335   9.785  0.00  0.00    -0.040 I 
ATOM     14  O   UNL     1       9.642  -5.631   9.737  0.00  0.00    -0.284 OA
BRANCH   9  15
ATOM     15  N   UNL     1      11.560  -6.037   7.728  0.00  0.00    +0.060 N 
ATOM     16  O   UNL     1      12.359  -6.194   6.834  0.00  0.00    -0.126 OA
ATOM     17  O   UNL     1      11.825  -6.412   8.847  0.00  0.00    -0.126 OA
ENDBRANCH   9  15
ENDBRANCH   6   7
ENDBRANCH   3   5
BRANCH   1  18
ATOM     18  C   UNL     1       5.440  -1.819   1.383  0.00  0.00    +0.100 C 
BRANCH  18  19
ATOM     19  C   UNL     1       4.049  -1.182   1.377  0.00  0.00    +0.045 C 
BRANCH  19  20
ATOM     20  C   UNL     1       3.711  -0.707  -0.038  0.00  0.00    +0.145 C 
BRANCH  20  24
ATOM     21  C   UNL     1      -0.017   1.378   0.010  0.00  0.00    +0.000 A 
ATOM     22  C   UNL     1       1.171   2.086   0.002  0.00  0.00    +0.000 A 
ATOM     23  C   UNL     1       2.377   1.411  -0.013  0.00  0.00    +0.006 A 
ATOM     24  C   UNL     1       2.396   0.029  -0.020  0.00  0.00    -0.019 A 
ATOM     25  C   UNL     1       1.208  -0.679  -0.012  0.00  0.00    +0.006 A 
ATOM     26  C   UNL     1       0.002  -0.004   0.002  0.00  0.00    +0.000 A 
ENDBRANCH  20  24
BRANCH  20  27
ATOM     27  O   UNL     1       3.614  -1.836  -0.908  0.00  0.00    -0.387 OA
ATOM     28  H   UNL     1       2.934  -2.474  -0.651  0.00  0.00    +0.210 HD
ENDBRANCH  20  27
ENDBRANCH  19  20
ENDBRANCH  18  19
ENDBRANCH   1  18
TORSDOF 8
