REMARK  Name = ZINC25596978
REMARK  6 active torsions:
REMARK  status: ('A' for Active; 'I' for Inactive)
REMARK    1  A    between atoms: C_1  and  C_2
REMARK    2  A    between atoms: C_4  and  C_29
REMARK    3  A    between atoms: C_6  and  C_28
REMARK    4  A    between atoms: C_10  and  C_11
REMARK    5  A    between atoms: N_13  and  N_14
REMARK    6  A    between atoms: C_15  and  C_17
REMARK                            x       y       z     vdW  Elec       q    Type
REMARK                         _______ _______ _______ _____ _____    ______ ____
ROOT
ATOM      1  C   UNL     1      -7.000   2.042  -0.483  0.00  0.00    +0.267 C 
ATOM      2  O   UNL     1      -7.096   1.007  -1.116  0.00  0.00    -0.268 OA
ATOM      3  N   UNL     1      -5.784   2.560  -0.220  0.00  0.00    -0.230 N 
ATOM      4  H   UNL     1      -5.697   3.496   0.353  0.00  0.00    +0.173 HD
ENDROOT
BRANCH   1  14
ATOM      5  C   UNL     1      -9.851   1.111  -0.939  0.00  0.00    +0.046 C 
ATOM      6  C   UNL     1      -9.510   2.364  -0.174  0.00  0.00    -0.020 A 
ATOM      7  C   UNL     1     -10.533   3.158   0.368  0.00  0.00    +0.032 A 
ATOM      8  C   UNL     1     -11.936   2.972   0.318  0.00  0.00    +0.050 A 
ATOM      9  N   UNL     1     -12.724   3.852   0.896  0.00  0.00    -0.237 NA
ATOM     10  C   UNL     1     -12.256   4.914   1.529  0.00  0.00    +0.128 A 
ATOM     11  N   UNL     1     -10.961   5.149   1.613  0.00  0.00    -0.225 NA
ATOM     12  C   UNL     1     -10.101   4.319   1.063  0.00  0.00    +0.113 A 
ATOM     13  S   UNL     1      -8.334   4.239   0.932  0.00  0.00    -0.064 S 
ATOM     14  C   UNL     1      -8.210   2.726  -0.005  0.00  0.00    +0.081 A 
ATOM     15  C   UNL     1     -13.223   5.878   2.167  0.00  0.00    +0.088 C 
ATOM     16  C   UNL     1     -12.521   1.777  -0.390  0.00  0.00    +0.066 C 
ENDBRANCH   1  14
BRANCH   3  17
ATOM     17  N   UNL     1      -4.631   1.908  -0.675  0.00  0.00    -0.231 N 
ATOM     18  C   UNL     1      -3.415   2.427  -0.411  0.00  0.00    +0.273 C 
ATOM     19  O   UNL     1      -3.320   3.458   0.220  0.00  0.00    -0.270 OA
ATOM     20  H   UNL     1      -4.718   0.973  -1.247  0.00  0.00    +0.173 HD
BRANCH  18  21
ATOM     21  C   UNL     1      -2.175   1.725  -0.901  0.00  0.00    +0.297 C 
ATOM     22  C   UNL     1      -2.043   0.362  -0.208  0.00  0.00    +0.283 C 
ATOM     23  O   UNL     1      -0.849  -0.269  -0.684  0.00  0.00    -0.484 OA
ATOM     24  C   UNL     1       0.273   0.499  -0.729  0.00  0.00    +0.162 A 
ATOM     25  C   UNL     1       1.514  -0.113  -0.827  0.00  0.00    +0.049 A 
ATOM     26  C   UNL     1       2.662   0.655  -0.881  0.00  0.00    +0.004 A 
ATOM     27  C   UNL     1       2.577   2.034  -0.838  0.00  0.00    +0.004 A 
ATOM     28  C   UNL     1       1.344   2.650  -0.739  0.00  0.00    +0.049 A 
ATOM     29  C   UNL     1       0.188   1.886  -0.683  0.00  0.00    +0.163 A 
ATOM     30  O   UNL     1      -1.019   2.506  -0.577  0.00  0.00    -0.472 OA
ENDBRANCH  18  21
ENDBRANCH   3  17
TORSDOF 3
