REMARK  Name = ZINC23453946
REMARK  13 active torsions:
REMARK  status: ('A' for Active; 'I' for Inactive)
REMARK    1  A    between atoms: C_1  and  O_2
REMARK    2  A    between atoms: O_2  and  C_3
REMARK    3  A    between atoms: C_7  and  C_9
REMARK    4  A    between atoms: C_9  and  C_11
REMARK    5  A    between atoms: C_9  and  O_29
REMARK    6  A    between atoms: C_11  and  N_12
REMARK    7  A    between atoms: N_15  and  S_18
REMARK    8  A    between atoms: S_18  and  C_21
REMARK    9  A    between atoms: C_25  and  O_27
REMARK   10  A    between atoms: O_27  and  C_28
REMARK   11  A    between atoms: O_29  and  C_30
REMARK   12  A    between atoms: C_30  and  C_31
REMARK   13  A    between atoms: C_34  and  C_37
REMARK                            x       y       z     vdW  Elec       q    Type
REMARK                         _______ _______ _______ _____ _____    ______ ____
ROOT
ATOM      1  C   UNL     1      -0.591   1.730   3.656  0.00  0.00    +0.132 C 
ENDROOT
BRANCH   1   6
ATOM      2  C   UNL     1       0.108  -0.271   6.784  0.00  0.00    +0.120 A 
ATOM      3  C   UNL     1       1.368   0.194   7.132  0.00  0.00    +0.045 A 
ATOM      4  C   UNL     1       1.987   1.154   6.355  0.00  0.00    +0.004 A 
ATOM      5  C   UNL     1       1.355   1.646   5.228  0.00  0.00    +0.006 A 
ATOM      6  C   UNL     1       0.097   1.188   4.882  0.00  0.00    -0.017 A 
ATOM      7  C   UNL     1      -0.527   0.228   5.656  0.00  0.00    +0.051 A 
BRANCH   2   9
ATOM      8  C   UNL     1       0.209  -1.684   8.694  0.00  0.00    +0.277 C 
ATOM      9  O   UNL     1      -0.504  -1.215   7.547  0.00  0.00    -0.495 OA
ENDBRANCH   2   9
ENDBRANCH   1   6
BRANCH   1  10
ATOM     10  C   UNL     1      -0.123   0.955   2.423  0.00  0.00    -0.042 C 
BRANCH  10  11
ATOM     11  N   UNL     1      -0.798   1.480   1.229  0.00  0.00    +0.383 N 
ATOM     12  C   UNL     1      -2.243   1.217   1.282  0.00  0.00    -0.061 C 
ATOM     13  C   UNL     1      -2.933   1.933   0.116  0.00  0.00    +0.091 C 
ATOM     14  N   UNL     1      -2.273   1.532  -1.135  0.00  0.00    -0.180 NA
ATOM     15  C   UNL     1      -0.808   1.639  -1.215  0.00  0.00    +0.091 C 
ATOM     16  C   UNL     1      -0.201   0.934   0.003  0.00  0.00    -0.061 C 
ATOM     17  H   UNL     1      -0.658   2.571   1.212  0.00  0.00    -0.082 HD
BRANCH  14  18
ATOM     18  S   UNL     1      -3.155   0.974  -2.421  0.00  0.00    +0.061 S 
ATOM     19  O   UNL     1      -2.275   0.178  -3.202  0.00  0.00    -0.153 OA
ATOM     20  O   UNL     1      -4.372   0.468  -1.889  0.00  0.00    -0.153 OA
BRANCH  18  21
ATOM     21  C   UNL     1      -3.580   2.371  -3.407  0.00  0.00    +0.109 A 
ATOM     22  C   UNL     1      -4.757   3.055  -3.166  0.00  0.00    +0.029 A 
ATOM     23  C   UNL     1      -5.091   4.155  -3.934  0.00  0.00    +0.005 A 
ATOM     24  C   UNL     1      -4.253   4.567  -4.952  0.00  0.00    +0.046 A 
ATOM     25  C   UNL     1      -3.074   3.879  -5.200  0.00  0.00    +0.122 A 
ATOM     26  C   UNL     1      -2.739   2.779  -4.424  0.00  0.00    +0.074 A 
BRANCH  25  27
ATOM     27  O   UNL     1      -2.249   4.282  -6.202  0.00  0.00    -0.495 OA
ATOM     28  C   UNL     1      -2.658   5.423  -6.960  0.00  0.00    +0.277 C 
ENDBRANCH  25  27
ENDBRANCH  18  21
ENDBRANCH  14  18
ENDBRANCH  10  11
ENDBRANCH   1  10
BRANCH   1  29
ATOM     29  O   UNL     1      -0.267   3.114   3.501  0.00  0.00    -0.369 OA
BRANCH  29  30
ATOM     30  C   UNL     1      -1.170   4.001   4.163  0.00  0.00    +0.195 C 
BRANCH  30  31
ATOM     31  C   UNL     1      -0.735   5.425   3.933  0.00  0.00    -0.022 A 
ATOM     32  C   UNL     1       0.138   6.030   4.821  0.00  0.00    +0.007 A 
ATOM     33  C   UNL     1       0.544   7.332   4.614  0.00  0.00    +0.019 A 
ATOM     34  C   UNL     1       0.065   8.043   3.512  0.00  0.00    +0.052 A 
ATOM     35  C   UNL     1      -0.819   7.428   2.623  0.00  0.00    +0.019 A 
ATOM     36  C   UNL     1      -1.213   6.123   2.839  0.00  0.00    +0.007 A 
BRANCH  34  37
ATOM     37  C   UNL     1       0.479   9.396   3.293  0.00  0.00    +0.099 C 
ATOM     38  N   UNL     1       0.807  10.470   3.120  0.00  0.00    -0.191 NA
ENDBRANCH  34  37
ENDBRANCH  30  31
ENDBRANCH  29  30
ENDBRANCH   1  29
TORSDOF 11
