REMARK  Name = ZINC66344426
REMARK  7 active torsions:
REMARK  status: ('A' for Active; 'I' for Inactive)
REMARK    1  A    between atoms: C_6  and  C_7
REMARK    2  A    between atoms: C_7  and  C_9
REMARK    3  A    between atoms: C_7  and  O_28
REMARK    4  A    between atoms: C_9  and  N_10
REMARK    5  A    between atoms: N_13  and  C_14
REMARK    6  A    between atoms: C_14  and  C_15
REMARK    7  A    between atoms: N_19  and  C_21
REMARK                            x       y       z     vdW  Elec       q    Type
REMARK                         _______ _______ _______ _____ _____    ______ ____
ROOT
ATOM      1  N   UNL     1      -2.932  -1.889  -1.422  0.00  0.00    -0.297 N 
ATOM      2  C   UNL     1      -3.429  -2.383  -2.574  0.00  0.00    +0.300 C 
ATOM      3  O   UNL     1      -2.786  -2.293  -3.602  0.00  0.00    -0.253 OA
ATOM      4  N   UNL     1      -4.639  -2.976  -2.586  0.00  0.00    -0.299 N 
ATOM      5  H   UNL     1      -3.446  -1.960  -0.602  0.00  0.00    +0.150 HD
ATOM      6  H   UNL     1      -5.152  -3.048  -1.766  0.00  0.00    +0.150 HD
ENDROOT
BRANCH   1   7
ATOM      7  C   UNL     1      -1.617  -1.243  -1.409  0.00  0.00    +0.141 C 
BRANCH   7   8
ATOM      8  C   UNL     1      -1.293  -0.775   0.011  0.00  0.00    +0.162 C 
BRANCH   8  14
ATOM      9  C   UNL     1      -0.017   1.378   0.010  0.00  0.00    +0.007 A 
ATOM     10  C   UNL     1       1.171   2.086   0.002  0.00  0.00    +0.020 A 
ATOM     11  C   UNL     1       2.378   1.410  -0.013  0.00  0.00    +0.041 A 
ATOM     12  C   UNL     1       2.396   0.027  -0.021  0.00  0.00    +0.020 A 
ATOM     13  C   UNL     1       1.208  -0.679  -0.013  0.00  0.00    +0.007 A 
ATOM     14  C   UNL     1       0.002  -0.004   0.002  0.00  0.00    -0.018 A 
ATOM     15 CL   UNL     1       3.870   2.298  -0.023  0.00  0.00    -0.084 Cl
ENDBRANCH   8  14
BRANCH   8  16
ATOM     16  O   UNL     1      -1.166  -1.910   0.869  0.00  0.00    -0.386 OA
ATOM     17  H   UNL     1      -0.469  -2.526   0.606  0.00  0.00    +0.210 HD
ENDBRANCH   8  16
ENDBRANCH   7   8
ENDBRANCH   1   7
BRANCH   4  18
ATOM     18  C   UNL     1      -5.179  -3.513  -3.837  0.00  0.00    +0.110 C 
BRANCH  18  19
ATOM     19  C   UNL     1      -6.555  -4.128  -3.576  0.00  0.00    +0.025 C 
ATOM     20  C   UNL     1      -6.434  -5.424  -2.732  0.00  0.00    +0.025 C 
ATOM     21  C   UNL     1      -7.691  -6.222  -3.140  0.00  0.00    +0.105 C 
ATOM     22  N   UNL     1      -8.120  -5.718  -4.453  0.00  0.00    -0.330 N 
ATOM     23  C   UNL     1      -7.180  -4.668  -4.887  0.00  0.00    +0.110 C 
BRANCH  22  24
ATOM     24  C   UNL     1      -9.235  -6.161  -5.171  0.00  0.00    +0.030 A 
ATOM     25  C   UNL     1      -9.530  -5.605  -6.409  0.00  0.00    +0.026 A 
ATOM     26  C   UNL     1     -10.632  -6.044  -7.117  0.00  0.00    +0.040 A 
ATOM     27  C   UNL     1     -11.442  -7.038  -6.593  0.00  0.00    +0.124 A 
ATOM     28  C   UNL     1     -11.149  -7.593  -5.359  0.00  0.00    +0.040 A 
ATOM     29  C   UNL     1     -10.045  -7.161  -4.650  0.00  0.00    +0.026 A 
ATOM     30  F   UNL     1     -12.519  -7.466  -7.287  0.00  0.00    -0.205 F 
ENDBRANCH  22  24
ENDBRANCH  18  19
ENDBRANCH   4  18
TORSDOF 7
