REMARK  Name = ZINC64930616
REMARK  7 active torsions:
REMARK  status: ('A' for Active; 'I' for Inactive)
REMARK    1  A    between atoms: C_1  and  C_2
REMARK    2  A    between atoms: C_5  and  N_8
REMARK    3  A    between atoms: C_9  and  C_11
REMARK    4  A    between atoms: C_14  and  C_16
REMARK    5  A    between atoms: N_24  and  C_25
REMARK    6  A    between atoms: C_28  and  C_32
REMARK    7  A    between atoms: C_30  and  C_31
REMARK                            x       y       z     vdW  Elec       q    Type
REMARK                         _______ _______ _______ _____ _____    ______ ____
ROOT
ATOM      1  C   UNL     1       0.702 -10.309   2.016  0.00  0.00    +0.135 C 
ATOM      2  C   UNL     1       2.140 -10.802   1.756  0.00  0.00    +0.031 C 
ATOM      3  C   UNL     1       1.927 -12.269   1.295  0.00  0.00    +0.021 C 
ATOM      4  C   UNL     1       0.605 -12.154   0.496  0.00  0.00    +0.110 C 
ATOM      5  N   UNL     1      -0.205 -11.171   1.243  0.00  0.00    -0.276 N 
ATOM      6  C   UNL     1      -1.549 -11.077   1.222  0.00  0.00    +0.307 C 
ATOM      7  O   UNL     1      -2.110 -10.223   1.881  0.00  0.00    -0.252 OA
ATOM      8  N   UNL     1      -2.272 -11.930   0.469  0.00  0.00    -0.269 N 
ATOM      9  H   UNL     1      -1.831 -12.653  -0.004  0.00  0.00    +0.156 HD
ENDROOT
BRANCH   8  10
ATOM     10  C   UNL     1      -3.659 -11.773   0.370  0.00  0.00    +0.038 A 
ATOM     11  C   UNL     1      -4.388 -11.317   1.461  0.00  0.00    +0.024 A 
ATOM     12  C   UNL     1      -5.756 -11.162   1.360  0.00  0.00    +0.005 A 
ATOM     13  C   UNL     1      -6.402 -11.461   0.173  0.00  0.00    -0.050 A 
ATOM     14  C   UNL     1      -5.679 -11.915  -0.914  0.00  0.00    +0.008 A 
ATOM     15  C   UNL     1      -4.309 -12.066  -0.821  0.00  0.00    -0.029 A 
ATOM     16  C   UNL     1      -3.522 -12.555  -2.010  0.00  0.00    +0.045 C 
ATOM     17  C   UNL     1      -7.895 -11.291   0.067  0.00  0.00    +0.044 C 
ENDBRANCH   8  10
BRANCH   1  21
ATOM     18  C   UNL     1       0.322  -6.323   1.134  0.00  0.00    +0.187 A 
ATOM     19  N   UNL     1       0.356  -7.165   0.105  0.00  0.00    -0.136 NA
ATOM     20  N   UNL     1       0.472  -8.402   0.337  0.00  0.00    -0.144 NA
ATOM     21  C   UNL     1       0.560  -8.879   1.562  0.00  0.00    +0.123 A 
ATOM     22  S   UNL     1       0.481  -7.474   2.491  0.00  0.00    -0.044 S 
BRANCH  18  24
ATOM     23  N   UNL     1       0.086  -4.176  -0.009  0.00  0.00    -0.280 N 
ATOM     24  C   UNL     1       0.196  -4.856   1.149  0.00  0.00    +0.275 C 
ATOM     25  O   UNL     1       0.191  -4.257   2.208  0.00  0.00    -0.268 OA
ATOM     26  H   UNL     1       0.005  -4.657  -0.848  0.00  0.00    +0.155 HD
BRANCH  23  31
ATOM     27  C   UNL     1       0.098   1.496   0.016  0.00  0.00    +0.044 C 
ATOM     28  C   UNL     1       0.095  -0.011   0.010  0.00  0.00    -0.050 A 
ATOM     29  C   UNL     1      -0.532  -0.695  -1.016  0.00  0.00    +0.005 A 
ATOM     30  C   UNL     1      -0.536  -2.076  -1.025  0.00  0.00    +0.023 A 
ATOM     31  C   UNL     1       0.090  -2.778  -0.003  0.00  0.00    +0.034 A 
ATOM     32  C   UNL     1       0.718  -2.088   1.025  0.00  0.00    +0.023 A 
ATOM     33  C   UNL     1       0.724  -0.707   1.026  0.00  0.00    +0.005 A 
ENDBRANCH  23  31
ENDBRANCH  18  24
ENDBRANCH   1  21
TORSDOF 4
