REMARK  Name = ZINC20695981
REMARK  8 active torsions:
REMARK  status: ('A' for Active; 'I' for Inactive)
REMARK    1  A    between atoms: C_1  and  C_2
REMARK    2  A    between atoms: C_2  and  C_3
REMARK    3  A    between atoms: C_2  and  C_4
REMARK    4  A    between atoms: C_2  and  N_5
REMARK    5  A    between atoms: N_5  and  S_6
REMARK    6  A    between atoms: S_6  and  C_9
REMARK    7  A    between atoms: C_22  and  C_25
REMARK    8  A    between atoms: C_30  and  O_31
REMARK                            x       y       z     vdW  Elec       q    Type
REMARK                         _______ _______ _______ _____ _____    ______ ____
ROOT
ATOM      1  C   UNL     1       0.340   4.475  -0.665  0.00  0.00    +0.106 A 
ATOM      2  C   UNL     1       0.800   3.377   0.039  0.00  0.00    +0.030 A 
ATOM      3  C   UNL     1       0.279   2.127  -0.229  0.00  0.00    +0.025 A 
ATOM      4  C   UNL     1      -0.698   1.974  -1.205  0.00  0.00    +0.031 A 
ATOM      5  C   UNL     1      -1.167   3.074  -1.907  0.00  0.00    -0.018 A 
ATOM      6  C   UNL     1      -0.635   4.326  -1.630  0.00  0.00    +0.034 A 
ATOM      7  C   UNL     1      -2.224   2.960  -2.960  0.00  0.00    +0.049 C 
ATOM      8  C   UNL     1      -1.622   3.083  -4.352  0.00  0.00    -0.023 C 
ATOM      9  C   UNL     1      -2.244   2.287  -5.186  0.00  0.00    -0.030 C 
ATOM     10  C   UNL     1      -3.344   1.524  -4.472  0.00  0.00    +0.033 C 
ATOM     11  C   UNL     1      -2.911   1.583  -2.977  0.00  0.00    +0.029 C 
ATOM     12  C   UNL     1      -1.879   0.474  -2.757  0.00  0.00    +0.108 C 
ATOM     13  N   UNL     1      -1.206   0.699  -1.474  0.00  0.00    -0.336 N 
ATOM     14  H   UNL     1      -1.112  -0.124  -0.750  0.00  0.00    +0.147 HD
ENDROOT
BRANCH  12  15
ATOM     15  C   UNL     1      -0.864   0.501  -3.871  0.00  0.00    +0.015 A 
ATOM     16  C   UNL     1       0.227   1.346  -3.791  0.00  0.00    +0.024 A 
ATOM     17  C   UNL     1       1.159   1.371  -4.813  0.00  0.00    +0.018 A 
ATOM     18  C   UNL     1       1.001   0.552  -5.917  0.00  0.00    +0.019 A 
ATOM     19  C   UNL     1      -0.087  -0.294  -6.000  0.00  0.00    +0.047 A 
ATOM     20  C   UNL     1      -1.020  -0.326  -4.973  0.00  0.00    +0.122 A 
ATOM     21 BR   UNL     1       2.650   2.529  -4.702  0.00  0.00    -0.050 Br
BRANCH  20  22
ATOM     22  O   UNL     1      -2.089  -1.162  -5.051  0.00  0.00    -0.506 OA
ATOM     23  H   UNL     1      -2.213  -1.817  -5.925  0.00  0.00    +0.292 HD
ENDBRANCH  20  22
ENDBRANCH  12  15
BRANCH   1  24
ATOM     24  S   UNL     1       1.002   6.073  -0.327  0.00  0.00    +0.059 S 
ATOM     25  O   UNL     1      -0.077   6.991  -0.433  0.00  0.00    -0.153 OA
ATOM     26  O   UNL     1       1.783   5.948   0.854  0.00  0.00    -0.153 OA
BRANCH  24  27
ATOM     27  N   UNL     1       2.054   6.436  -1.554  0.00  0.00    -0.185 NA
ATOM     28  H   UNL     1       1.890   7.345  -2.151  0.00  0.00    +0.149 HD
BRANCH  27  30
ATOM     29  C   UNL     1       2.997   4.182  -1.665  0.00  0.00    +0.029 C 
ATOM     30  C   UNL     1       3.302   5.681  -1.696  0.00  0.00    +0.032 C 
ATOM     31  C   UNL     1       3.965   6.039  -3.028  0.00  0.00    +0.029 C 
ATOM     32  C   UNL     1       4.246   6.034  -0.545  0.00  0.00    +0.029 C 
ENDBRANCH  27  30
ENDBRANCH  24  27
ENDBRANCH   1  24
TORSDOF 5
