REMARK  Name = ZINC13154799
REMARK  6 active torsions:
REMARK  status: ('A' for Active; 'I' for Inactive)
REMARK    1  A    between atoms: C_1  and  C_2
REMARK    2  A    between atoms: C_2  and  C_22
REMARK    3  A    between atoms: N_3  and  N_4
REMARK    4  A    between atoms: C_5  and  S_7
REMARK    5  A    between atoms: S_7  and  C_8
REMARK    6  A    between atoms: N_13  and  C_16
REMARK                            x       y       z     vdW  Elec       q    Type
REMARK                         _______ _______ _______ _____ _____    ______ ____
ROOT
ATOM      1  N   UNL     1      -0.323   0.892   2.604  0.00  0.00    -0.259 N 
ATOM      2  C   UNL     1      -0.244   0.024   3.593  0.00  0.00    +0.146 C 
ATOM      3  N   UNL     1      -0.304  -1.324   3.330  0.00  0.00    -0.338 N 
ATOM      4  H   UNL     1      -0.405  -1.636   2.417  0.00  0.00    +0.144 HD
ATOM      5  H   UNL     1      -0.247  -1.963   4.058  0.00  0.00    +0.144 HD
ATOM      6  H   UNL     1      -0.281   1.843   2.790  0.00  0.00    +0.191 HD
ENDROOT
BRANCH   1   9
ATOM      7  C   UNL     1      -0.480   2.780   0.593  0.00  0.00    +0.068 C 
ATOM      8  C   UNL     1      -0.545   1.302   0.305  0.00  0.00    +0.072 C 
ATOM      9  N   UNL     1      -0.468   0.441   1.286  0.00  0.00    -0.176 NA
BRANCH   8  10
ATOM     10  C   UNL     1      -0.697   0.831  -1.072  0.00  0.00    +0.035 A 
ATOM     11  C   UNL     1      -0.783  -0.469  -1.547  0.00  0.00    +0.017 A 
ATOM     12  C   UNL     1      -0.924  -0.660  -2.902  0.00  0.00    +0.008 A 
ATOM     13  C   UNL     1      -0.974   0.419  -3.725  0.00  0.00    +0.046 A 
ATOM     14  S   UNL     1      -0.826   1.780  -2.579  0.00  0.00    -0.095 S 
ENDBRANCH   8  10
ENDBRANCH   1   9
BRANCH   2  15
ATOM     15  S   UNL     1      -0.062   0.592   5.251  0.00  0.00    -0.078 S 
BRANCH  15  16
ATOM     16  C   UNL     1      -0.001  -0.933   6.232  0.00  0.00    +0.149 C 
ATOM     17  C   UNL     1       0.230  -0.610   7.722  0.00  0.00    +0.120 C 
ATOM     18  C   UNL     1      -1.009  -1.155   8.399  0.00  0.00    +0.228 C 
ATOM     19  O   UNL     1      -1.236  -1.109   9.589  0.00  0.00    -0.275 OA
ATOM     20  N   UNL     1      -1.813  -1.695   7.476  0.00  0.00    -0.209 N 
ATOM     21  C   UNL     1      -1.345  -1.628   6.220  0.00  0.00    +0.240 C 
ATOM     22  O   UNL     1      -1.907  -2.054   5.234  0.00  0.00    -0.274 OA
BRANCH  20  23
ATOM     23  C   UNL     1      -3.045  -2.285   7.795  0.00  0.00    +0.044 A 
ATOM     24  C   UNL     1      -3.220  -3.654   7.643  0.00  0.00    +0.024 A 
ATOM     25  C   UNL     1      -4.434  -4.233   7.958  0.00  0.00    +0.002 A 
ATOM     26  C   UNL     1      -5.474  -3.450   8.424  0.00  0.00    +0.000 A 
ATOM     27  C   UNL     1      -5.303  -2.086   8.576  0.00  0.00    +0.002 A 
ATOM     28  C   UNL     1      -4.089  -1.503   8.268  0.00  0.00    +0.024 A 
ENDBRANCH  20  23
ENDBRANCH  15  16
ENDBRANCH   2  15
TORSDOF 5
