REMARK  Name = ZINC67067101
REMARK  4 active torsions:
REMARK  status: ('A' for Active; 'I' for Inactive)
REMARK    1  A    between atoms: C_3  and  C_11
REMARK    2  A    between atoms: N_19  and  N_20
REMARK    3  A    between atoms: C_21  and  C_23
REMARK    4  A    between atoms: C_26  and  C_29
REMARK                            x       y       z     vdW  Elec       q    Type
REMARK                         _______ _______ _______ _____ _____    ______ ____
ROOT
ATOM      1  C   UNL     1       3.668   2.195  -0.024  0.00  0.00    +0.111 C 
ATOM      2  C   UNL     1       4.165   2.372  -1.474  0.00  0.00    +0.029 C 
ATOM      3  C   UNL     1       4.738   3.814  -1.471  0.00  0.00    +0.021 C 
ATOM      4  C   UNL     1       3.760   4.535  -0.511  0.00  0.00    +0.110 C 
ATOM      5  N   UNL     1       3.449   3.538   0.533  0.00  0.00    -0.277 N 
ATOM      6  C   UNL     1       3.034   3.810   1.786  0.00  0.00    +0.319 C 
ATOM      7  O   UNL     1       2.720   2.904   2.534  0.00  0.00    -0.251 OA
ATOM      8  N   UNL     1       2.965   5.088   2.210  0.00  0.00    -0.218 N 
ATOM      9  H   UNL     1       3.144   5.814   1.593  0.00  0.00    +0.174 HD
ENDROOT
BRANCH   1  12
ATOM     10  C   UNL     1      -0.020   1.384   0.006  0.00  0.00    +0.004 A 
ATOM     11  C   UNL     1       1.168   2.092  -0.000  0.00  0.00    +0.009 A 
ATOM     12  C   UNL     1       2.375   1.420  -0.016  0.00  0.00    +0.018 A 
ATOM     13  C   UNL     1       2.399   0.033  -0.026  0.00  0.00    +0.167 A 
ATOM     14  C   UNL     1       1.205  -0.678  -0.017  0.00  0.00    +0.162 A 
ATOM     15  C   UNL     1      -0.004   0.002  -0.003  0.00  0.00    +0.049 A 
ATOM     16  O   UNL     1       1.205  -2.039  -0.018  0.00  0.00    -0.485 OA
ATOM     17  C   UNL     1       2.423  -2.682  -0.408  0.00  0.00    +0.270 C 
ATOM     18  C   UNL     1       3.585  -1.998   0.325  0.00  0.00    +0.270 C 
ATOM     19  O   UNL     1       3.595  -0.615  -0.045  0.00  0.00    -0.485 OA
ENDBRANCH   1  12
BRANCH   8  20
ATOM     20  N   UNL     1       2.635   5.366   3.543  0.00  0.00    -0.229 N 
ATOM     21  C   UNL     1       2.467   6.642   3.943  0.00  0.00    +0.260 C 
ATOM     22  O   UNL     1       2.603   7.551   3.148  0.00  0.00    -0.269 OA
ATOM     23  H   UNL     1       2.527   4.641   4.178  0.00  0.00    +0.173 HD
BRANCH  21  24
ATOM     24  C   UNL     1       2.119   6.937   5.350  0.00  0.00    +0.038 A 
ATOM     25  C   UNL     1       1.969   5.893   6.265  0.00  0.00    +0.014 A 
ATOM     26  C   UNL     1       1.645   6.166   7.575  0.00  0.00    +0.019 A 
ATOM     27  C   UNL     1       1.465   7.488   7.989  0.00  0.00    +0.052 A 
ATOM     28  C   UNL     1       1.615   8.533   7.073  0.00  0.00    +0.019 A 
ATOM     29  C   UNL     1       1.945   8.259   5.764  0.00  0.00    +0.014 A 
BRANCH  27  30
ATOM     30  C   UNL     1       1.127   7.773   9.351  0.00  0.00    +0.099 C 
ATOM     31  N   UNL     1       0.859   7.999  10.431  0.00  0.00    -0.191 NA
ENDBRANCH  27  30
ENDBRANCH  21  24
ENDBRANCH   8  20
TORSDOF 4
