REMARK  Name = ZINC00825848
REMARK  10 active torsions:
REMARK  status: ('A' for Active; 'I' for Inactive)
REMARK    1  A    between atoms: C_1  and  C_2
REMARK    2  A    between atoms: C_3  and  C_25
REMARK    3  A    between atoms: C_4  and  C_16
REMARK    4  A    between atoms: C_10  and  C_14
REMARK    5  A    between atoms: C_10  and  C_15
REMARK    6  A    between atoms: C_21  and  O_22
REMARK    7  A    between atoms: C_25  and  O_27
REMARK    8  A    between atoms: O_27  and  C_28
REMARK    9  A    between atoms: C_28  and  C_29
REMARK   10  A    between atoms: C_28  and  C_30
REMARK                            x       y       z     vdW  Elec       q    Type
REMARK                         _______ _______ _______ _____ _____    ______ ____
ROOT
ATOM      1  C   UNL     1      -0.018   1.503   0.010  0.00  0.00    +0.061 C 
ATOM      2  C   UNL     1       0.002  -0.004   0.002  0.00  0.00    +0.016 C 
ATOM      3  C   UNL     1      -1.155  -0.688   0.004  0.00  0.00    +0.065 C 
ATOM      4  C   UNL     1      -1.174  -2.188   0.005  0.00  0.00    +0.096 C 
ATOM      5  C   UNL     1       0.160  -2.746  -0.422  0.00  0.00    +0.024 C 
ATOM      6  C   UNL     1       1.267  -1.974  -0.410  0.00  0.00    +0.016 C 
ATOM      7  N   UNL     1       1.198  -0.667  -0.013  0.00  0.00    -0.321 N 
ATOM      8  C   UNL     1       2.604  -2.524  -0.842  0.00  0.00    +0.058 C 
ATOM      9  C   UNL     1       2.670  -4.019  -0.526  0.00  0.00    -0.023 C 
ATOM     10  C   UNL     1       1.517  -4.721  -1.252  0.00  0.00    +0.086 C 
ATOM     11  C   UNL     1       0.218  -4.091  -0.830  0.00  0.00    +0.162 C 
ATOM     12  O   UNL     1      -0.799  -4.755  -0.843  0.00  0.00    -0.292 OA
ATOM     13  C   UNL     1       4.005  -4.588  -1.012  0.00  0.00    +0.011 C 
ATOM     14  C   UNL     1       2.534  -4.233   0.982  0.00  0.00    +0.011 C 
ATOM     15  H   UNL     1       2.005  -0.207   0.265  0.00  0.00    +0.152 HD
ENDROOT
BRANCH   4  16
ATOM     16  C   UNL     1      -1.492  -2.678   1.395  0.00  0.00    +0.008 A 
ATOM     17  C   UNL     1      -0.666  -2.344   2.451  0.00  0.00    +0.023 A 
ATOM     18  C   UNL     1      -0.956  -2.793   3.726  0.00  0.00    +0.019 A 
ATOM     19  C   UNL     1      -2.075  -3.577   3.948  0.00  0.00    +0.034 A 
ATOM     20  C   UNL     1      -2.903  -3.913   2.894  0.00  0.00    +0.061 A 
ATOM     21  C   UNL     1      -2.616  -3.458   1.615  0.00  0.00    +0.135 A 
ATOM     22 BR   UNL     1      -4.431  -4.986   3.197  0.00  0.00    -0.046 Br
ATOM     23 BR   UNL     1       0.176  -2.335   5.170  0.00  0.00    -0.050 Br
BRANCH  21  24
ATOM     24  O   UNL     1      -3.433  -3.783   0.578  0.00  0.00    -0.505 OA
ATOM     25  H   UNL     1      -3.193  -4.605   0.130  0.00  0.00    +0.292 HD
ENDBRANCH  21  24
ENDBRANCH   4  16
BRANCH   3  26
ATOM     26  C   UNL     1      -2.380   0.021   0.005  0.00  0.00    +0.338 C 
ATOM     27  O   UNL     1      -2.378   1.238   0.004  0.00  0.00    -0.245 OA
BRANCH  26  28
ATOM     28  O   UNL     1      -3.549  -0.652   0.007  0.00  0.00    -0.459 OA
BRANCH  28  29
ATOM     29  C   UNL     1      -4.747   0.128   0.008  0.00  0.00    +0.171 C 
ATOM     30  C   UNL     1      -5.856  -0.641  -0.711  0.00  0.00    +0.052 C 
ATOM     31  C   UNL     1      -5.172   0.407   1.451  0.00  0.00    +0.052 C 
ENDBRANCH  28  29
ENDBRANCH  26  28
ENDBRANCH   3  26
TORSDOF 5
