REMARK  Name = ZINC31382302
REMARK  15 active torsions:
REMARK  status: ('A' for Active; 'I' for Inactive)
REMARK    1  A    between atoms: C_1  and  C_2
REMARK    2  A    between atoms: C_2  and  N_3
REMARK    3  A    between atoms: N_3  and  C_4
REMARK    4  A    between atoms: N_3  and  C_6
REMARK    5  A    between atoms: C_4  and  C_5
REMARK    6  A    between atoms: C_6  and  C_8
REMARK    7  A    between atoms: C_6  and  C_30
REMARK    8  A    between atoms: C_8  and  N_9
REMARK    9  A    between atoms: C_10  and  C_12
REMARK   10  A    between atoms: C_14  and  S_19
REMARK   11  A    between atoms: C_17  and  C_18
REMARK   12  A    between atoms: S_19  and  N_22
REMARK   13  A    between atoms: N_22  and  C_23
REMARK   14  A    between atoms: C_30  and  C_31
REMARK   15  A    between atoms: C_30  and  C_32
REMARK                            x       y       z     vdW  Elec       q    Type
REMARK                         _______ _______ _______ _____ _____    ______ ____
ROOT
ATOM      1  C   UNL     1       0.467   4.130  -3.718  0.00  0.00    +0.041 A 
ATOM      2  C   UNL     1      -0.862   4.526  -3.551  0.00  0.00    +0.042 A 
ATOM      3  C   UNL     1      -1.360   5.584  -4.282  0.00  0.00    +0.109 A 
ATOM      4  C   UNL     1      -0.546   6.253  -5.179  0.00  0.00    +0.029 A 
ATOM      5  C   UNL     1       0.771   5.866  -5.349  0.00  0.00    +0.006 A 
ATOM      6  C   UNL     1       1.283   4.812  -4.621  0.00  0.00    -0.038 A 
ATOM      7  C   UNL     1       2.720   4.395  -4.803  0.00  0.00    +0.044 C 
ENDROOT
BRANCH   1   9
ATOM      8  N   UNL     1       0.242   2.394  -2.006  0.00  0.00    -0.313 N 
ATOM      9  C   UNL     1       1.007   2.996  -2.937  0.00  0.00    +0.244 C 
ATOM     10  O   UNL     1       2.142   2.608  -3.136  0.00  0.00    -0.270 OA
ATOM     11  H   UNL     1      -0.785   2.745  -1.827  0.00  0.00    +0.149 HD
BRANCH   8  12
ATOM     12  C   UNL     1       0.778   1.271  -1.232  0.00  0.00    +0.089 C 
BRANCH  12  13
ATOM     13  C   UNL     1      -0.241   0.851  -0.171  0.00  0.00    -0.049 C 
BRANCH  13  14
ATOM     14  C   UNL     1       0.370  -0.230   0.723  0.00  0.00    -0.029 C 
ATOM     15  C   UNL     1       0.710  -1.459  -0.123  0.00  0.00    +0.005 C 
ATOM     16  C   UNL     1       1.646   0.308   1.375  0.00  0.00    +0.005 C 
ENDBRANCH  13  14
BRANCH  13  17
ATOM     17  N   UNL     1      -0.603   2.015   0.648  0.00  0.00    +0.382 N 
ATOM     18  H   UNL     1      -1.302   2.634   0.065  0.00  0.00    -0.081 HD
BRANCH  17  20
ATOM     19  C   UNL     1      -2.613   0.925   1.526  0.00  0.00    -0.017 C 
ATOM     20  C   UNL     1      -1.287   1.601   1.880  0.00  0.00    -0.082 C 
ENDBRANCH  17  20
BRANCH  17  21
ATOM     21  C   UNL     1       0.578   2.834   0.951  0.00  0.00    -0.082 C 
ATOM     22  C   UNL     1       0.131   4.214   1.437  0.00  0.00    -0.017 C 
ENDBRANCH  17  21
ENDBRANCH  13  17
ENDBRANCH  12  13
ENDBRANCH   8  12
ENDBRANCH   1   9
BRANCH   3  23
ATOM     23  S   UNL     1      -3.036   6.085  -4.073  0.00  0.00    +0.072 S 
ATOM     24  O   UNL     1      -3.442   6.669  -5.303  0.00  0.00    -0.150 OA
ATOM     25  O   UNL     1      -3.719   4.984  -3.489  0.00  0.00    -0.150 OA
BRANCH  23  26
ATOM     26  N   UNL     1      -3.047   7.300  -2.947  0.00  0.00    -0.216 N 
ATOM     27  H   UNL     1      -3.545   7.147  -1.978  0.00  0.00    +0.174 HD
BRANCH  26  28
ATOM     28  C   UNL     1      -2.422   8.519  -3.227  0.00  0.00    +0.048 A 
ATOM     29  C   UNL     1      -1.209   8.833  -2.630  0.00  0.00    +0.027 A 
ATOM     30  C   UNL     1      -0.592  10.036  -2.912  0.00  0.00    +0.040 A 
ATOM     31  C   UNL     1      -1.187  10.933  -3.782  0.00  0.00    +0.124 A 
ATOM     32  C   UNL     1      -2.400  10.624  -4.375  0.00  0.00    +0.040 A 
ATOM     33  C   UNL     1      -3.018   9.420  -4.100  0.00  0.00    +0.027 A 
ATOM     34  F   UNL     1      -0.584  12.111  -4.053  0.00  0.00    -0.205 F 
ENDBRANCH  26  28
ENDBRANCH  23  26
ENDBRANCH   3  23
TORSDOF 10
