REMARK  Name = ZINC27549385
REMARK  15 active torsions:
REMARK  status: ('A' for Active; 'I' for Inactive)
REMARK    1  A    between atoms: C_1  and  C_2
REMARK    2  A    between atoms: C_2  and  C_3
REMARK    3  A    between atoms: C_3  and  C_4
REMARK    4  A    between atoms: C_4  and  C_5
REMARK    5  A    between atoms: C_11  and  C_12
REMARK    6  A    between atoms: C_15  and  O_20
REMARK    7  A    between atoms: C_16  and  O_18
REMARK    8  A    between atoms: O_18  and  C_19
REMARK    9  A    between atoms: O_20  and  C_21
REMARK   10  A    between atoms: C_21  and  C_22
REMARK   11  A    between atoms: C_22  and  O_23
REMARK   12  A    between atoms: O_23  and  C_24
REMARK   13  A    between atoms: C_26  and  C_32
REMARK   14  A    between atoms: C_28  and  C_30
REMARK   15  A    between atoms: C_30  and  C_31
REMARK                            x       y       z     vdW  Elec       q    Type
REMARK                         _______ _______ _______ _____ _____    ______ ____
ROOT
ATOM      1  C   UNL     1      -9.764  -3.025   1.561  0.00  0.00    -0.021 A 
ATOM      2  C   UNL     1      -9.720  -4.423   1.455  0.00  0.00    +0.012 A 
ATOM      3  C   UNL     1     -10.790  -5.178   1.878  0.00  0.00    +0.050 A 
ATOM      4  C   UNL     1     -11.915  -4.559   2.411  0.00  0.00    +0.162 A 
ATOM      5  C   UNL     1     -11.966  -3.169   2.521  0.00  0.00    +0.162 A 
ATOM      6  C   UNL     1     -10.897  -2.403   2.104  0.00  0.00    +0.057 A 
ENDROOT
BRANCH   1  13
ATOM      7  C   UNL     1      -3.587  -3.396  -1.752  0.00  0.00    +0.100 C 
ATOM      8  N   UNL     1      -4.354  -2.584  -1.081  0.00  0.00    -0.169 NA
ATOM      9  N   UNL     1      -5.716  -2.781  -1.011  0.00  0.00    -0.152 N 
ATOM     10  C   UNL     1      -6.644  -1.917  -0.391  0.00  0.00    +0.152 C 
ATOM     11  N   UNL     1      -6.412  -0.650  -0.176  0.00  0.00    -0.283 NA
ATOM     12  C   UNL     1      -7.915  -2.594  -0.006  0.00  0.00    +0.081 C 
ATOM     13  C   UNL     1      -8.627  -2.219   1.112  0.00  0.00    +0.024 C 
ATOM     14  C   UNL     1      -8.373  -3.693  -0.891  0.00  0.00    +0.273 C 
ATOM     15  O   UNL     1      -9.553  -3.998  -0.955  0.00  0.00    -0.268 OA
ATOM     16  N   UNL     1      -7.448  -4.345  -1.623  0.00  0.00    -0.152 NA
ATOM     17  C   UNL     1      -6.213  -3.910  -1.628  0.00  0.00    +0.181 C 
ATOM     18  S   UNL     1      -4.760  -4.587  -2.387  0.00  0.00    -0.038 S 
ATOM     19  H   UNL     1      -5.567  -0.259  -0.447  0.00  0.00    +0.188 HD
BRANCH   7  20
ATOM     20  C   UNL     1      -2.094  -3.342  -1.947  0.00  0.00    +0.064 C 
BRANCH  20  21
ATOM     21  C   UNL     1      -1.526  -2.131  -1.204  0.00  0.00    +0.006 C 
BRANCH  21  23
ATOM     22  C   UNL     1       0.558  -0.865  -0.660  0.00  0.00    +0.004 C 
ATOM     23  C   UNL     1      -0.010  -2.076  -1.403  0.00  0.00    -0.003 C 
ENDBRANCH  21  23
ENDBRANCH  20  21
ENDBRANCH   7  20
ENDBRANCH   1  13
BRANCH   5  24
ATOM     24  O   UNL     1     -13.070  -2.569   3.042  0.00  0.00    -0.491 OA
ATOM     25  C   UNL     1     -13.055  -1.143   3.125  0.00  0.00    +0.277 C 
ENDBRANCH   5  24
BRANCH   4  26
ATOM     26  O   UNL     1     -12.967  -5.310   2.826  0.00  0.00    -0.485 OA
BRANCH  26  27
ATOM     27  C   UNL     1     -12.849  -6.727   2.685  0.00  0.00    +0.270 C 
BRANCH  27  28
ATOM     28  C   UNL     1     -14.122  -7.399   3.202  0.00  0.00    +0.270 C 
BRANCH  28  29
ATOM     29  O   UNL     1     -15.226  -7.028   2.374  0.00  0.00    -0.489 OA
BRANCH  29  30
ATOM     30  C   UNL     1     -16.442  -7.543   2.699  0.00  0.00    +0.121 A 
ATOM     31  C   UNL     1     -16.569  -8.384   3.795  0.00  0.00    +0.049 A 
ATOM     32  C   UNL     1     -17.805  -8.906   4.123  0.00  0.00    -0.047 A 
ATOM     33  C   UNL     1     -18.915  -8.591   3.361  0.00  0.00    +0.007 A 
ATOM     34  C   UNL     1     -18.790  -7.754   2.268  0.00  0.00    -0.044 A 
ATOM     35  C   UNL     1     -17.557  -7.224   1.938  0.00  0.00    +0.049 A 
ATOM     36  C   UNL     1     -17.945  -9.820   5.313  0.00  0.00    +0.044 C 
BRANCH  34  37
ATOM     37  C   UNL     1     -20.001  -7.413   1.438  0.00  0.00    +0.032 C 
ATOM     38  C   UNL     1     -20.669  -6.157   2.002  0.00  0.00    +0.009 C 
ENDBRANCH  34  37
ENDBRANCH  29  30
ENDBRANCH  28  29
ENDBRANCH  27  28
ENDBRANCH  26  27
ENDBRANCH   4  26
TORSDOF 11
