REMARK  Name = ZINC09010261
REMARK  9 active torsions:
REMARK  status: ('A' for Active; 'I' for Inactive)
REMARK    1  A    between atoms: C_1  and  C_2
REMARK    2  A    between atoms: C_2  and  C_14
REMARK    3  A    between atoms: N_3  and  N_4
REMARK    4  A    between atoms: C_5  and  C_7
REMARK    5  A    between atoms: C_12  and  O_13
REMARK    6  A    between atoms: C_27  and  C_30
REMARK    7  A    between atoms: C_33  and  C_36
REMARK    8  A    between atoms: C_36  and  O_38
REMARK    9  A    between atoms: O_38  and  C_39
REMARK                            x       y       z     vdW  Elec       q    Type
REMARK                         _______ _______ _______ _____ _____    ______ ____
ROOT
ATOM      1  C   UNL     1       1.185   1.796   0.000  0.00  0.00    -0.002 A 
ATOM      2  C   UNL     1      -0.013   1.076   0.008  0.00  0.00    +0.011 A 
ATOM      3  C   UNL     1      -1.211   1.753   0.017  0.00  0.00    +0.024 A 
ATOM      4  C   UNL     1      -1.230   3.144   0.032  0.00  0.00    +0.031 A 
ATOM      5  C   UNL     1      -0.046   3.870   0.025  0.00  0.00    -0.019 A 
ATOM      6  C   UNL     1       1.160   3.191   0.008  0.00  0.00    +0.015 A 
ATOM      7  C   UNL     1      -0.025   5.366   0.035  0.00  0.00    +0.049 C 
ATOM      8  C   UNL     1       0.357   5.902   1.395  0.00  0.00    -0.023 C 
ATOM      9  C   UNL     1      -0.312   6.998   1.654  0.00  0.00    -0.030 C 
ATOM     10  C   UNL     1      -1.229   7.347   0.497  0.00  0.00    +0.033 C 
ATOM     11  C   UNL     1      -1.406   5.989  -0.244  0.00  0.00    +0.029 C 
ATOM     12  C   UNL     1      -2.492   5.204   0.497  0.00  0.00    +0.105 C 
ATOM     13  N   UNL     1      -2.459   3.809   0.049  0.00  0.00    -0.336 N 
ATOM     14  H   UNL     1      -3.272   3.357  -0.228  0.00  0.00    +0.147 HD
ENDROOT
BRANCH  12  15
ATOM     15  C   UNL     1      -2.234   5.264   1.981  0.00  0.00    -0.027 A 
ATOM     16  C   UNL     1      -1.293   4.424   2.551  0.00  0.00    +0.006 A 
ATOM     17  C   UNL     1      -1.048   4.477   3.907  0.00  0.00    +0.015 A 
ATOM     18  C   UNL     1      -1.760   5.373   4.707  0.00  0.00    +0.059 A 
ATOM     19  C   UNL     1      -2.711   6.214   4.127  0.00  0.00    +0.015 A 
ATOM     20  C   UNL     1      -2.942   6.155   2.768  0.00  0.00    +0.006 A 
BRANCH  18  21
ATOM     21  C   UNL     1      -1.507   5.431   6.162  0.00  0.00    +0.339 C 
ATOM     22  O   UNL     1      -2.128   6.211   6.855  0.00  0.00    -0.245 OA
BRANCH  21  23
ATOM     23  O   UNL     1      -0.588   4.619   6.719  0.00  0.00    -0.464 OA
ATOM     24  C   UNL     1      -0.393   4.730   8.153  0.00  0.00    +0.280 C 
ENDBRANCH  21  23
ENDBRANCH  18  21
ENDBRANCH  12  15
BRANCH   1  26
ATOM     25  C   UNL     1       2.502  -0.424  -0.024  0.00  0.00    +0.068 C 
ATOM     26  C   UNL     1       2.475   1.082  -0.015  0.00  0.00    +0.063 C 
ATOM     27  N   UNL     1       3.587   1.752  -0.023  0.00  0.00    -0.184 NA
BRANCH  27  28
ATOM     28  N   UNL     1       4.813   1.073  -0.038  0.00  0.00    -0.203 N 
ATOM     29  C   UNL     1       5.968   1.768  -0.045  0.00  0.00    +0.267 C 
ATOM     30  O   UNL     1       5.946   2.984  -0.038  0.00  0.00    -0.268 OA
ATOM     31  H   UNL     1       4.830   0.103  -0.043  0.00  0.00    +0.178 HD
BRANCH  29  32
ATOM     32  C   UNL     1       7.258   1.054  -0.061  0.00  0.00    +0.080 A 
ATOM     33  C   UNL     1       7.288  -0.343  -0.069  0.00  0.00    +0.017 A 
ATOM     34  C   UNL     1       8.497  -1.004  -0.084  0.00  0.00    +0.001 A 
ATOM     35  C   UNL     1       9.684  -0.291  -0.092  0.00  0.00    +0.004 A 
ATOM     36  C   UNL     1       9.669   1.090  -0.085  0.00  0.00    +0.046 A 
ATOM     37  C   UNL     1       8.461   1.772  -0.074  0.00  0.00    +0.129 A 
BRANCH  37  38
ATOM     38  O   UNL     1       8.445   3.129  -0.073  0.00  0.00    -0.506 OA
ATOM     39  H   UNL     1       8.451   3.521   0.811  0.00  0.00    +0.292 HD
ENDBRANCH  37  38
ENDBRANCH  29  32
ENDBRANCH  27  28
ENDBRANCH   1  26
TORSDOF 7
