REMARK  Name = ZINC18210644
REMARK  5 active torsions:
REMARK  status: ('A' for Active; 'I' for Inactive)
REMARK    1  A    between atoms: C_1  and  N_2
REMARK    2  A    between atoms: C_9  and  O_25
REMARK    3  A    between atoms: C_11  and  C_13
REMARK    4  A    between atoms: N_19  and  C_22
REMARK    5  A    between atoms: O_25  and  C_26
REMARK                            x       y       z     vdW  Elec       q    Type
REMARK                         _______ _______ _______ _____ _____    ______ ____
ROOT
ATOM      1  C   UNL     1      -0.159  -1.486  -2.419  0.00  0.00    -0.095 C 
ATOM      2  N   UNL     1      -0.334  -2.114  -1.103  0.00  0.00    +0.386 N 
ATOM      3  C   UNL     1      -1.447  -3.076  -1.122  0.00  0.00    -0.073 C 
ATOM      4  C   UNL     1      -1.353  -3.952   0.128  0.00  0.00    +0.017 C 
ATOM      5  C   UNL     1      -1.207  -3.086   1.353  0.00  0.00    -0.040 A 
ATOM      6  C   UNL     1      -1.459  -3.651   2.594  0.00  0.00    +0.053 A 
ATOM      7  C   UNL     1      -1.336  -2.897   3.749  0.00  0.00    +0.170 A 
ATOM      8  C   UNL     1      -0.955  -1.562   3.662  0.00  0.00    +0.208 A 
ATOM      9  C   UNL     1      -0.705  -0.999   2.419  0.00  0.00    +0.167 A 
ATOM     10  C   UNL     1      -0.832  -1.763   1.262  0.00  0.00    -0.008 A 
ATOM     11  C   UNL     1      -0.553  -1.104  -0.063  0.00  0.00    +0.008 C 
ATOM     12  O   UNL     1      -0.904  -1.040   4.923  0.00  0.00    -0.449 OA
ATOM     13  C   UNL     1      -1.652  -1.953   5.748  0.00  0.00    +0.467 C 
ATOM     14  O   UNL     1      -1.525  -3.213   5.063  0.00  0.00    -0.452 OA
ATOM     15  H   UNL     1       0.594  -2.657  -0.866  0.00  0.00    -0.081 HD
ENDROOT
BRANCH  11  16
ATOM     16  C   UNL     1       0.676  -0.241   0.059  0.00  0.00    +0.072 A 
ATOM     17  C   UNL     1       1.923  -0.815   0.366  0.00  0.00    +0.258 A 
ATOM     18  O   UNL     1       2.019  -2.018   0.537  0.00  0.00    -0.267 OA
ATOM     19  N   UNL     1       3.010  -0.025   0.471  0.00  0.00    -0.302 N 
ATOM     20  C   UNL     1       2.909   1.303   0.284  0.00  0.00    +0.164 A 
ATOM     21  S   UNL     1       4.307   2.283   0.422  0.00  0.00    -0.013 S 
ATOM     22  N   UNL     1       1.727   1.874  -0.011  0.00  0.00    -0.285 N 
ATOM     23  C   UNL     1       0.595   1.107  -0.127  0.00  0.00    +0.260 A 
ATOM     24  O   UNL     1      -0.588   1.683  -0.429  0.00  0.00    -0.267 OA
ATOM     25  H   UNL     1       3.985  -0.475   0.712  0.00  0.00    +0.171 HD
BRANCH  22  26
ATOM     26  C   UNL     1       1.648   3.323  -0.209  0.00  0.00    +0.093 C 
ATOM     27  C   UNL     1       0.886   3.828  -1.437  0.00  0.00    +0.027 C 
ATOM     28  C   UNL     1       2.413   3.917  -1.393  0.00  0.00    +0.027 C 
ENDBRANCH  22  26
ENDBRANCH  11  16
BRANCH   9  29
ATOM     29  O   UNL     1      -0.332   0.306   2.331  0.00  0.00    -0.491 OA
ATOM     30  C   UNL     1      -1.377   1.281   2.341  0.00  0.00    +0.277 C 
ENDBRANCH   9  29
TORSDOF 3
