REMARK  Name = ZINC33063356
REMARK  6 active torsions:
REMARK  status: ('A' for Active; 'I' for Inactive)
REMARK    1  A    between atoms: C_3  and  C_24
REMARK    2  A    between atoms: C_6  and  C_7
REMARK    3  A    between atoms: C_12  and  C_20
REMARK    4  A    between atoms: N_26  and  C_27
REMARK    5  A    between atoms: C_27  and  C_28
REMARK    6  A    between atoms: C_28  and  C_29
REMARK                            x       y       z     vdW  Elec       q    Type
REMARK                         _______ _______ _______ _____ _____    ______ ____
ROOT
ATOM      1  C   UNL     1       0.055   5.743   2.711  0.00  0.00    +0.007 A 
ATOM      2  C   UNL     1       0.198   5.644   4.080  0.00  0.00    +0.013 A 
ATOM      3  C   UNL     1       1.456   5.814   4.661  0.00  0.00    +0.037 A 
ATOM      4  C   UNL     1       2.562   6.078   3.852  0.00  0.00    +0.013 A 
ATOM      5  C   UNL     1       2.406   6.169   2.484  0.00  0.00    +0.007 A 
ATOM      6  C   UNL     1       1.157   6.000   1.914  0.00  0.00    -0.011 A 
ENDROOT
BRANCH   6   7
ATOM      7  C   UNL     1       0.994   6.101   0.420  0.00  0.00    +0.191 C 
ATOM      8  N   UNL     1      -0.108   5.245  -0.013  0.00  0.00    -0.322 N 
ATOM      9  C   UNL     1      -0.050   3.854   0.010  0.00  0.00    +0.056 A 
ATOM     10  C   UNL     1      -1.242   3.131   0.024  0.00  0.00    +0.037 A 
ATOM     11  C   UNL     1      -1.219   1.753   0.017  0.00  0.00    +0.057 A 
ATOM     12  C   UNL     1      -0.013   1.076   0.008  0.00  0.00    +0.014 A 
ATOM     13  C   UNL     1       1.175   1.785   0.000  0.00  0.00    +0.031 A 
ATOM     14  C   UNL     1       1.155   3.164   0.008  0.00  0.00    +0.126 A 
ATOM     15  S   UNL     1       2.675   4.066   0.034  0.00  0.00    +0.062 S 
ATOM     16  O   UNL     1       3.173   4.002   1.363  0.00  0.00    -0.153 OA
ATOM     17  O   UNL     1       3.429   3.641  -1.093  0.00  0.00    -0.153 OA
ATOM     18  N   UNL     1       2.233   5.651  -0.245  0.00  0.00    -0.166 NA
ATOM     19  H   UNL     1      -1.043   5.694  -0.379  0.00  0.00    +0.148 HD
ATOM     20  H   UNL     1       2.712   6.287  -1.004  0.00  0.00    +0.150 HD
BRANCH  11  21
ATOM     21  C   UNL     1      -2.513   0.980   0.027  0.00  0.00    +0.417 C 
ATOM     22  F   UNL     1      -2.237  -0.392   0.024  0.00  0.00    -0.166 F 
ATOM     23  F   UNL     1      -3.243   1.306   1.175  0.00  0.00    -0.166 F 
ATOM     24  F   UNL     1      -3.260   1.308  -1.110  0.00  0.00    -0.166 F 
ENDBRANCH  11  21
ENDBRANCH   6   7
BRANCH   3  25
ATOM     25  C   UNL     1       1.616   5.715   6.128  0.00  0.00    +0.244 C 
ATOM     26  O   UNL     1       2.712   5.863   6.631  0.00  0.00    -0.270 OA
ATOM     27  N   UNL     1       0.545   5.459   6.906  0.00  0.00    -0.311 N 
ATOM     28  H   UNL     1      -0.447   5.324   6.451  0.00  0.00    +0.149 HD
BRANCH  27  29
ATOM     29  C   UNL     1       0.704   5.361   8.359  0.00  0.00    +0.109 C 
BRANCH  29  30
ATOM     30  C   UNL     1      -0.653   5.067   9.002  0.00  0.00    +0.049 C 
BRANCH  30  31
ATOM     31  C   UNL     1      -0.491   4.967  10.496  0.00  0.00    -0.072 C 
ATOM     32  C   UNL     1      -0.714   6.027  11.204  0.00  0.00    -0.028 C 
ATOM     33  C   UNL     1      -0.588   6.083  12.698  0.00  0.00    +0.027 C 
ATOM     34  C   UNL     1      -0.575   4.667  13.280  0.00  0.00    +0.004 C 
ATOM     35  C   UNL     1       0.445   3.830  12.499  0.00  0.00    +0.005 C 
ATOM     36  C   UNL     1      -0.074   3.644  11.071  0.00  0.00    +0.030 C 
ENDBRANCH  30  31
ENDBRANCH  29  30
ENDBRANCH  27  29
ENDBRANCH   3  25
TORSDOF 6
