REMARK  Name = ZINC09926763
REMARK  12 active torsions:
REMARK  status: ('A' for Active; 'I' for Inactive)
REMARK    1  A    between atoms: C_1  and  C_2
REMARK    2  A    between atoms: C_2  and  O_3
REMARK    3  A    between atoms: O_3  and  C_4
REMARK    4  A    between atoms: C_4  and  C_6
REMARK    5  A    between atoms: C_7  and  N_33
REMARK    6  A    between atoms: N_18  and  C_21
REMARK    7  A    between atoms: C_21  and  C_22
REMARK    8  A    between atoms: C_22  and  C_23
REMARK    9  A    between atoms: C_23  and  C_24
REMARK   10  A    between atoms: C_23  and  C_25
REMARK   11  A    between atoms: C_29  and  C_31
REMARK   12  A    between atoms: C_29  and  C_32
REMARK                            x       y       z     vdW  Elec       q    Type
REMARK                         _______ _______ _______ _____ _____    ______ ____
ROOT
ATOM      1  C   UNL     1       0.005  -0.009   0.021  0.00  0.00    +0.117 C 
ATOM      2  C   UNL     1      -0.014   1.338  -0.168  0.00  0.00    +0.195 C 
ATOM      3  O   UNL     1       1.120   2.053  -0.198  0.00  0.00    -0.446 OA
ATOM      4  C   UNL     1       2.241   1.567   0.367  0.00  0.00    +0.116 C 
ATOM      5  C   UNL     1       2.398   0.249   0.593  0.00  0.00    +0.057 C 
ATOM      6  C   UNL     1       1.311  -0.723   0.210  0.00  0.00    +0.141 C 
ATOM      7  C   UNL     1       1.691  -1.484  -1.022  0.00  0.00    -0.002 A 
ATOM      8  C   UNL     1       1.952  -1.066  -2.309  0.00  0.00    +0.007 A 
ATOM      9  C   UNL     1       2.283  -2.048  -3.236  0.00  0.00    +0.000 A 
ATOM     10  C   UNL     1       2.347  -3.380  -2.880  0.00  0.00    +0.002 A 
ATOM     11  C   UNL     1       2.086  -3.808  -1.588  0.00  0.00    +0.024 A 
ATOM     12  C   UNL     1       1.752  -2.832  -0.647  0.00  0.00    +0.041 A 
ATOM     13  N   UNL     1       1.447  -2.972   0.695  0.00  0.00    -0.270 N 
ATOM     14  C   UNL     1       1.175  -1.786   1.279  0.00  0.00    +0.240 C 
ATOM     15  O   UNL     1       0.876  -1.607   2.441  0.00  0.00    -0.274 OA
ATOM     16  C   UNL     1       3.568  -0.258   1.190  0.00  0.00    +0.165 C 
ATOM     17  O   UNL     1       3.680  -1.455   1.360  0.00  0.00    -0.292 OA
ATOM     18  C   UNL     1       4.681   0.657   1.622  0.00  0.00    +0.086 C 
ATOM     19  C   UNL     1       4.090   2.029   1.964  0.00  0.00    -0.021 C 
ATOM     20  C   UNL     1       3.329   2.547   0.742  0.00  0.00    +0.081 C 
ATOM     21  C   UNL     1       3.132   1.895   3.149  0.00  0.00    +0.012 C 
ATOM     22  C   UNL     1       5.218   3.000   2.321  0.00  0.00    +0.012 C 
ENDROOT
BRANCH   2  23
ATOM     23  N   UNL     1      -1.214   1.976  -0.336  0.00  0.00    -0.329 N 
ATOM     24  H   UNL     1      -2.032   1.459  -0.404  0.00  0.00    +0.145 HD
ATOM     25  H   UNL     1      -1.246   2.944  -0.386  0.00  0.00    +0.145 HD
ENDBRANCH   2  23
BRANCH   1  26
ATOM     26  C   UNL     1      -1.198  -0.731   0.040  0.00  0.00    +0.342 C 
ATOM     27  O   UNL     1      -1.546  -1.362  -0.943  0.00  0.00    -0.245 OA
BRANCH  26  28
ATOM     28  O   UNL     1      -1.971  -0.727   1.147  0.00  0.00    -0.462 OA
BRANCH  28  30
ATOM     29  C   UNL     1      -3.918  -1.359   2.432  0.00  0.00    +0.048 C 
ATOM     30  C   UNL     1      -3.182  -1.484   1.096  0.00  0.00    +0.229 C 
ENDBRANCH  28  30
ENDBRANCH  26  28
ENDBRANCH   1  26
BRANCH  13  31
ATOM     31  C   UNL     1       1.422  -4.256   1.399  0.00  0.00    +0.114 C 
BRANCH  31  32
ATOM     32  C   UNL     1       2.808  -4.548   1.977  0.00  0.00    +0.022 C 
BRANCH  32  33
ATOM     33  C   UNL     1       2.782  -5.889   2.712  0.00  0.00    -0.016 C 
ATOM     34  C   UNL     1       4.195  -6.240   3.183  0.00  0.00    +0.007 C 
ATOM     35  C   UNL     1       1.851  -5.790   3.922  0.00  0.00    +0.007 C 
ENDBRANCH  32  33
ENDBRANCH  31  32
ENDBRANCH  13  31
TORSDOF 7
