REMARK  Name = ZINC03341234
REMARK  9 active torsions:
REMARK  status: ('A' for Active; 'I' for Inactive)
REMARK    1  A    between atoms: C_1  and  O_2
REMARK    2  A    between atoms: O_2  and  C_3
REMARK    3  A    between atoms: C_5  and  O_30
REMARK    4  A    between atoms: C_8  and  N_9
REMARK    5  A    between atoms: N_9  and  S_10
REMARK    6  A    between atoms: S_10  and  C_13
REMARK    7  A    between atoms: C_15  and  C_21
REMARK    8  A    between atoms: N_23  and  C_24
REMARK    9  A    between atoms: O_30  and  C_31
REMARK                            x       y       z     vdW  Elec       q    Type
REMARK                         _______ _______ _______ _____ _____    ______ ____
ROOT
ATOM      1  C   UNL     1       0.717   7.289   3.887  0.00  0.00    +0.128 A 
ATOM      2  C   UNL     1       1.537   8.341   4.236  0.00  0.00    +0.044 A 
ATOM      3  C   UNL     1       2.855   8.095   4.625  0.00  0.00    +0.057 A 
ATOM      4  C   UNL     1       3.335   6.783   4.658  0.00  0.00    +0.055 A 
ATOM      5  C   UNL     1       2.503   5.739   4.306  0.00  0.00    +0.042 A 
ATOM      6  C   UNL     1       1.196   5.990   3.926  0.00  0.00    +0.069 A 
ATOM      7 CL   UNL     1       0.154   4.671   3.492  0.00  0.00    -0.081 Cl
ATOM      8 CL   UNL     1       4.972   6.467   5.141  0.00  0.00    -0.083 Cl
ENDROOT
BRANCH   3   9
ATOM      9  C   UNL     1       3.739   9.218   5.000  0.00  0.00    +0.246 C 
ATOM     10  O   UNL     1       4.887   9.001   5.338  0.00  0.00    -0.270 OA
ATOM     11  N   UNL     1       3.274  10.482   4.967  0.00  0.00    -0.308 N 
ATOM     12  H   UNL     1       2.358  10.655   4.697  0.00  0.00    +0.149 HD
BRANCH  11  13
ATOM     13  C   UNL     1       4.151  11.596   5.338  0.00  0.00    +0.073 C 
ATOM     14  C   UNL     1       4.078  11.840   6.860  0.00  0.00    +0.022 C 
ATOM     15  C   UNL     1       4.160  13.380   7.002  0.00  0.00    +0.002 C 
ATOM     16  C   UNL     1       3.325  13.879   5.796  0.00  0.00    +0.002 C 
ATOM     17  C   UNL     1       3.672  12.892   4.662  0.00  0.00    +0.022 C 
ENDBRANCH  11  13
ENDBRANCH   3   9
BRANCH   1  18
ATOM     18  S   UNL     1      -0.947   7.598   3.396  0.00  0.00    +0.074 S 
ATOM     19  O   UNL     1      -1.116   9.009   3.399  0.00  0.00    -0.150 OA
ATOM     20  O   UNL     1      -1.766   6.731   4.169  0.00  0.00    -0.150 OA
BRANCH  18  21
ATOM     21  N   UNL     1      -1.092   7.107   1.821  0.00  0.00    -0.213 N 
ATOM     22  H   UNL     1      -1.643   6.340   1.601  0.00  0.00    +0.174 HD
BRANCH  21  28
ATOM     23  C   UNL     1      -1.008   7.946  -0.448  0.00  0.00    +0.146 A 
ATOM     24  C   UNL     1      -0.340   8.631  -1.450  0.00  0.00    +0.094 A 
ATOM     25  C   UNL     1       0.913   9.172  -1.203  0.00  0.00    +0.142 A 
ATOM     26  C   UNL     1       1.501   9.022   0.045  0.00  0.00    +0.085 A 
ATOM     27  C   UNL     1       0.835   8.343   1.049  0.00  0.00    +0.051 A 
ATOM     28  C   UNL     1      -0.419   7.801   0.806  0.00  0.00    +0.091 A 
ATOM     29 CL   UNL     1       3.073   9.693   0.349  0.00  0.00    -0.080 Cl
BRANCH  23  31
ATOM     30  C   UNL     1      -2.780   7.604  -1.997  0.00  0.00    +0.277 C 
ATOM     31  O   UNL     1      -2.237   7.416  -0.689  0.00  0.00    -0.493 OA
ENDBRANCH  23  31
BRANCH  25  32
ATOM     32  O   UNL     1       1.568   9.845  -2.186  0.00  0.00    -0.494 OA
ATOM     33  C   UNL     1       0.907   9.956  -3.448  0.00  0.00    +0.277 C 
ENDBRANCH  25  32
ENDBRANCH  21  28
ENDBRANCH  18  21
ENDBRANCH   1  18
TORSDOF 7
