REMARK  Name = ZINC43218578
REMARK  7 active torsions:
REMARK  status: ('A' for Active; 'I' for Inactive)
REMARK    1  A    between atoms: C_1  and  C_2
REMARK    2  A    between atoms: C_2  and  C_38
REMARK    3  A    between atoms: C_7  and  C_10
REMARK    4  A    between atoms: C_14  and  O_16
REMARK    5  A    between atoms: O_16  and  C_17
REMARK    6  A    between atoms: C_21  and  C_23
REMARK    7  A    between atoms: N_29  and  C_32
REMARK                            x       y       z     vdW  Elec       q    Type
REMARK                         _______ _______ _______ _____ _____    ______ ____
ROOT
ATOM      1  C   UNL     1      -0.222   1.405  -0.115  0.00  0.00    +0.002 C 
ATOM      2  C   UNL     1      -0.203  -0.124  -0.084  0.00  0.00    +0.045 C 
ATOM      3  C   UNL     1      -1.633  -0.676   0.091  0.00  0.00    +0.086 C 
ATOM      4  C   UNL     1      -1.473  -1.914   1.013  0.00  0.00    +0.077 C 
ATOM      5  C   UNL     1       0.042  -2.003   1.296  0.00  0.00    -0.027 C 
ATOM      6  N   UNL     1       0.536  -0.608   1.110  0.00  0.00    +0.395 N 
ATOM      7  C   UNL     1      -2.206  -1.509   2.272  0.00  0.00    +0.225 C 
ATOM      8  O   UNL     1      -2.326  -2.195   3.264  0.00  0.00    -0.275 OA
ATOM      9  N   UNL     1      -2.700  -0.275   2.121  0.00  0.00    -0.239 N 
ATOM     10  C   UNL     1      -2.443   0.295   0.921  0.00  0.00    +0.225 C 
ATOM     11  O   UNL     1      -2.796   1.398   0.563  0.00  0.00    -0.275 OA
ATOM     12  H   UNL     1       1.530  -0.611   0.933  0.00  0.00    -0.083 HD
ATOM     13  H   UNL     1       0.321  -0.037   1.914  0.00  0.00    -0.083 HD
ENDROOT
BRANCH   5  14
ATOM     14  C   UNL     1       0.285  -2.448   2.715  0.00  0.00    -0.057 A 
ATOM     15  C   UNL     1       0.186  -1.538   3.751  0.00  0.00    +0.002 A 
ATOM     16  C   UNL     1       0.409  -1.942   5.054  0.00  0.00    +0.004 A 
ATOM     17  C   UNL     1       0.731  -3.259   5.324  0.00  0.00    +0.046 A 
ATOM     18  C   UNL     1       0.831  -4.174   4.287  0.00  0.00    +0.129 A 
ATOM     19  C   UNL     1       0.601  -3.766   2.980  0.00  0.00    +0.048 A 
BRANCH  18  20
ATOM     20  O   UNL     1       1.147  -5.469   4.550  0.00  0.00    -0.456 OA
BRANCH  20  21
ATOM     21  C   UNL     1       2.348  -5.933   4.114  0.00  0.00    +0.129 A 
ATOM     22  C   UNL     1       3.264  -5.062   3.541  0.00  0.00    +0.046 A 
ATOM     23  C   UNL     1       4.483  -5.536   3.099  0.00  0.00    +0.004 A 
ATOM     24  C   UNL     1       4.792  -6.878   3.227  0.00  0.00    +0.012 A 
ATOM     25  C   UNL     1       3.881  -7.748   3.796  0.00  0.00    +0.058 A 
ATOM     26  C   UNL     1       2.663  -7.278   4.246  0.00  0.00    +0.058 A 
BRANCH  25  27
ATOM     27  C   UNL     1       4.221  -9.210   3.933  0.00  0.00    +0.418 C 
ATOM     28  F   UNL     1       5.500  -9.442   3.417  0.00  0.00    -0.166 F 
ATOM     29  F   UNL     1       4.191  -9.572   5.285  0.00  0.00    -0.166 F 
ATOM     30  F   UNL     1       3.287  -9.974   3.225  0.00  0.00    -0.166 F 
ENDBRANCH  25  27
ENDBRANCH  20  21
ENDBRANCH  18  20
ENDBRANCH   5  14
BRANCH   9  31
ATOM     31  C   UNL     1      -3.466   0.406   3.168  0.00  0.00    +0.084 C 
ATOM     32  C   UNL     1      -2.602   0.548   4.422  0.00  0.00    +0.023 C 
ATOM     33  C   UNL     1      -3.402   1.258   5.515  0.00  0.00    +0.002 C 
ATOM     34  C   UNL     1      -4.651   0.440   5.847  0.00  0.00    +0.000 C 
ATOM     35  C   UNL     1      -5.516   0.297   4.593  0.00  0.00    +0.002 C 
ATOM     36  C   UNL     1      -4.715  -0.413   3.499  0.00  0.00    +0.023 C 
ENDBRANCH   9  31
BRANCH   2  37
ATOM     37  C   UNL     1       0.422  -0.666  -1.343  0.00  0.00    +0.346 C 
ATOM     38  O   UNL     1       1.430  -1.349  -1.279  0.00  0.00    -0.248 OA
ATOM     39  O   UNL     1      -0.081  -0.422  -2.427  0.00  0.00    -0.248 OA
ENDBRANCH   2  37
TORSDOF 6
