REMARK  Name = ZINC26964465
REMARK  4 active torsions:
REMARK  status: ('A' for Active; 'I' for Inactive)
REMARK    1  A    between atoms: C_3  and  C_6
REMARK    2  A    between atoms: C_12  and  C_14
REMARK    3  A    between atoms: N_16  and  N_17
REMARK    4  A    between atoms: C_18  and  C_20
REMARK                            x       y       z     vdW  Elec       q    Type
REMARK                         _______ _______ _______ _____ _____    ______ ____
ROOT
ATOM      1  C   UNL     1      -1.110  -0.527  -0.870  0.00  0.00    +0.250 C 
ATOM      2  O   UNL     1      -0.872  -0.895  -2.001  0.00  0.00    -0.272 OA
ATOM      3  N   UNL     1      -2.369  -0.585  -0.394  0.00  0.00    -0.233 N 
ATOM      4  H   UNL     1      -2.586  -0.251   0.632  0.00  0.00    +0.173 HD
ENDROOT
BRANCH   1  11
ATOM      5  C   UNL     1       1.720  -1.692  -0.695  0.00  0.00    +0.254 C 
ATOM      6  O   UNL     1       0.995  -2.614  -0.368  0.00  0.00    -0.269 OA
ATOM      7  N   UNL     1       1.303  -0.420  -0.543  0.00  0.00    -0.285 N 
ATOM      8  C   UNL     1       2.075   0.785  -0.895  0.00  0.00    +0.109 C 
ATOM      9  C   UNL     1       1.488   1.907  -0.002  0.00  0.00    +0.021 C 
ATOM     10  C   UNL     1      -0.019   1.539   0.011  0.00  0.00    +0.033 C 
ATOM     11  C   UNL     1       0.002  -0.004   0.002  0.00  0.00    +0.164 C 
BRANCH   5  14
ATOM     12  C   UNL     1       4.923  -3.159  -2.027  0.00  0.00    +0.008 A 
ATOM     13  C   UNL     1       3.663  -3.187  -1.485  0.00  0.00    +0.021 A 
ATOM     14  C   UNL     1       3.047  -1.967  -1.254  0.00  0.00    +0.074 A 
ATOM     15  S   UNL     1       4.294  -0.817  -1.807  0.00  0.00    -0.092 S 
ATOM     16  C   UNL     1       5.502  -1.959  -2.297  0.00  0.00    +0.046 A 
ENDBRANCH   5  14
ENDBRANCH   1  11
BRANCH   3  17
ATOM     17  N   UNL     1      -3.403  -1.071  -1.205  0.00  0.00    -0.230 N 
ATOM     18  C   UNL     1      -4.663  -1.130  -0.729  0.00  0.00    +0.260 C 
ATOM     19  O   UNL     1      -4.902  -0.760   0.405  0.00  0.00    -0.269 OA
ATOM     20  H   UNL     1      -3.187  -1.405  -2.230  0.00  0.00    +0.173 HD
BRANCH  18  21
ATOM     21  C   UNL     1      -5.752  -1.642  -1.583  0.00  0.00    +0.042 A 
ATOM     22  C   UNL     1      -5.479  -2.066  -2.886  0.00  0.00    +0.017 A 
ATOM     23  C   UNL     1      -6.497  -2.544  -3.682  0.00  0.00    +0.050 A 
ATOM     24  C   UNL     1      -7.796  -2.606  -3.194  0.00  0.00    +0.166 A 
ATOM     25  C   UNL     1      -8.075  -2.184  -1.893  0.00  0.00    +0.167 A 
ATOM     26  C   UNL     1      -7.057  -1.708  -1.089  0.00  0.00    +0.062 A 
ATOM     27  O   UNL     1      -9.410  -2.345  -1.660  0.00  0.00    -0.453 OA
ATOM     28  C   UNL     1     -10.013  -2.484  -2.960  0.00  0.00    +0.466 C 
ATOM     29  O   UNL     1      -8.956  -3.030  -3.771  0.00  0.00    -0.453 OA
ENDBRANCH  18  21
ENDBRANCH   3  17
TORSDOF 4
