REMARK  Name = ZINC09970047
REMARK  5 active torsions:
REMARK  status: ('A' for Active; 'I' for Inactive)
REMARK    1  A    between atoms: C_6  and  S_7
REMARK    2  A    between atoms: S_7  and  N_10
REMARK    3  A    between atoms: C_13  and  C_16
REMARK    4  A    between atoms: N_18  and  C_19
REMARK    5  A    between atoms: C_26  and  C_34
REMARK                            x       y       z     vdW  Elec       q    Type
REMARK                         _______ _______ _______ _____ _____    ______ ____
ROOT
ATOM      1  S   UNL     1      -1.506  -0.895   0.322  0.00  0.00    +0.061 S 
ATOM      2  O   UNL     1      -1.190  -2.176   0.849  0.00  0.00    -0.153 OA
ATOM      3  O   UNL     1      -2.445  -0.027   0.941  0.00  0.00    -0.153 OA
ENDROOT
BRANCH   1   9
ATOM      4  C   UNL     1      -0.008   1.389   0.223  0.00  0.00    +0.030 A 
ATOM      5  C   UNL     1       1.145   2.107   0.144  0.00  0.00    +0.030 A 
ATOM      6  C   UNL     1       2.380   1.437   0.056  0.00  0.00    +0.072 A 
ATOM      7  C   UNL     1       2.393   0.020   0.053  0.00  0.00    +0.017 A 
ATOM      8  C   UNL     1       1.188  -0.686   0.135  0.00  0.00    +0.039 A 
ATOM      9  C   UNL     1       0.011  -0.004   0.218  0.00  0.00    +0.106 A 
ATOM     10  C   UNL     1       3.641  -0.645  -0.033  0.00  0.00    +0.077 A 
ATOM     11  C   UNL     1       4.798   0.129  -0.114  0.00  0.00    -0.011 A 
ATOM     12  C   UNL     1       4.699   1.515  -0.111  0.00  0.00    +0.046 A 
ATOM     13  N   UNL     1       3.525   2.111  -0.025  0.00  0.00    -0.251 NA
ATOM     14  C   UNL     1       5.913   2.404  -0.213  0.00  0.00    +0.056 C 
ATOM     15  C   UNL     1       7.180   1.626   0.135  0.00  0.00    +0.006 C 
ATOM     16  C   UNL     1       7.210   0.346  -0.708  0.00  0.00    +0.005 C 
ATOM     17  C   UNL     1       6.117  -0.592  -0.199  0.00  0.00    +0.038 C 
BRANCH  10  18
ATOM     18  C   UNL     1       3.714  -2.120  -0.035  0.00  0.00    +0.387 C 
ATOM     19  O   UNL     1       3.642  -2.734  -1.091  0.00  0.00    -0.241 OA
ATOM     20  O   UNL     1       3.847  -2.727   1.018  0.00  0.00    -0.241 OA
ENDBRANCH  10  18
ENDBRANCH   1   9
BRANCH   1  21
ATOM     21  N   UNL     1      -2.038  -1.139  -1.228  0.00  0.00    -0.177 NA
ATOM     22  C   UNL     1      -2.910  -0.155  -1.883  0.00  0.00    +0.110 C 
ATOM     23  C   UNL     1      -4.160  -0.873  -2.402  0.00  0.00    +0.030 C 
ATOM     24  C   UNL     1      -3.738  -2.037  -3.301  0.00  0.00    +0.077 C 
ATOM     25  C   UNL     1      -2.909  -3.036  -2.491  0.00  0.00    +0.030 C 
ATOM     26  C   UNL     1      -1.640  -2.340  -1.975  0.00  0.00    +0.110 C 
BRANCH  24  27
ATOM     27  C   UNL     1      -4.966  -2.725  -3.841  0.00  0.00    +0.216 C 
ATOM     28  O   UNL     1      -6.069  -2.324  -3.536  0.00  0.00    -0.276 OA
ATOM     29  N   UNL     1      -4.838  -3.786  -4.662  0.00  0.00    -0.312 N 
ATOM     30  H   UNL     1      -3.955  -4.107  -4.906  0.00  0.00    +0.149 HD
BRANCH  29  31
ATOM     31  C   UNL     1      -6.031  -4.455  -5.186  0.00  0.00    +0.073 C 
ATOM     32  C   UNL     1      -6.494  -3.756  -6.435  0.00  0.00    +0.022 C 
ATOM     33  C   UNL     1      -8.027  -3.774  -6.587  0.00  0.00    +0.002 C 
ATOM     34  C   UNL     1      -8.649  -5.133  -6.213  0.00  0.00    +0.000 C 
ATOM     35  C   UNL     1      -7.846  -6.295  -6.733  0.00  0.00    +0.000 C 
ATOM     36  C   UNL     1      -6.878  -6.757  -5.625  0.00  0.00    +0.002 C 
ATOM     37  C   UNL     1      -5.692  -5.917  -5.541  0.00  0.00    +0.022 C 
ENDBRANCH  29  31
ENDBRANCH  24  27
ENDBRANCH   1  21
TORSDOF 5
