REMARK  Name = ZINC02725359
REMARK  5 active torsions:
REMARK  status: ('A' for Active; 'I' for Inactive)
REMARK    1  A    between atoms: C_1  and  C_2
REMARK    2  A    between atoms: C_6  and  C_26
REMARK    3  A    between atoms: C_7  and  N_8
REMARK    4  A    between atoms: N_11  and  C_12
REMARK    5  A    between atoms: C_12  and  C_22
REMARK                            x       y       z     vdW  Elec       q    Type
REMARK                         _______ _______ _______ _____ _____    ______ ____
ROOT
ATOM      1  N   UNL     1      -0.013   5.180   0.295  0.00  0.00    -0.269 N 
ATOM      2  C   UNL     1      -1.093   5.945   0.039  0.00  0.00    +0.310 C 
ATOM      3  O   UNL     1      -2.158   5.423  -0.229  0.00  0.00    -0.252 OA
ATOM      4  N   UNL     1      -0.992   7.288   0.079  0.00  0.00    -0.220 N 
ATOM      5  H   UNL     1       0.824   5.595   0.558  0.00  0.00    +0.156 HD
ATOM      6  H   UNL     1      -0.142   7.705   0.293  0.00  0.00    +0.158 HD
ENDROOT
BRANCH   4   7
ATOM      7  C   UNL     1      -2.165   8.119  -0.200  0.00  0.00    +0.436 C 
ATOM      8  O   UNL     1      -2.672   7.853  -1.521  0.00  0.00    -0.426 OA
ATOM      9  C   UNL     1      -3.605   6.869  -1.361  0.00  0.00    +0.169 A 
ATOM     10  C   UNL     1      -4.189   6.001  -2.270  0.00  0.00    +0.051 A 
ATOM     11  C   UNL     1      -5.127   5.080  -1.843  0.00  0.00    +0.024 A 
ATOM     12  C   UNL     1      -5.485   5.021  -0.508  0.00  0.00    +0.045 A 
ATOM     13  C   UNL     1      -4.906   5.885   0.405  0.00  0.00    +0.069 A 
ATOM     14  C   UNL     1      -3.966   6.811  -0.017  0.00  0.00    +0.170 A 
ATOM     15  O   UNL     1      -3.258   7.758   0.665  0.00  0.00    -0.426 OA
ATOM     16 CL   UNL     1      -6.663   3.862   0.024  0.00  0.00    -0.083 Cl
BRANCH   7  17
ATOM     17  C   UNL     1      -1.821   9.602  -0.045  0.00  0.00    +0.490 C 
ATOM     18  F   UNL     1      -0.802   9.940  -0.942  0.00  0.00    -0.162 F 
ATOM     19  F   UNL     1      -2.955  10.375  -0.316  0.00  0.00    -0.162 F 
ATOM     20  F   UNL     1      -1.391   9.847   1.264  0.00  0.00    -0.162 F 
ENDBRANCH   7  17
ENDBRANCH   4   7
BRANCH   1  27
ATOM     21  C   UNL     1       1.674   3.878  -1.591  0.00  0.00    +0.045 C 
ATOM     22  C   UNL     1       0.706   3.112  -0.726  0.00  0.00    -0.029 A 
ATOM     23  C   UNL     1       0.619   1.738  -0.835  0.00  0.00    +0.005 A 
ATOM     24  C   UNL     1      -0.269   1.035  -0.042  0.00  0.00    +0.001 A 
ATOM     25  C   UNL     1      -1.075   1.705   0.860  0.00  0.00    +0.005 A 
ATOM     26  C   UNL     1      -0.989   3.079   0.978  0.00  0.00    -0.029 A 
ATOM     27  C   UNL     1      -0.099   3.788   0.182  0.00  0.00    +0.041 A 
ATOM     28  C   UNL     1      -1.864   3.808   1.965  0.00  0.00    +0.045 C 
ENDBRANCH   1  27
TORSDOF 3
