REMARK  Name = ZINC33250887
REMARK  12 active torsions:
REMARK  status: ('A' for Active; 'I' for Inactive)
REMARK    1  A    between atoms: C_1  and  C_2
REMARK    2  A    between atoms: C_5  and  C_38
REMARK    3  A    between atoms: C_6  and  C_8
REMARK    4  A    between atoms: C_9  and  C_10
REMARK    5  A    between atoms: C_11  and  S_16
REMARK    6  A    between atoms: C_12  and  C_15
REMARK    7  A    between atoms: S_16  and  N_19
REMARK    8  A    between atoms: C_23  and  C_26
REMARK    9  A    between atoms: N_28  and  C_29
REMARK   10  A    between atoms: C_31  and  C_37
REMARK   11  A    between atoms: C_34  and  O_35
REMARK   12  A    between atoms: O_35  and  C_36
REMARK                            x       y       z     vdW  Elec       q    Type
REMARK                         _______ _______ _______ _____ _____    ______ ____
ROOT
ATOM      1  S   UNL     1      -6.956   4.062   6.729  0.00  0.00    +0.066 S 
ATOM      2  O   UNL     1      -6.593   3.146   7.753  0.00  0.00    -0.153 OA
ATOM      3  O   UNL     1      -7.699   5.244   6.994  0.00  0.00    -0.153 OA
ENDROOT
BRANCH   1   5
ATOM      4  C   UNL     1      -8.800   3.616   4.636  0.00  0.00    +0.187 A 
ATOM      5  C   UNL     1      -7.874   3.146   5.536  0.00  0.00    +0.174 A 
ATOM      6  C   UNL     1      -7.834   1.761   5.286  0.00  0.00    +0.107 A 
ATOM      7  N   UNL     1      -8.678   1.531   4.320  0.00  0.00    -0.081 NA
ATOM      8  O   UNL     1      -9.222   2.542   3.942  0.00  0.00    -0.353 OA
ATOM      9  C   UNL     1      -6.981   0.743   5.998  0.00  0.00    +0.071 C 
BRANCH   4  11
ATOM     10  C   UNL     1     -10.159   5.310   3.533  0.00  0.00    +0.012 C 
ATOM     11  C   UNL     1      -9.237   5.005   4.465  0.00  0.00    +0.051 C 
BRANCH  10  17
ATOM     12  C   UNL     1      -9.898  10.110   4.860  0.00  0.00    +0.044 C 
ATOM     13  C   UNL     1     -10.477   9.019   3.996  0.00  0.00    -0.050 A 
ATOM     14  C   UNL     1     -11.425   9.329   3.037  0.00  0.00    +0.003 A 
ATOM     15  C   UNL     1     -11.963   8.335   2.239  0.00  0.00    +0.004 A 
ATOM     16  C   UNL     1     -11.556   7.026   2.394  0.00  0.00    -0.043 A 
ATOM     17  C   UNL     1     -10.599   6.705   3.361  0.00  0.00    -0.022 A 
ATOM     18  C   UNL     1     -10.064   7.715   4.167  0.00  0.00    +0.011 A 
ATOM     19  C   UNL     1     -12.144   5.944   1.524  0.00  0.00    +0.044 C 
ENDBRANCH  10  17
ENDBRANCH   4  11
ENDBRANCH   1   5
BRANCH   1  20
ATOM     20  N   UNL     1      -5.548   4.541   6.002  0.00  0.00    -0.176 NA
ATOM     21  C   UNL     1      -5.473   5.823   5.287  0.00  0.00    +0.109 C 
ATOM     22  C   UNL     1      -4.953   5.567   3.869  0.00  0.00    +0.018 C 
ATOM     23  C   UNL     1      -3.624   4.812   3.945  0.00  0.00    +0.015 C 
ATOM     24  C   UNL     1      -3.843   3.461   4.631  0.00  0.00    +0.091 C 
ATOM     25  C   UNL     1      -4.350   3.693   6.058  0.00  0.00    +0.122 C 
BRANCH  24  26
ATOM     26  C   UNL     1      -2.540   2.704   4.676  0.00  0.00    +0.222 C 
ATOM     27  O   UNL     1      -2.065   2.379   5.744  0.00  0.00    -0.275 OA
ATOM     28  N   UNL     1      -1.903   2.389   3.531  0.00  0.00    -0.282 N 
ATOM     29  H   UNL     1      -2.295   2.747   2.568  0.00  0.00    +0.155 HD
BRANCH  28  30
ATOM     30  C   UNL     1      -0.742   1.605   3.568  0.00  0.00    +0.076 A 
ATOM     31  C   UNL     1       0.147   1.729   4.626  0.00  0.00    +0.030 A 
ATOM     32  C   UNL     1       1.291   0.955   4.660  0.00  0.00    -0.048 A 
ATOM     33  C   UNL     1       1.553   0.056   3.643  0.00  0.00    +0.007 A 
ATOM     34  C   UNL     1       0.669  -0.076   2.588  0.00  0.00    +0.048 A 
ATOM     35  C   UNL     1      -0.478   0.700   2.543  0.00  0.00    +0.141 A 
ATOM     36  C   UNL     1       2.256   1.091   5.810  0.00  0.00    +0.044 C 
BRANCH  35  37
ATOM     37  O   UNL     1      -1.346   0.574   1.504  0.00  0.00    -0.493 OA
ATOM     38  C   UNL     1      -1.010  -0.374   0.489  0.00  0.00    +0.277 C 
ENDBRANCH  35  37
ENDBRANCH  28  30
ENDBRANCH  24  26
ENDBRANCH   1  20
TORSDOF 7
