REMARK  Name = ZINC21289779
REMARK  8 active torsions:
REMARK  status: ('A' for Active; 'I' for Inactive)
REMARK    1  A    between atoms: C_1  and  C_2
REMARK    2  A    between atoms: C_2  and  C_4
REMARK    3  A    between atoms: C_2  and  N_10
REMARK    4  A    between atoms: C_13  and  C_17
REMARK    5  A    between atoms: C_18  and  C_29
REMARK    6  A    between atoms: C_20  and  C_23
REMARK    7  A    between atoms: N_21  and  C_22
REMARK    8  A    between atoms: C_33  and  C_35
REMARK                            x       y       z     vdW  Elec       q    Type
REMARK                         _______ _______ _______ _____ _____    ______ ____
ROOT
ATOM      1  C   UNL     1      -1.000   6.136  -0.593  0.00  0.00    +0.077 A 
ATOM      2  C   UNL     1      -0.070   5.326   0.033  0.00  0.00    +0.097 A 
ATOM      3  N   UNL     1       0.809   6.131   0.656  0.00  0.00    -0.231 NA
ATOM      4  C   UNL     1       0.486   7.377   0.446  0.00  0.00    +0.114 A 
ATOM      5  N   UNL     1      -0.627   7.432  -0.317  0.00  0.00    -0.330 N 
ATOM      6  C   UNL     1      -1.310   8.647  -0.768  0.00  0.00    +0.150 C 
ENDROOT
BRANCH   1  10
ATOM      7  N   UNL     1      -3.036   3.305  -4.039  0.00  0.00    -0.322 N 
ATOM      8  C   UNL     1      -3.147   4.310  -3.084  0.00  0.00    +0.120 A 
ATOM      9  C   UNL     1      -2.030   4.688  -2.352  0.00  0.00    +0.053 A 
ATOM     10  C   UNL     1      -2.159   5.700  -1.396  0.00  0.00    +0.005 A 
ATOM     11  C   UNL     1      -3.422   6.285  -1.215  0.00  0.00    +0.030 A 
ATOM     12  C   UNL     1      -4.477   5.853  -1.986  0.00  0.00    +0.113 A 
ATOM     13  N   UNL     1      -4.319   4.894  -2.881  0.00  0.00    -0.240 NA
ATOM     14  H   UNL     1      -3.918   3.001  -4.622  0.00  0.00    +0.148 HD
BRANCH   7  16
ATOM     15  C   UNL     1      -0.923   3.483  -5.258  0.00  0.00    +0.033 C 
ATOM     16  C   UNL     1      -1.744   2.653  -4.269  0.00  0.00    +0.099 C 
BRANCH  16  17
ATOM     17  C   UNL     1      -1.971   1.275  -4.836  0.00  0.00    -0.028 A 
ATOM     18  C   UNL     1      -2.966   1.069  -5.773  0.00  0.00    +0.005 A 
ATOM     19  C   UNL     1      -3.171  -0.194  -6.296  0.00  0.00    +0.000 A 
ATOM     20  C   UNL     1      -2.388  -1.252  -5.875  0.00  0.00    +0.000 A 
ATOM     21  C   UNL     1      -1.397  -1.047  -4.934  0.00  0.00    +0.000 A 
ATOM     22  C   UNL     1      -1.189   0.217  -4.414  0.00  0.00    +0.005 A 
ENDBRANCH  16  17
ENDBRANCH   7  16
ENDBRANCH   1  10
BRANCH   4  23
ATOM     23  C   UNL     1       1.235   8.571   0.978  0.00  0.00    +0.052 C 
ATOM     24  C   UNL     1       2.672   8.550   0.450  0.00  0.00    -0.008 C 
ATOM     25  C   UNL     1       3.446   9.730   1.044  0.00  0.00    -0.082 C 
ATOM     26  N   UNL     1       3.440   9.635   2.509  0.00  0.00    +0.379 N 
ATOM     27  C   UNL     1       2.073   9.701   3.041  0.00  0.00    -0.082 C 
ATOM     28  C   UNL     1       1.259   8.520   2.508  0.00  0.00    -0.008 C 
ATOM     29  H   UNL     1       3.890   8.679   2.816  0.00  0.00    -0.086 HD
ATOM     30  H   UNL     1       4.022  10.467   2.932  0.00  0.00    -0.086 HD
ENDBRANCH   4  23
BRANCH   2  31
ATOM     31  C   UNL     1      -0.050   3.844   0.024  0.00  0.00    +0.003 A 
ATOM     32  C   UNL     1      -1.247   3.128   0.031  0.00  0.00    +0.010 A 
ATOM     33  C   UNL     1      -1.222   1.748   0.017  0.00  0.00    +0.001 A 
ATOM     34  C   UNL     1      -0.013   1.076   0.008  0.00  0.00    +0.012 A 
ATOM     35  C   UNL     1       1.177   1.781   0.000  0.00  0.00    +0.055 A 
ATOM     36  C   UNL     1       1.165   3.161   0.008  0.00  0.00    +0.022 A 
BRANCH  35  37
ATOM     37  C   UNL     1       2.490   1.041  -0.016  0.00  0.00    +0.417 C 
ATOM     38  F   UNL     1       2.248  -0.337  -0.021  0.00  0.00    -0.166 F 
ATOM     39  F   UNL     1       3.209   1.392  -1.163  0.00  0.00    -0.166 F 
ATOM     40  F   UNL     1       3.231   1.380   1.121  0.00  0.00    -0.166 F 
ENDBRANCH  35  37
ENDBRANCH   2  31
TORSDOF 6
