REMARK  Name = ZINC25581091
REMARK  10 active torsions:
REMARK  status: ('A' for Active; 'I' for Inactive)
REMARK    1  A    between atoms: C_1  and  C_2
REMARK    2  A    between atoms: C_2  and  C_3
REMARK    3  A    between atoms: C_2  and  C_4
REMARK    4  A    between atoms: C_7  and  C_10
REMARK    5  A    between atoms: C_12  and  C_24
REMARK    6  A    between atoms: C_14  and  C_19
REMARK    7  A    between atoms: C_14  and  O_23
REMARK    8  A    between atoms: C_24  and  C_26
REMARK    9  A    between atoms: C_29  and  O_32
REMARK   10  A    between atoms: O_32  and  C_33
REMARK                            x       y       z     vdW  Elec       q    Type
REMARK                         _______ _______ _______ _____ _____    ______ ____
ROOT
ATOM      1  C   UNL     1       3.650  -0.828   7.147  0.00  0.00    +0.120 C 
ATOM      2  C   UNL     1       3.080  -1.157   5.763  0.00  0.00    +0.144 C 
ATOM      3  C   UNL     1       2.393  -2.525   5.827  0.00  0.00    +0.243 C 
ATOM      4  N   UNL     1       1.385  -2.508   6.888  0.00  0.00    -0.264 N 
ATOM      5  C   UNL     1       1.521  -1.722   7.967  0.00  0.00    +0.302 C 
ATOM      6  O   UNL     1       0.659  -1.754   8.824  0.00  0.00    -0.253 OA
ATOM      7  N   UNL     1       2.570  -0.905   8.138  0.00  0.00    -0.292 N 
ATOM      8  H   UNL     1       0.493  -3.147   6.810  0.00  0.00    +0.153 HD
ATOM      9  H   UNL     1       2.611  -0.283   9.045  0.00  0.00    +0.151 HD
ENDROOT
BRANCH   1  13
ATOM     10  C   UNL     1       5.300   3.112   7.110  0.00  0.00    -0.045 A 
ATOM     11  C   UNL     1       6.113   2.020   6.870  0.00  0.00    +0.004 A 
ATOM     12  C   UNL     1       5.579   0.745   6.881  0.00  0.00    +0.006 A 
ATOM     13  C   UNL     1       4.232   0.562   7.134  0.00  0.00    -0.026 A 
ATOM     14  C   UNL     1       3.419   1.655   7.369  0.00  0.00    +0.006 A 
ATOM     15  C   UNL     1       3.953   2.929   7.362  0.00  0.00    +0.004 A 
BRANCH  10  17
ATOM     16  C   UNL     1       5.188   5.336   6.018  0.00  0.00    +0.012 C 
ATOM     17  C   UNL     1       5.882   4.502   7.097  0.00  0.00    +0.013 C 
ATOM     18  C   UNL     1       5.670   5.157   8.463  0.00  0.00    +0.012 C 
ENDBRANCH  10  17
ENDBRANCH   1  13
BRANCH   3  19
ATOM     19  C   UNL     1       1.721  -2.823   4.485  0.00  0.00    +0.436 C 
ATOM     20  F   UNL     1       2.660  -2.702   3.456  0.00  0.00    -0.166 F 
ATOM     21  F   UNL     1       1.209  -4.125   4.499  0.00  0.00    -0.166 F 
ATOM     22  F   UNL     1       0.678  -1.915   4.274  0.00  0.00    -0.166 F 
ENDBRANCH   3  19
BRANCH   3  23
ATOM     23  O   UNL     1       3.365  -3.534   6.108  0.00  0.00    -0.364 OA
ATOM     24  H   UNL     1       3.057  -4.587   6.192  0.00  0.00    +0.212 HD
ENDBRANCH   3  23
BRANCH   2  25
ATOM     25  C   UNL     1       2.076  -0.105   5.366  0.00  0.00    +0.173 C 
ATOM     26  O   UNL     1       1.071   0.055   6.027  0.00  0.00    -0.292 OA
BRANCH  25  27
ATOM     27  C   UNL     1       2.313   0.727   4.179  0.00  0.00    +0.018 A 
ATOM     28  C   UNL     1       1.329   1.621   3.739  0.00  0.00    +0.015 A 
ATOM     29  C   UNL     1       1.557   2.395   2.631  0.00  0.00    +0.046 A 
ATOM     30  C   UNL     1       2.762   2.294   1.944  0.00  0.00    +0.120 A 
ATOM     31  C   UNL     1       3.740   1.404   2.374  0.00  0.00    +0.046 A 
ATOM     32  C   UNL     1       3.525   0.629   3.484  0.00  0.00    +0.015 A 
BRANCH  30  33
ATOM     33  O   UNL     1       2.982   3.062   0.848  0.00  0.00    -0.495 OA
ATOM     34  C   UNL     1       4.240   2.909   0.190  0.00  0.00    +0.277 C 
ENDBRANCH  30  33
ENDBRANCH  25  27
ENDBRANCH   2  25
TORSDOF 7
