REMARK  Name = ZINC54107659
REMARK  2 active torsions:
REMARK  status: ('A' for Active; 'I' for Inactive)
REMARK    1  A    between atoms: C_6  and  N_7
REMARK    2  A    between atoms: C_8  and  C_10
REMARK                            x       y       z     vdW  Elec       q    Type
REMARK                         _______ _______ _______ _____ _____    ______ ____
ROOT
ATOM      1  C   UNL     1      -0.004   1.370   0.179  0.00  0.00    +0.025 A 
ATOM      2  C   UNL     1       1.184   2.071   0.166  0.00  0.00    +0.025 A 
ATOM      3  C   UNL     1       2.387   1.402  -0.028  0.00  0.00    +0.030 A 
ATOM      4  C   UNL     1       2.398   0.027  -0.207  0.00  0.00    -0.025 A 
ATOM      5  C   UNL     1       1.204  -0.674  -0.196  0.00  0.00    +0.028 A 
ATOM      6  C   UNL     1       0.003  -0.006  -0.003  0.00  0.00    +0.034 A 
ATOM      7  C   UNL     1       3.684  -0.730  -0.409  0.00  0.00    +0.038 C 
ATOM      8  C   UNL     1       4.789   0.210  -0.889  0.00  0.00    +0.023 C 
ATOM      9  C   UNL     1       4.858   1.417   0.055  0.00  0.00    +0.102 C 
ATOM     10  N   UNL     1       3.581   2.136  -0.042  0.00  0.00    -0.344 N 
ATOM     11  H   UNL     1       3.564   3.103  -0.115  0.00  0.00    +0.146 HD
ENDROOT
BRANCH   6  12
ATOM     12  N   UNL     1      -1.202  -0.721   0.008  0.00  0.00    -0.285 N 
ATOM     13  C   UNL     1      -1.236  -1.978   0.494  0.00  0.00    +0.223 C 
ATOM     14  O   UNL     1      -0.247  -2.455   1.010  0.00  0.00    -0.275 OA
ATOM     15  H   UNL     1      -2.012  -0.312  -0.335  0.00  0.00    +0.155 HD
BRANCH  13  16
ATOM     16  C   UNL     1      -2.502  -2.789   0.398  0.00  0.00    +0.103 C 
ATOM     17  C   UNL     1      -2.326  -4.172   1.083  0.00  0.00    +0.043 C 
ATOM     18  C   UNL     1      -3.785  -4.478   1.506  0.00  0.00    +0.160 C 
ATOM     19  O   UNL     1      -4.339  -3.209   1.888  0.00  0.00    -0.379 OA
ATOM     20  C   UNL     1      -3.631  -2.146   1.232  0.00  0.00    +0.172 C 
ENDBRANCH  13  16
ENDBRANCH   6  12
TORSDOF 2
