REMARK  Name = ZINC64672744
REMARK  5 active torsions:
REMARK  status: ('A' for Active; 'I' for Inactive)
REMARK    1  A    between atoms: C_1  and  C_2
REMARK    2  A    between atoms: C_2  and  N_3
REMARK    3  A    between atoms: C_5  and  C_15
REMARK    4  A    between atoms: C_11  and  C_14
REMARK    5  A    between atoms: C_20  and  C_23
REMARK                            x       y       z     vdW  Elec       q    Type
REMARK                         _______ _______ _______ _____ _____    ______ ____
ROOT
ATOM      1  C   UNL     1       3.632  -2.748   1.398  0.00  0.00    +0.251 C 
ATOM      2  O   UNL     1       3.904  -3.812   1.927  0.00  0.00    -0.270 OA
ATOM      3  N   UNL     1       4.418  -2.263   0.417  0.00  0.00    -0.261 N 
ATOM      4  C   UNL     1       5.537  -2.972   0.010  0.00  0.00    +0.165 A 
ATOM      5  N   UNL     1       6.419  -2.663  -0.916  0.00  0.00    -0.225 NA
ATOM      6  C   UNL     1       7.432  -3.509  -1.142  0.00  0.00    +0.079 A 
ATOM      7  C   UNL     1       7.499  -4.671  -0.385  0.00  0.00    +0.076 A 
ATOM      8  S   UNL     1       6.152  -4.533   0.614  0.00  0.00    -0.060 S 
ATOM      9  H   UNL     1       4.201  -1.416  -0.004  0.00  0.00    +0.157 HD
ENDROOT
BRANCH   1  12
ATOM     10  N   UNL     1       0.711  -0.489   1.189  0.00  0.00    -0.312 N 
ATOM     11  C   UNL     1       2.161  -0.713   1.154  0.00  0.00    +0.150 C 
ATOM     12  C   UNL     1       2.494  -2.027   1.811  0.00  0.00    +0.079 C 
ATOM     13  C   UNL     1       1.700  -2.523   2.804  0.00  0.00    +0.199 C 
ATOM     14  O   UNL     1       2.009  -3.691   3.410  0.00  0.00    -0.287 OA
ATOM     15  C   UNL     1       0.503  -1.768   3.207  0.00  0.00    +0.060 A 
ATOM     16  C   UNL     1       0.025  -0.740   2.367  0.00  0.00    +0.110 A 
ATOM     17  N   UNL     1      -1.048  -0.046   2.702  0.00  0.00    -0.346 N 
ATOM     18  C   UNL     1      -1.698  -0.282   3.827  0.00  0.00    +0.014 A 
ATOM     19  C   UNL     1      -1.286  -1.267   4.706  0.00  0.00    +0.021 A 
ATOM     20  C   UNL     1      -0.167  -2.040   4.399  0.00  0.00    +0.017 A 
ATOM     21  C   UNL     1      -2.916   0.540   4.160  0.00  0.00    +0.063 C 
ATOM     22  H   UNL     1      -1.365   0.652   2.108  0.00  0.00    +0.167 HD
BRANCH  10  24
ATOM     23  C   UNL     1      -0.019   1.526   0.010  0.00  0.00    +0.024 C 
ATOM     24  C   UNL     1       0.002  -0.004   0.002  0.00  0.00    +0.103 C 
ENDBRANCH  10  24
ENDBRANCH   1  12
BRANCH   6  25
ATOM     25  C   UNL     1       8.406  -3.226  -2.123  0.00  0.00    +0.007 C 
ATOM     26  C   UNL     1       8.470  -2.106  -2.948  0.00  0.00    +0.005 A 
ATOM     27  C   UNL     1       7.647  -0.964  -3.071  0.00  0.00    +0.010 A 
ATOM     28  C   UNL     1       7.957  -0.007  -3.981  0.00  0.00    +0.001 A 
ATOM     29  C   UNL     1       9.076  -0.118  -4.809  0.00  0.00    +0.002 A 
ATOM     30  C   UNL     1       9.909  -1.186  -4.745  0.00  0.00    +0.026 A 
ATOM     31  C   UNL     1       9.652  -2.228  -3.817  0.00  0.00    +0.043 A 
ATOM     32  N   UNL     1      10.296  -3.350  -3.564  0.00  0.00    -0.380 N 
ATOM     33  C   UNL     1       9.602  -4.075  -2.495  0.00  0.00    +0.151 C 
ATOM     34  H   UNL     1      11.104  -3.646  -4.011  0.00  0.00    +0.160 HD
ENDBRANCH   6  25
TORSDOF 3
