REMARK  Name = ZINC40157373
REMARK  8 active torsions:
REMARK  status: ('A' for Active; 'I' for Inactive)
REMARK    1  A    between atoms: C_1  and  C_2
REMARK    2  A    between atoms: C_2  and  C_3
REMARK    3  A    between atoms: C_2  and  C_4
REMARK    4  A    between atoms: C_4  and  C_6
REMARK    5  A    between atoms: C_4  and  N_16
REMARK    6  A    between atoms: C_17  and  C_19
REMARK    7  A    between atoms: C_23  and  S_25
REMARK    8  A    between atoms: S_25  and  N_28
REMARK                            x       y       z     vdW  Elec       q    Type
REMARK                         _______ _______ _______ _____ _____    ______ ____
ROOT
ATOM      1  N   UNL     1      -1.413  -1.998   0.005  0.00  0.00    -0.301 N 
ATOM      2  C   UNL     1      -1.292  -2.677   1.163  0.00  0.00    +0.245 C 
ATOM      3  O   UNL     1      -1.198  -2.074   2.214  0.00  0.00    -0.270 OA
ATOM      4  H   UNL     1      -1.488  -2.480  -0.834  0.00  0.00    +0.150 HD
ENDROOT
BRANCH   2   5
ATOM      5  C   UNL     1      -1.271  -4.155   1.155  0.00  0.00    +0.039 A 
ATOM      6  C   UNL     1      -1.373  -4.851  -0.051  0.00  0.00    +0.013 A 
ATOM      7  C   UNL     1      -1.353  -6.231  -0.052  0.00  0.00    +0.003 A 
ATOM      8  C   UNL     1      -1.233  -6.924   1.139  0.00  0.00    +0.028 A 
ATOM      9  C   UNL     1      -1.133  -6.241   2.338  0.00  0.00    +0.106 A 
ATOM     10  C   UNL     1      -1.145  -4.861   2.352  0.00  0.00    +0.041 A 
BRANCH   9  11
ATOM     11  S   UNL     1      -0.981  -7.134   3.849  0.00  0.00    +0.061 S 
ATOM     12  O   UNL     1      -1.452  -6.274   4.878  0.00  0.00    -0.153 OA
ATOM     13  O   UNL     1      -1.538  -8.421   3.618  0.00  0.00    -0.153 OA
BRANCH  11  14
ATOM     14  N   UNL     1       0.636  -7.361   4.124  0.00  0.00    -0.177 NA
ATOM     15  C   UNL     1       1.270  -8.546   3.592  0.00  0.00    +0.109 C 
ATOM     16  C   UNL     1       1.172  -9.696   4.625  0.00  0.00    +0.017 C 
ATOM     17  C   UNL     1       2.060  -9.433   5.768  0.00  0.00    +0.001 C 
ATOM     18  C   UNL     1       1.708  -8.180   6.563  0.00  0.00    +0.001 C 
ATOM     19  C   UNL     1       2.345  -6.978   5.911  0.00  0.00    +0.017 C 
ATOM     20  C   UNL     1       1.372  -6.341   4.897  0.00  0.00    +0.109 C 
ENDBRANCH  11  14
ENDBRANCH   9  11
ENDBRANCH   2   5
BRANCH   1  21
ATOM     21  C   UNL     1      -1.433  -0.534   0.013  0.00  0.00    +0.142 C 
BRANCH  21  22
ATOM     22  C   UNL     1      -2.162  -0.034  -1.208  0.00  0.00    +0.129 A 
ATOM     23  N   UNL     1      -2.801  -0.825  -2.112  0.00  0.00    -0.340 N 
ATOM     24  H   UNL     1      -2.867  -1.793  -2.084  0.00  0.00    +0.167 HD
ATOM     25  C   UNL     1      -3.339   0.004  -3.075  0.00  0.00    +0.066 A 
ATOM     26  C   UNL     1      -4.085  -0.208  -4.227  0.00  0.00    +0.028 A 
ATOM     27  C   UNL     1      -4.478   0.868  -4.994  0.00  0.00    +0.002 A 
ATOM     28  C   UNL     1      -4.132   2.160  -4.623  0.00  0.00    +0.002 A 
ATOM     29  C   UNL     1      -3.398   2.388  -3.493  0.00  0.00    +0.030 A 
ATOM     30  C   UNL     1      -2.990   1.312  -2.700  0.00  0.00    +0.089 A 
ATOM     31  N   UNL     1      -2.277   1.216  -1.548  0.00  0.00    -0.231 NA
ENDBRANCH  21  22
BRANCH  21  33
ATOM     32  C   UNL     1      -0.019   1.526   0.010  0.00  0.00    +0.009 C 
ATOM     33  C   UNL     1       0.002  -0.004   0.002  0.00  0.00    +0.011 C 
ATOM     34  C   UNL     1       0.742  -0.511   1.242  0.00  0.00    +0.009 C 
ENDBRANCH  21  33
ENDBRANCH   1  21
TORSDOF 6
