REMARK  Name = ZINC63137374
REMARK  8 active torsions:
REMARK  status: ('A' for Active; 'I' for Inactive)
REMARK    1  A    between atoms: C_1  and  C_2
REMARK    2  A    between atoms: C_2  and  C_3
REMARK    3  A    between atoms: C_2  and  C_4
REMARK    4  A    between atoms: C_7  and  C_10
REMARK    5  A    between atoms: N_29  and  C_32
REMARK    6  A    between atoms: C_32  and  C_33
REMARK    7  A    between atoms: C_33  and  C_35
REMARK    8  A    between atoms: C_33  and  O_41
REMARK                            x       y       z     vdW  Elec       q    Type
REMARK                         _______ _______ _______ _____ _____    ______ ____
ROOT
ATOM      1  C   UNL     1      -5.419  -2.005   0.043  0.00  0.00    +0.133 C 
ATOM      2  C   UNL     1      -5.414  -3.442   0.563  0.00  0.00    +0.131 C 
ATOM      3  C   UNL     1      -4.880  -4.298  -0.582  0.00  0.00    -0.034 C 
ATOM      4  C   UNL     1      -3.771  -4.876  -0.143  0.00  0.00    -0.001 A 
ATOM      5  C   UNL     1      -2.843  -5.827  -0.778  0.00  0.00    +0.010 A 
ATOM      6  C   UNL     1      -1.781  -6.221  -0.027  0.00  0.00    +0.001 A 
ATOM      7  C   UNL     1      -1.551  -5.771   1.276  0.00  0.00    +0.002 A 
ATOM      8  C   UNL     1      -2.353  -4.900   1.939  0.00  0.00    +0.026 A 
ATOM      9  C   UNL     1      -3.505  -4.415   1.254  0.00  0.00    +0.043 A 
ATOM     10  N   UNL     1      -4.447  -3.588   1.659  0.00  0.00    -0.375 N 
ATOM     11  C   UNL     1      -5.582  -4.346  -1.912  0.00  0.00    +0.065 C 
ATOM     12  C   UNL     1      -6.051  -2.966  -2.293  0.00  0.00    +0.167 C 
ATOM     13  N   UNL     1      -5.967  -1.917  -1.302  0.00  0.00    -0.279 N 
ATOM     14  C   UNL     1      -6.420  -0.686  -1.711  0.00  0.00    +0.234 C 
ATOM     15  O   UNL     1      -6.465   0.259  -0.952  0.00  0.00    -0.274 OA
ATOM     16  C   UNL     1      -6.860  -0.563  -3.155  0.00  0.00    +0.203 C 
ATOM     17  N   UNL     1      -5.870  -1.250  -4.005  0.00  0.00    -0.288 N 
ATOM     18  C   UNL     1      -5.463  -2.482  -3.595  0.00  0.00    +0.237 C 
ATOM     19  O   UNL     1      -4.678  -3.148  -4.236  0.00  0.00    -0.274 OA
ATOM     20  H   UNL     1      -4.500  -3.147   2.522  0.00  0.00    +0.160 HD
ENDROOT
BRANCH   1  24
ATOM     21  C   UNL     1      -1.412  -0.526   0.013  0.00  0.00    -0.045 A 
ATOM     22  C   UNL     1      -2.259  -0.204   1.056  0.00  0.00    +0.004 A 
ATOM     23  C   UNL     1      -3.556  -0.683   1.066  0.00  0.00    +0.006 A 
ATOM     24  C   UNL     1      -4.006  -1.482   0.032  0.00  0.00    -0.025 A 
ATOM     25  C   UNL     1      -3.159  -1.803  -1.012  0.00  0.00    +0.006 A 
ATOM     26  C   UNL     1      -1.863  -1.321  -1.024  0.00  0.00    +0.004 A 
BRANCH  21  28
ATOM     27  C   UNL     1      -0.019   1.526   0.010  0.00  0.00    +0.012 C 
ATOM     28  C   UNL     1       0.002  -0.004   0.002  0.00  0.00    +0.013 C 
ATOM     29  C   UNL     1       0.742  -0.511   1.242  0.00  0.00    +0.012 C 
ENDBRANCH  21  28
ENDBRANCH   1  24
BRANCH  17  30
ATOM     30  C   UNL     1      -5.350  -0.636  -5.230  0.00  0.00    +0.144 C 
BRANCH  30  31
ATOM     31  C   UNL     1      -4.100   0.182  -4.899  0.00  0.00    +0.162 C 
BRANCH  31  32
ATOM     32  C   UNL     1      -3.566   0.814  -6.159  0.00  0.00    -0.018 A 
ATOM     33  C   UNL     1      -4.074   2.023  -6.595  0.00  0.00    +0.006 A 
ATOM     34  C   UNL     1      -3.584   2.603  -7.751  0.00  0.00    +0.000 A 
ATOM     35  C   UNL     1      -2.586   1.973  -8.470  0.00  0.00    +0.000 A 
ATOM     36  C   UNL     1      -2.077   0.764  -8.033  0.00  0.00    +0.000 A 
ATOM     37  C   UNL     1      -2.564   0.187  -6.875  0.00  0.00    +0.006 A 
ENDBRANCH  31  32
BRANCH  31  38
ATOM     38  O   UNL     1      -4.435   1.205  -3.959  0.00  0.00    -0.386 OA
ATOM     39  H   UNL     1      -5.107   1.825  -4.274  0.00  0.00    +0.210 HD
ENDBRANCH  31  38
ENDBRANCH  30  31
ENDBRANCH  17  30
TORSDOF 6
