REMARK  Name = ZINC15737487
REMARK  7 active torsions:
REMARK  status: ('A' for Active; 'I' for Inactive)
REMARK    1  A    between atoms: C_1  and  C_2
REMARK    2  A    between atoms: C_2  and  C_4
REMARK    3  A    between atoms: C_2  and  N_14
REMARK    4  A    between atoms: C_15  and  C_17
REMARK    5  A    between atoms: C_20  and  S_23
REMARK    6  A    between atoms: S_23  and  N_26
REMARK    7  A    between atoms: N_26  and  C_27
REMARK                            x       y       z     vdW  Elec       q    Type
REMARK                         _______ _______ _______ _____ _____    ______ ____
ROOT
ATOM      1  C   UNL     1      -2.425   2.699  -3.608  0.00  0.00    +0.037 A 
ATOM      2  C   UNL     1      -1.486   3.566  -3.048  0.00  0.00    +0.015 A 
ATOM      3  C   UNL     1      -0.756   3.170  -1.946  0.00  0.00    +0.029 A 
ATOM      4  C   UNL     1      -0.954   1.915  -1.397  0.00  0.00    +0.105 A 
ATOM      5  C   UNL     1      -1.879   1.049  -1.950  0.00  0.00    +0.029 A 
ATOM      6  C   UNL     1      -2.619   1.435  -3.049  0.00  0.00    +0.015 A 
ENDROOT
BRANCH   1   8
ATOM      7  N   UNL     1      -4.116   2.277  -5.328  0.00  0.00    -0.308 N 
ATOM      8  C   UNL     1      -3.210   3.116  -4.790  0.00  0.00    +0.244 C 
ATOM      9  O   UNL     1      -3.038   4.218  -5.275  0.00  0.00    -0.270 OA
ATOM     10  H   UNL     1      -4.253   1.398  -4.941  0.00  0.00    +0.149 HD
BRANCH   7  12
ATOM     11  C   UNL     1      -4.092   2.407  -7.770  0.00  0.00    +0.028 C 
ATOM     12  C   UNL     1      -4.894   2.691  -6.499  0.00  0.00    +0.076 C 
BRANCH  12  13
ATOM     13  C   UNL     1      -6.208   1.909  -6.540  0.00  0.00    -0.010 C 
ATOM     14  C   UNL     1      -7.010   2.194  -5.268  0.00  0.00    +0.012 C 
ATOM     15  C   UNL     1      -8.325   1.413  -5.309  0.00  0.00    -0.010 C 
ATOM     16  C   UNL     1      -9.137   1.845  -6.531  0.00  0.00    +0.007 C 
ATOM     17  C   UNL     1      -8.336   1.561  -7.803  0.00  0.00    -0.010 C 
ATOM     18  C   UNL     1      -7.021   2.342  -7.762  0.00  0.00    +0.012 C 
ATOM     19  C   UNL     1      -8.036   0.063  -7.893  0.00  0.00    +0.007 C 
ATOM     20  C   UNL     1      -7.224  -0.369  -6.671  0.00  0.00    -0.010 C 
ATOM     21  C   UNL     1      -8.026  -0.085  -5.399  0.00  0.00    +0.007 C 
ATOM     22  C   UNL     1      -5.909   0.412  -6.630  0.00  0.00    +0.012 C 
ENDBRANCH  12  13
ENDBRANCH   7  12
ENDBRANCH   1   8
BRANCH   4  23
ATOM     23  S   UNL     1      -0.017   1.417   0.010  0.00  0.00    +0.059 S 
ATOM     24  O   UNL     1       0.002  -0.004   0.002  0.00  0.00    -0.153 OA
ATOM     25  O   UNL     1       1.172   2.195   0.003  0.00  0.00    -0.153 OA
BRANCH  23  26
ATOM     26  N   UNL     1      -0.872   1.871   1.353  0.00  0.00    -0.185 NA
ATOM     27  H   UNL     1      -0.510   2.541   1.955  0.00  0.00    +0.148 HD
BRANCH  26  28
ATOM     28  C   UNL     1      -2.174   1.261   1.634  0.00  0.00    +0.099 C 
ATOM     29  C   UNL     1      -3.297   2.168   1.104  0.00  0.00    +0.044 C 
ATOM     30  C   UNL     1      -4.661   1.704   1.669  0.00  0.00    +0.167 C 
ATOM     31  S   UNL     1      -4.193   0.931   3.270  0.00  0.00    -0.029 S 
ATOM     32  O   UNL     1      -4.528  -0.450   3.233  0.00  0.00    -0.174 OA
ATOM     33  O   UNL     1      -4.678   1.739   4.334  0.00  0.00    -0.174 OA
ATOM     34  C   UNL     1      -2.362   1.107   3.170  0.00  0.00    +0.186 C 
ENDBRANCH  26  28
ENDBRANCH  23  26
ENDBRANCH   4  23
TORSDOF 6
