REMARK  Name = ZINC35513904
REMARK  9 active torsions:
REMARK  status: ('A' for Active; 'I' for Inactive)
REMARK    1  A    between atoms: C_1  and  C_2
REMARK    2  A    between atoms: C_2  and  C_3
REMARK    3  A    between atoms: C_3  and  C_5
REMARK    4  A    between atoms: C_3  and  N_6
REMARK    5  A    between atoms: C_7  and  C_9
REMARK    6  A    between atoms: C_11  and  N_21
REMARK    7  A    between atoms: C_14  and  N_15
REMARK    8  A    between atoms: N_21  and  S_22
REMARK    9  A    between atoms: S_22  and  C_25
REMARK                            x       y       z     vdW  Elec       q    Type
REMARK                         _______ _______ _______ _____ _____    ______ ____
ROOT
ATOM      1  C   UNL     1      -4.125   0.364  -2.511  0.00  0.00    +0.078 A 
ATOM      2  C   UNL     1      -3.381   0.717  -3.643  0.00  0.00    +0.044 A 
ATOM      3  C   UNL     1      -4.066   1.058  -4.802  0.00  0.00    +0.093 A 
ATOM      4  C   UNL     1      -5.455   1.038  -4.803  0.00  0.00    +0.139 A 
ATOM      5  N   UNL     1      -6.133   0.702  -3.722  0.00  0.00    -0.238 NA
ATOM      6  C   UNL     1      -5.527   0.364  -2.595  0.00  0.00    +0.133 A 
ENDROOT
BRANCH   6   7
ATOM      7  N   UNL     1      -6.282   0.013  -1.488  0.00  0.00    -0.318 N 
ATOM      8  C   UNL     1      -6.799   1.038  -0.569  0.00  0.00    +0.087 C 
ATOM      9  C   UNL     1      -8.297   0.794  -0.362  0.00  0.00    -0.063 C 
ATOM     10  N   UNL     1      -8.509  -0.587   0.090  0.00  0.00    +0.381 N 
ATOM     11  C   UNL     1      -8.098  -1.526  -0.962  0.00  0.00    -0.063 C 
ATOM     12  C   UNL     1      -6.594  -1.396  -1.201  0.00  0.00    +0.087 C 
ATOM     13  H   UNL     1      -7.964  -0.755   0.922  0.00  0.00    -0.086 HD
ATOM     14  H   UNL     1      -9.487  -0.725   0.298  0.00  0.00    -0.086 HD
ENDBRANCH   6   7
BRANCH   1  16
ATOM     15  N   UNL     1      -2.106  -0.118  -1.220  0.00  0.00    -0.309 N 
ATOM     16  C   UNL     1      -3.449  -0.007  -1.255  0.00  0.00    +0.248 C 
ATOM     17  O   UNL     1      -4.103  -0.212  -0.250  0.00  0.00    -0.270 OA
ATOM     18  H   UNL     1      -1.585   0.046  -2.021  0.00  0.00    +0.149 HD
BRANCH  15  19
ATOM     19  C   UNL     1      -1.434  -0.487   0.029  0.00  0.00    +0.070 C 
ATOM     20  C   UNL     1      -1.418  -2.011   0.169  0.00  0.00    +0.028 C 
BRANCH  19  22
ATOM     21  C   UNL     1      -0.015   1.569  -0.004  0.00  0.00    +0.005 C 
ATOM     22  C   UNL     1       0.003   0.039   0.010  0.00  0.00    +0.018 C 
ENDBRANCH  19  22
ENDBRANCH  15  19
ENDBRANCH   1  16
BRANCH   3  23
ATOM     23  N   UNL     1      -3.363   1.418  -5.959  0.00  0.00    -0.096 NA
BRANCH  23  24
ATOM     24  S   UNL     1      -4.189   1.823  -7.336  0.00  0.00    +0.092 S 
ATOM     25  O   UNL     1      -4.851   0.645  -7.774  0.00  0.00    -0.148 OA
ATOM     26  O   UNL     1      -4.886   3.029  -7.053  0.00  0.00    -0.148 OA
BRANCH  24  27
ATOM     27  C   UNL     1      -2.989   2.213  -8.567  0.00  0.00    +0.110 A 
ATOM     28  C   UNL     1      -2.531   3.511  -8.698  0.00  0.00    +0.030 A 
ATOM     29  C   UNL     1      -1.590   3.817  -9.663  0.00  0.00    +0.017 A 
ATOM     30  C   UNL     1      -1.106   2.825 -10.497  0.00  0.00    +0.018 A 
ATOM     31  C   UNL     1      -1.565   1.527 -10.364  0.00  0.00    +0.017 A 
ATOM     32  C   UNL     1      -2.502   1.220  -9.396  0.00  0.00    +0.030 A 
ATOM     33 BR   UNL     1       0.181   3.243 -11.817  0.00  0.00    -0.050 Br
ENDBRANCH  24  27
ENDBRANCH  23  24
ENDBRANCH   3  23
TORSDOF 7
