REMARK  Name = ZINC13258597
REMARK  6 active torsions:
REMARK  status: ('A' for Active; 'I' for Inactive)
REMARK    1  A    between atoms: C_1  and  C_2
REMARK    2  A    between atoms: C_5  and  C_27
REMARK    3  A    between atoms: C_7  and  N_8
REMARK    4  A    between atoms: C_9  and  C_11
REMARK    5  A    between atoms: N_16  and  S_17
REMARK    6  A    between atoms: S_17  and  C_20
REMARK                            x       y       z     vdW  Elec       q    Type
REMARK                         _______ _______ _______ _____ _____    ______ ____
ROOT
ATOM      1  C   UNL     1       1.089   1.936   0.047  0.00  0.00    +0.166 C 
ATOM      2  C   UNL     1       1.096   2.693  -1.298  0.00  0.00    +0.031 C 
ATOM      3  C   UNL     1       2.610   2.941  -1.546  0.00  0.00    +0.019 C 
ATOM      4  C   UNL     1       3.239   1.651  -0.965  0.00  0.00    +0.110 C 
ATOM      5  N   UNL     1       2.418   1.331   0.218  0.00  0.00    -0.165 NA
ENDROOT
BRANCH   1   7
ATOM      6  N   UNL     1      -1.231   1.148   0.385  0.00  0.00    -0.284 N 
ATOM      7  C   UNL     1       0.035   0.860   0.024  0.00  0.00    +0.236 C 
ATOM      8  O   UNL     1       0.325  -0.266  -0.324  0.00  0.00    -0.274 OA
ATOM      9  H   UNL     1      -1.479   2.063   0.593  0.00  0.00    +0.155 HD
BRANCH   6  16
ATOM     10  C   UNL     1      -3.394   1.473   2.199  0.00  0.00    +0.045 C 
ATOM     11  C   UNL     1      -3.262   0.247   1.333  0.00  0.00    -0.029 A 
ATOM     12  C   UNL     1      -4.212  -0.755   1.406  0.00  0.00    +0.006 A 
ATOM     13  C   UNL     1      -4.095  -1.883   0.620  0.00  0.00    +0.015 A 
ATOM     14  C   UNL     1      -3.016  -2.013  -0.257  0.00  0.00    +0.065 A 
ATOM     15  C   UNL     1      -2.060  -1.000  -0.335  0.00  0.00    +0.038 A 
ATOM     16  C   UNL     1      -2.187   0.129   0.459  0.00  0.00    +0.037 A 
BRANCH  14  17
ATOM     17  C   UNL     1      -2.888  -3.220  -1.100  0.00  0.00    +0.387 C 
ATOM     18  O   UNL     1      -1.949  -3.330  -1.863  0.00  0.00    -0.241 OA
ATOM     19  O   UNL     1      -3.812  -4.196  -1.023  0.00  0.00    -0.241 OA
ENDBRANCH  14  17
ENDBRANCH   6  16
ENDBRANCH   1   7
BRANCH   5  20
ATOM     20  S   UNL     1       2.912   0.438   1.522  0.00  0.00    +0.062 S 
ATOM     21  O   UNL     1       1.734  -0.037   2.159  0.00  0.00    -0.153 OA
ATOM     22  O   UNL     1       3.931  -0.435   1.055  0.00  0.00    -0.153 OA
BRANCH  20  23
ATOM     23  C   UNL     1       3.681   1.550   2.653  0.00  0.00    +0.106 A 
ATOM     24  C   UNL     1       5.054   1.713   2.635  0.00  0.00    +0.030 A 
ATOM     25  C   UNL     1       5.657   2.589   3.518  0.00  0.00    +0.022 A 
ATOM     26  C   UNL     1       4.888   3.294   4.427  0.00  0.00    +0.041 A 
ATOM     27  C   UNL     1       3.515   3.126   4.448  0.00  0.00    +0.022 A 
ATOM     28  C   UNL     1       2.912   2.254   3.561  0.00  0.00    +0.030 A 
ATOM     29 CL   UNL     1       5.645   4.389   5.540  0.00  0.00    -0.084 Cl
ENDBRANCH  20  23
ENDBRANCH   5  20
TORSDOF 5
