REMARK  Name = ZINC56768415
REMARK  5 active torsions:
REMARK  status: ('A' for Active; 'I' for Inactive)
REMARK    1  A    between atoms: C_1  and  C_2
REMARK    2  A    between atoms: C_5  and  S_25
REMARK    3  A    between atoms: C_6  and  N_8
REMARK    4  A    between atoms: N_11  and  C_12
REMARK    5  A    between atoms: S_25  and  C_28
REMARK                            x       y       z     vdW  Elec       q    Type
REMARK                         _______ _______ _______ _____ _____    ______ ____
ROOT
ATOM      1  N   UNL     1       0.051  -2.797   2.393  0.00  0.00    -0.268 N 
ATOM      2  C   UNL     1       0.149  -2.135   3.562  0.00  0.00    +0.304 C 
ATOM      3  O   UNL     1       0.133  -0.919   3.575  0.00  0.00    -0.252 OA
ATOM      4  N   UNL     1       0.266  -2.819   4.717  0.00  0.00    -0.295 N 
ATOM      5  H   UNL     1      -0.002  -3.766   2.387  0.00  0.00    +0.156 HD
ATOM      6  H   UNL     1       0.279  -3.789   4.707  0.00  0.00    +0.151 HD
ENDROOT
BRANCH   4   7
ATOM      7  C   UNL     1       0.373  -2.099   5.988  0.00  0.00    +0.092 C 
ATOM      8  C   UNL     1       1.091  -2.978   7.015  0.00  0.00    +0.025 C 
ATOM      9  C   UNL     1       1.232  -2.213   8.333  0.00  0.00    +0.021 C 
ATOM     10  C   UNL     1      -0.161  -1.877   8.875  0.00  0.00    +0.108 C 
ATOM     11  N   UNL     1      -0.910  -1.156   7.837  0.00  0.00    -0.298 N 
ATOM     12  C   UNL     1      -1.030  -1.760   6.503  0.00  0.00    +0.130 C 
ATOM     13  C   UNL     1      -1.493   0.069   8.111  0.00  0.00    +0.218 A 
ATOM     14  N   UNL     1      -2.168   0.693   7.156  0.00  0.00    -0.223 NA
ATOM     15  C   UNL     1      -2.737   1.864   7.384  0.00  0.00    +0.116 A 
ATOM     16  C   UNL     1      -2.622   2.439   8.640  0.00  0.00    +0.039 A 
ATOM     17  C   UNL     1      -1.909   1.760   9.616  0.00  0.00    +0.116 A 
ATOM     18  N   UNL     1      -1.369   0.589   9.323  0.00  0.00    -0.223 NA
ENDBRANCH   4   7
BRANCH   1  24
ATOM     19  C   UNL     1      -1.306   1.188  -0.147  0.00  0.00    +0.044 C 
ATOM     20  C   UNL     1      -0.625  -0.154  -0.073  0.00  0.00    -0.049 A 
ATOM     21  C   UNL     1      -0.022  -0.687  -1.198  0.00  0.00    +0.005 A 
ATOM     22  C   UNL     1       0.604  -1.918  -1.135  0.00  0.00    +0.029 A 
ATOM     23  C   UNL     1       0.630  -2.620   0.055  0.00  0.00    +0.109 A 
ATOM     24  C   UNL     1       0.026  -2.088   1.187  0.00  0.00    +0.060 A 
ATOM     25  C   UNL     1      -0.597  -0.849   1.120  0.00  0.00    +0.028 A 
BRANCH  23  26
ATOM     26  S   UNL     1       1.428  -4.189   0.135  0.00  0.00    -0.004 S 
ATOM     27  O   UNL     1       0.468  -5.054   0.725  0.00  0.00    -0.170 OA
ATOM     28  O   UNL     1       1.901  -4.423  -1.185  0.00  0.00    -0.170 OA
ATOM     29  C   UNL     1       2.826  -3.944   1.265  0.00  0.00    +0.200 C 
ENDBRANCH  23  26
ENDBRANCH   1  24
TORSDOF 3
