REMARK  Name = ZINC40713756
REMARK  6 active torsions:
REMARK  status: ('A' for Active; 'I' for Inactive)
REMARK    1  A    between atoms: C_1  and  S_2
REMARK    2  A    between atoms: S_2  and  N_5
REMARK    3  A    between atoms: N_5  and  C_6
REMARK    4  A    between atoms: C_6  and  C_7
REMARK    5  A    between atoms: C_7  and  N_8
REMARK    6  A    between atoms: C_10  and  N_16
REMARK                            x       y       z     vdW  Elec       q    Type
REMARK                         _______ _______ _______ _____ _____    ______ ____
ROOT
ATOM      1  N   UNL     1       4.205  -0.504  -2.903  0.00  0.00    -0.326 N 
ATOM      2  C   UNL     1       4.955  -1.102  -3.913  0.00  0.00    +0.140 A 
ATOM      3  C   UNL     1       6.303  -0.768  -4.066  0.00  0.00    +0.066 A 
ATOM      4  C   UNL     1       7.036  -1.374  -5.077  0.00  0.00    +0.043 A 
ATOM      5  C   UNL     1       6.394  -2.291  -5.900  0.00  0.00    +0.038 A 
ATOM      6  C   UNL     1       5.059  -2.572  -5.690  0.00  0.00    +0.128 A 
ATOM      7  N   UNL     1       4.386  -1.985  -4.716  0.00  0.00    -0.238 NA
ATOM      8 BR   UNL     1       7.341  -3.147  -7.296  0.00  0.00    -0.049 Br
ATOM      9  H   UNL     1       4.618   0.145  -2.311  0.00  0.00    +0.148 HD
ENDROOT
BRANCH   3  10
ATOM     10  N   UNL     1       6.906   0.163  -3.212  0.00  0.00    -0.355 N 
ATOM     11  H   UNL     1       6.387   0.582  -2.507  0.00  0.00    +0.142 HD
ATOM     12  H   UNL     1       7.843   0.389  -3.324  0.00  0.00    +0.142 HD
ENDBRANCH   3  10
BRANCH   1  13
ATOM     13  C   UNL     1       2.792  -0.854  -2.733  0.00  0.00    +0.120 C 
BRANCH  13  14
ATOM     14  C   UNL     1       2.207  -0.061  -1.563  0.00  0.00    +0.124 C 
BRANCH  14  15
ATOM     15  N   UNL     1       0.795  -0.411  -1.394  0.00  0.00    -0.193 NA
ATOM     16  H   UNL     1       0.324  -0.881  -2.099  0.00  0.00    +0.148 HD
BRANCH  15  18
ATOM     17  C   UNL     1      -0.022   1.810   0.012  0.00  0.00    +0.214 C 
ATOM     18  S   UNL     1       0.002  -0.004   0.002  0.00  0.00    +0.027 S 
ATOM     19  O   UNL     1       0.835  -0.488   1.046  0.00  0.00    -0.158 OA
ATOM     20  O   UNL     1      -1.315  -0.510  -0.168  0.00  0.00    -0.158 OA
ENDBRANCH  15  18
ENDBRANCH  14  15
ENDBRANCH  13  14
ENDBRANCH   1  13
TORSDOF 5
