REMARK  Name = ZINC46790102
REMARK  7 active torsions:
REMARK  status: ('A' for Active; 'I' for Inactive)
REMARK    1  A    between atoms: C_4  and  N_7
REMARK    2  A    between atoms: C_8  and  C_10
REMARK    3  A    between atoms: C_14  and  C_16
REMARK    4  A    between atoms: C_16  and  N_17
REMARK    5  A    between atoms: C_18  and  C_20
REMARK    6  A    between atoms: N_25  and  S_27
REMARK    7  A    between atoms: S_27  and  C_30
REMARK                            x       y       z     vdW  Elec       q    Type
REMARK                         _______ _______ _______ _____ _____    ______ ____
ROOT
ATOM      1  N   UNL     1       6.165  -6.659   1.838  0.00  0.00    -0.311 N 
ATOM      2  C   UNL     1       6.184  -7.964   2.171  0.00  0.00    +0.218 C 
ATOM      3  O   UNL     1       6.235  -8.810   1.303  0.00  0.00    -0.275 OA
ATOM      4  H   UNL     1       6.125  -5.982   2.532  0.00  0.00    +0.149 HD
ENDROOT
BRANCH   2   5
ATOM      5  C   UNL     1       6.143  -8.373   3.621  0.00  0.00    +0.091 C 
ATOM      6  C   UNL     1       7.355  -7.790   4.351  0.00  0.00    +0.015 C 
ATOM      7  C   UNL     1       7.296  -8.178   5.830  0.00  0.00    +0.018 C 
ATOM      8  C   UNL     1       7.344  -9.704   5.957  0.00  0.00    +0.109 C 
ATOM      9  N   UNL     1       6.268 -10.280   5.139  0.00  0.00    -0.175 NA
ATOM     10  C   UNL     1       6.177  -9.902   3.722  0.00  0.00    +0.122 C 
BRANCH   9  11
ATOM     11  S   UNL     1       5.178 -11.336   5.801  0.00  0.00    +0.067 S 
ATOM     12  O   UNL     1       4.664 -12.114   4.730  0.00  0.00    -0.152 OA
ATOM     13  O   UNL     1       5.813 -11.919   6.931  0.00  0.00    -0.152 OA
BRANCH  11  14
ATOM     14  C   UNL     1       3.834 -10.378   6.419  0.00  0.00    +0.143 A 
ATOM     15  C   UNL     1       2.695 -10.001   5.789  0.00  0.00    +0.036 A 
ATOM     16  C   UNL     1       1.767  -9.242   6.478  0.00  0.00    +0.010 A 
ATOM     17  C   UNL     1       2.025  -8.897   7.763  0.00  0.00    +0.047 A 
ATOM     18  S   UNL     1       3.616  -9.659   8.038  0.00  0.00    -0.077 S 
ENDBRANCH  11  14
ENDBRANCH   9  11
ENDBRANCH   2   5
BRANCH   1  19
ATOM     19  C   UNL     1       6.205  -6.261   0.429  0.00  0.00    +0.139 C 
BRANCH  19  24
ATOM     20  C   UNL     1       4.936  -2.707   0.151  0.00  0.00    +0.037 A 
ATOM     21  C   UNL     1       6.134  -1.989   0.148  0.00  0.00    +0.013 A 
ATOM     22  C   UNL     1       7.336  -2.660   0.236  0.00  0.00    +0.001 A 
ATOM     23  C   UNL     1       7.356  -4.041   0.327  0.00  0.00    +0.005 A 
ATOM     24  C   UNL     1       6.173  -4.757   0.330  0.00  0.00    -0.030 A 
ATOM     25  C   UNL     1       4.964  -4.098   0.249  0.00  0.00    +0.018 A 
BRANCH  20  27
ATOM     26  N   UNL     1       3.621  -0.650  -0.037  0.00  0.00    -0.282 N 
ATOM     27  C   UNL     1       3.644  -1.994   0.057  0.00  0.00    +0.248 C 
ATOM     28  O   UNL     1       2.603  -2.621   0.064  0.00  0.00    -0.270 OA
ATOM     29  H   UNL     1       4.451  -0.155  -0.121  0.00  0.00    +0.155 HD
BRANCH  26  33
ATOM     30  C   UNL     1      -0.015   1.381   0.030  0.00  0.00    +0.000 A 
ATOM     31  C   UNL     1       0.140   0.219   0.764  0.00  0.00    +0.002 A 
ATOM     32  C   UNL     1       1.344  -0.457   0.744  0.00  0.00    +0.023 A 
ATOM     33  C   UNL     1       2.400   0.031  -0.015  0.00  0.00    +0.034 A 
ATOM     34  C   UNL     1       2.241   1.198  -0.751  0.00  0.00    +0.023 A 
ATOM     35  C   UNL     1       1.034   1.869  -0.727  0.00  0.00    +0.002 A 
ENDBRANCH  26  33
ENDBRANCH  20  27
ENDBRANCH  19  24
ENDBRANCH   1  19
TORSDOF 7
