REMARK  Name = ZINC39684186
REMARK  8 active torsions:
REMARK  status: ('A' for Active; 'I' for Inactive)
REMARK    1  A    between atoms: C_1  and  C_2
REMARK    2  A    between atoms: C_7  and  C_11
REMARK    3  A    between atoms: C_11  and  C_12
REMARK    4  A    between atoms: C_12  and  N_13
REMARK    5  A    between atoms: C_14  and  C_16
REMARK    6  A    between atoms: C_27  and  C_29
REMARK    7  A    between atoms: C_33  and  O_34
REMARK    8  A    between atoms: O_34  and  C_35
REMARK                            x       y       z     vdW  Elec       q    Type
REMARK                         _______ _______ _______ _____ _____    ______ ____
ROOT
ATOM      1  C   UNL     1      -8.691   1.737  -6.220  0.00  0.00    +0.100 C 
ATOM      2  C   UNL     1      -8.200   2.862  -7.158  0.00  0.00    +0.121 C 
ATOM      3  N   UNL     1      -7.818   2.166  -8.410  0.00  0.00    -0.296 N 
ATOM      4  C   UNL     1      -8.860   1.125  -8.585  0.00  0.00    +0.115 C 
ATOM      5  C   UNL     1      -9.127   0.601  -7.160  0.00  0.00    -0.004 C 
ATOM      6  C   UNL     1     -10.612   0.303  -6.977  0.00  0.00    -0.010 C 
ATOM      7  C   UNL     1     -11.008  -0.869  -7.879  0.00  0.00    -0.082 C 
ATOM      8  N   UNL     1     -10.206  -2.049  -7.533  0.00  0.00    +0.379 N 
ATOM      9  C   UNL     1      -8.787  -1.785  -7.801  0.00  0.00    -0.082 C 
ATOM     10  C   UNL     1      -8.296  -0.652  -6.896  0.00  0.00    -0.010 C 
ATOM     11  C   UNL     1      -6.763   2.421  -9.208  0.00  0.00    +0.251 C 
ATOM     12  O   UNL     1      -5.937   3.251  -8.878  0.00  0.00    -0.270 OA
ATOM     13  H   UNL     1     -10.328  -2.262  -6.555  0.00  0.00    -0.086 HD
ATOM     14  H   UNL     1     -10.510  -2.835  -8.087  0.00  0.00    -0.086 HD
ENDROOT
BRANCH  11  15
ATOM     15  C   UNL     1      -6.611   1.698 -10.480  0.00  0.00    +0.087 A 
ATOM     16  C   UNL     1      -7.702   1.332 -11.237  0.00  0.00    +0.063 A 
ATOM     17  S   UNL     1      -7.041   0.548 -12.565  0.00  0.00    -0.081 S 
ATOM     18  C   UNL     1      -5.310   0.673 -12.172  0.00  0.00    +0.120 A 
ATOM     19  C   UNL     1      -5.309   1.341 -10.996  0.00  0.00    +0.158 A 
ATOM     20 CL   UNL     1      -3.952   0.085 -13.080  0.00  0.00    -0.072 Cl
BRANCH  19  21
ATOM     21  O   UNL     1      -4.158   1.654 -10.340  0.00  0.00    -0.492 OA
ATOM     22  C   UNL     1      -3.665   0.694  -9.402  0.00  0.00    +0.277 C 
ENDBRANCH  19  21
ENDBRANCH  11  15
BRANCH   1  24
ATOM     23  N   UNL     1      -7.846   0.805  -4.090  0.00  0.00    -0.315 N 
ATOM     24  C   UNL     1      -7.571   1.276  -5.323  0.00  0.00    +0.218 C 
ATOM     25  O   UNL     1      -6.423   1.328  -5.710  0.00  0.00    -0.275 OA
ATOM     26  H   UNL     1      -8.764   0.763  -3.780  0.00  0.00    +0.149 HD
BRANCH  23  27
ATOM     27  C   UNL     1      -6.758   0.357  -3.218  0.00  0.00    +0.109 C 
BRANCH  27  28
ATOM     28  C   UNL     1      -7.337  -0.126  -1.887  0.00  0.00    +0.056 C 
BRANCH  28  35
ATOM     29  C   UNL     1      -2.596  -1.005   2.123  0.00  0.00    +0.046 C 
ATOM     30  C   UNL     1      -3.579  -0.093   1.434  0.00  0.00    -0.027 A 
ATOM     31  C   UNL     1      -3.573   1.258   1.703  0.00  0.00    +0.005 A 
ATOM     32  C   UNL     1      -4.472   2.109   1.075  0.00  0.00    +0.001 A 
ATOM     33  C   UNL     1      -5.380   1.620   0.179  0.00  0.00    +0.010 A 
ATOM     34  C   UNL     1      -5.404   0.254  -0.108  0.00  0.00    +0.003 A 
ATOM     35  C   UNL     1      -6.217  -0.587  -0.990  0.00  0.00    -0.021 A 
ATOM     36  C   UNL     1      -5.776  -1.847  -0.847  0.00  0.00    +0.087 A 
ATOM     37  N   UNL     1      -4.747  -1.881   0.054  0.00  0.00    -0.360 N 
ATOM     38  C   UNL     1      -4.490  -0.612   0.521  0.00  0.00    +0.050 A 
ATOM     39  H   UNL     1      -4.267  -2.681   0.322  0.00  0.00    +0.165 HD
ENDBRANCH  28  35
ENDBRANCH  27  28
ENDBRANCH  23  27
ENDBRANCH   1  24
TORSDOF 6
