REMARK  Name = ZINC16448595
REMARK  13 active torsions:
REMARK  status: ('A' for Active; 'I' for Inactive)
REMARK    1  A    between atoms: C_1  and  C_2
REMARK    2  A    between atoms: C_2  and  C_3
REMARK    3  A    between atoms: C_3  and  C_5
REMARK    4  A    between atoms: C_3  and  N_6
REMARK    5  A    between atoms: C_7  and  C_9
REMARK    6  A    between atoms: C_14  and  N_15
REMARK    7  A    between atoms: C_16  and  C_18
REMARK    8  A    between atoms: C_21  and  C_36
REMARK    9  A    between atoms: C_22  and  S_24
REMARK   10  A    between atoms: S_24  and  N_27
REMARK   11  A    between atoms: N_27  and  C_28
REMARK   12  A    between atoms: C_31  and  C_35
REMARK   13  A    between atoms: C_33  and  C_34
REMARK                            x       y       z     vdW  Elec       q    Type
REMARK                         _______ _______ _______ _____ _____    ______ ____
ROOT
ATOM      1  C   UNL     1       3.245   0.243  -4.702  0.00  0.00    +0.039 A 
ATOM      2  C   UNL     1       2.091   0.905  -5.123  0.00  0.00    +0.013 A 
ATOM      3  C   UNL     1       1.077   1.159  -4.222  0.00  0.00    +0.006 A 
ATOM      4  C   UNL     1       1.204   0.760  -2.903  0.00  0.00    -0.024 A 
ATOM      5  C   UNL     1       2.345   0.104  -2.479  0.00  0.00    +0.112 A 
ATOM      6  C   UNL     1       3.369  -0.152  -3.369  0.00  0.00    +0.042 A 
ATOM      7  C   UNL     1       0.092   1.040  -1.925  0.00  0.00    +0.046 C 
ENDROOT
BRANCH   1   9
ATOM      8  N   UNL     1       4.215   0.356  -6.947  0.00  0.00    -0.281 N 
ATOM      9  C   UNL     1       4.335  -0.032  -5.661  0.00  0.00    +0.248 C 
ATOM     10  O   UNL     1       5.340  -0.608  -5.292  0.00  0.00    -0.270 OA
ATOM     11  H   UNL     1       3.449   0.881  -7.225  0.00  0.00    +0.155 HD
BRANCH   8  17
ATOM     12  C   UNL     1       5.519   0.878  -8.921  0.00  0.00    +0.058 A 
ATOM     13  C   UNL     1       6.504   0.514  -9.842  0.00  0.00    +0.015 A 
ATOM     14  C   UNL     1       7.139  -0.703  -9.724  0.00  0.00    +0.001 A 
ATOM     15  C   UNL     1       6.810  -1.568  -8.692  0.00  0.00    +0.002 A 
ATOM     16  C   UNL     1       5.843  -1.220  -7.771  0.00  0.00    +0.024 A 
ATOM     17  C   UNL     1       5.191   0.003  -7.874  0.00  0.00    +0.046 A 
BRANCH  12  19
ATOM     18  N   UNL     1       5.065   2.964 -10.113  0.00  0.00    -0.309 N 
ATOM     19  C   UNL     1       4.830   2.176  -9.045  0.00  0.00    +0.246 C 
ATOM     20  O   UNL     1       4.051   2.536  -8.184  0.00  0.00    -0.270 OA
ATOM     21  H   UNL     1       5.686   2.677 -10.800  0.00  0.00    +0.149 HD
BRANCH  18  22
ATOM     22  C   UNL     1       4.381   4.254 -10.236  0.00  0.00    +0.070 C 
ATOM     23  C   UNL     1       5.160   5.320  -9.463  0.00  0.00    +0.028 C 
BRANCH  22  25
ATOM     24  C   UNL     1       3.418   3.650 -12.461  0.00  0.00    +0.005 C 
ATOM     25  C   UNL     1       4.301   4.650 -11.712  0.00  0.00    +0.018 C 
ENDBRANCH  22  25
ENDBRANCH  18  22
ENDBRANCH  12  19
ENDBRANCH   8  17
ENDBRANCH   1   9
BRANCH   5  26
ATOM     26  S   UNL     1       2.496  -0.400  -0.798  0.00  0.00    +0.073 S 
ATOM     27  O   UNL     1       2.164   0.730  -0.004  0.00  0.00    -0.150 OA
ATOM     28  O   UNL     1       3.744  -1.071  -0.685  0.00  0.00    -0.150 OA
BRANCH  26  29
ATOM     29  N   UNL     1       1.323  -1.535  -0.519  0.00  0.00    -0.216 N 
ATOM     30  H   UNL     1       0.648  -1.379   0.160  0.00  0.00    +0.174 HD
BRANCH  29  31
ATOM     31  C   UNL     1       1.304  -2.717  -1.263  0.00  0.00    +0.051 A 
ATOM     32  C   UNL     1       2.497  -3.310  -1.658  0.00  0.00    +0.025 A 
ATOM     33  C   UNL     1       2.474  -4.476  -2.398  0.00  0.00    +0.005 A 
ATOM     34  C   UNL     1       1.267  -5.059  -2.736  0.00  0.00    -0.050 A 
ATOM     35  C   UNL     1       0.078  -4.472  -2.344  0.00  0.00    +0.008 A 
ATOM     36  C   UNL     1       0.093  -3.303  -1.609  0.00  0.00    -0.028 A 
ATOM     37  C   UNL     1      -1.203  -2.664  -1.182  0.00  0.00    +0.046 C 
ATOM     38  C   UNL     1       1.246  -6.335  -3.538  0.00  0.00    +0.044 C 
ENDBRANCH  29  31
ENDBRANCH  26  29
ENDBRANCH   5  26
TORSDOF 8
