REMARK  Name = ZINC35778138
REMARK  17 active torsions:
REMARK  status: ('A' for Active; 'I' for Inactive)
REMARK    1  A    between atoms: C_1  and  N_2
REMARK    2  A    between atoms: C_3  and  O_31
REMARK    3  A    between atoms: C_4  and  C_13
REMARK    4  A    between atoms: C_5  and  C_7
REMARK    5  A    between atoms: C_13  and  N_14
REMARK    6  A    between atoms: N_14  and  C_15
REMARK    7  A    between atoms: N_14  and  C_19
REMARK    8  A    between atoms: C_15  and  C_16
REMARK    9  A    between atoms: C_16  and  O_17
REMARK   10  A    between atoms: O_17  and  C_18
REMARK   11  A    between atoms: C_19  and  C_20
REMARK   12  A    between atoms: C_20  and  C_22
REMARK   13  A    between atoms: C_20  and  O_30
REMARK   14  A    between atoms: C_22  and  O_23
REMARK   15  A    between atoms: O_23  and  C_24
REMARK   16  A    between atoms: C_24  and  C_25
REMARK   17  A    between atoms: O_31  and  C_32
REMARK                            x       y       z     vdW  Elec       q    Type
REMARK                         _______ _______ _______ _____ _____    ______ ____
ROOT
ATOM      1  C   UNL     1      -0.007  -6.449   2.296  0.00  0.00    +0.176 C 
ATOM      2  N   UNL     1      -0.313  -5.883   0.979  0.00  0.00    -0.235 N 
ATOM      3  C   UNL     1       0.096  -4.674   0.515  0.00  0.00    +0.221 A 
ATOM      4  C   UNL     1      -0.396  -4.525  -0.741  0.00  0.00    +0.025 A 
ATOM      5  C   UNL     1      -1.131  -5.684  -1.056  0.00  0.00    +0.098 A 
ATOM      6  N   UNL     1      -1.074  -6.498  -0.024  0.00  0.00    -0.168 NA
ENDROOT
BRANCH   5   7
ATOM      7  C   UNL     1      -1.842  -5.944  -2.333  0.00  0.00    +0.002 A 
ATOM      8  C   UNL     1      -2.600  -4.939  -2.929  0.00  0.00    +0.010 A 
ATOM      9  C   UNL     1      -3.259  -5.187  -4.116  0.00  0.00    +0.001 A 
ATOM     10  C   UNL     1      -3.168  -6.431  -4.713  0.00  0.00    +0.000 A 
ATOM     11  C   UNL     1      -2.417  -7.433  -4.125  0.00  0.00    +0.001 A 
ATOM     12  C   UNL     1      -1.749  -7.194  -2.942  0.00  0.00    +0.010 A 
ENDBRANCH   5   7
BRANCH   4  13
ATOM     13  C   UNL     1      -0.192  -3.332  -1.639  0.00  0.00    -0.035 C 
BRANCH  13  14
ATOM     14  N   UNL     1       1.099  -3.452  -2.328  0.00  0.00    +0.386 N 
ATOM     15  H   UNL     1       1.834  -3.576  -1.647  0.00  0.00    -0.081 HD
BRANCH  14  16
ATOM     16  C   UNL     1       1.354  -2.234  -3.107  0.00  0.00    -0.050 C 
BRANCH  16  17
ATOM     17  C   UNL     1       1.540  -1.050  -2.156  0.00  0.00    +0.141 C 
BRANCH  17  18
ATOM     18  O   UNL     1       2.690  -1.272  -1.338  0.00  0.00    -0.385 OA
ATOM     19  C   UNL     1       2.954  -0.218  -0.408  0.00  0.00    +0.193 C 
ENDBRANCH  17  18
ENDBRANCH  16  17
ENDBRANCH  14  16
BRANCH  14  20
ATOM     20  C   UNL     1       1.067  -4.612  -3.229  0.00  0.00    -0.044 C 
BRANCH  20  21
ATOM     21  C   UNL     1       2.450  -4.812  -3.852  0.00  0.00    +0.124 C 
BRANCH  21  22
ATOM     22  O   UNL     1       3.389  -5.153  -2.830  0.00  0.00    -0.391 OA
ATOM     23  H   UNL     1       3.171  -5.965  -2.351  0.00  0.00    +0.210 HD
ENDBRANCH  21  22
BRANCH  21  24
ATOM     24  C   UNL     1       2.387  -5.941  -4.883  0.00  0.00    +0.189 C 
BRANCH  24  25
ATOM     25  O   UNL     1       3.647  -6.050  -5.548  0.00  0.00    -0.370 OA
BRANCH  25  26
ATOM     26  C   UNL     1       3.695  -7.080  -6.537  0.00  0.00    +0.234 C 
BRANCH  26  27
ATOM     27  C   UNL     1       5.062  -7.106  -7.170  0.00  0.00    +0.130 A 
ATOM     28  C   UNL     1       6.112  -7.833  -6.747  0.00  0.00    +0.047 A 
ATOM     29  C   UNL     1       7.184  -7.555  -7.626  0.00  0.00    +0.041 A 
ATOM     30  C   UNL     1       6.725  -6.674  -8.534  0.00  0.00    +0.195 A 
ATOM     31  O   UNL     1       5.438  -6.410  -8.256  0.00  0.00    -0.465 OA
ENDBRANCH  26  27
ENDBRANCH  25  26
ENDBRANCH  24  25
ENDBRANCH  21  24
ENDBRANCH  20  21
ENDBRANCH  14  20
ENDBRANCH  13  14
ENDBRANCH   4  13
BRANCH   3  32
ATOM     32  O   UNL     1       0.859  -3.776   1.188  0.00  0.00    -0.438 OA
BRANCH  32  33
ATOM     33  C   UNL     1       0.230  -2.880   1.994  0.00  0.00    +0.130 A 
ATOM     34  C   UNL     1      -1.140  -2.971   2.196  0.00  0.00    +0.048 A 
ATOM     35  C   UNL     1      -1.778  -2.060   3.016  0.00  0.00    +0.023 A 
ATOM     36  C   UNL     1      -1.052  -1.058   3.634  0.00  0.00    +0.041 A 
ATOM     37  C   UNL     1       0.314  -0.965   3.433  0.00  0.00    +0.023 A 
ATOM     38  C   UNL     1       0.957  -1.877   2.619  0.00  0.00    +0.048 A 
ATOM     39 CL   UNL     1      -1.856   0.086   4.663  0.00  0.00    -0.084 Cl
ENDBRANCH  32  33
ENDBRANCH   3  32
TORSDOF 15
