REMARK  Name = ZINC01215191
REMARK  4 active torsions:
REMARK  status: ('A' for Active; 'I' for Inactive)
REMARK    1  A    between atoms: C_1  and  C_2
REMARK    2  A    between atoms: C_8  and  C_10
REMARK    3  A    between atoms: C_15  and  C_28
REMARK    4  A    between atoms: C_18  and  C_21
REMARK                            x       y       z     vdW  Elec       q    Type
REMARK                         _______ _______ _______ _____ _____    ______ ____
ROOT
ATOM      1  C   UNL     1      -3.627  -4.363  -0.006  0.00  0.00    +0.168 A 
ATOM      2  C   UNL     1      -5.041  -4.378  -0.004  0.00  0.00    +0.112 A 
ATOM      3  C   UNL     1      -5.434  -5.668  -0.007  0.00  0.00    +0.137 A 
ATOM      4  N   UNL     1      -4.317  -6.454  -0.012  0.00  0.00    -0.237 N 
ATOM      5  N   UNL     1      -3.203  -5.615  -0.015  0.00  0.00    -0.163 NA
ATOM      6  C   UNL     1      -4.354  -7.919  -0.021  0.00  0.00    +0.215 C 
ATOM      7  C   UNL     1      -5.734  -8.378  -0.503  0.00  0.00    +0.063 C 
ATOM      8  C   UNL     1      -6.830  -7.647   0.280  0.00  0.00    +0.104 C 
ATOM      9  N   UNL     1      -6.727  -6.202  -0.004  0.00  0.00    -0.321 N 
ATOM     10 CL   UNL     1      -6.081  -2.989   0.000  0.00  0.00    -0.078 Cl
ATOM     11  H   UNL     1      -7.509  -5.656  -0.179  0.00  0.00    +0.148 HD
ENDROOT
BRANCH   1  19
ATOM     12  C   UNL     1      -0.018   1.503   0.010  0.00  0.00    +0.089 C 
ATOM     13  C   UNL     1       0.002  -0.004   0.002  0.00  0.00    +0.136 A 
ATOM     14  C   UNL     1      -1.076  -0.807   0.003  0.00  0.00    +0.091 A 
ATOM     15  C   UNL     1      -0.625  -2.147  -0.007  0.00  0.00    +0.168 A 
ATOM     16  N   UNL     1       0.683  -2.130  -0.013  0.00  0.00    -0.063 NA
ATOM     17  O   UNL     1       1.100  -0.776  -0.013  0.00  0.00    -0.358 OA
ATOM     18  N   UNL     1      -1.432  -3.284  -0.010  0.00  0.00    -0.262 N 
ATOM     19  C   UNL     1      -2.773  -3.159  -0.003  0.00  0.00    +0.271 C 
ATOM     20  O   UNL     1      -3.281  -2.054   0.006  0.00  0.00    -0.268 OA
ATOM     21  H   UNL     1      -1.027  -4.165  -0.017  0.00  0.00    +0.157 HD
ENDBRANCH   1  19
BRANCH   8  22
ATOM     22  C   UNL     1      -6.646  -7.891   1.756  0.00  0.00    -0.027 A 
ATOM     23  C   UNL     1      -5.711  -7.160   2.465  0.00  0.00    +0.006 A 
ATOM     24  C   UNL     1      -5.542  -7.383   3.819  0.00  0.00    +0.015 A 
ATOM     25  C   UNL     1      -6.308  -8.337   4.464  0.00  0.00    +0.018 A 
ATOM     26  C   UNL     1      -7.244  -9.067   3.754  0.00  0.00    +0.015 A 
ATOM     27  C   UNL     1      -7.416  -8.840   2.401  0.00  0.00    +0.006 A 
ATOM     28 BR   UNL     1      -6.077  -8.642   6.316  0.00  0.00    -0.050 Br
ENDBRANCH   8  22
BRANCH   6  29
ATOM     29  C   UNL     1      -3.275  -8.453  -0.965  0.00  0.00    +0.412 C 
ATOM     30  F   UNL     1      -2.018  -8.022  -0.528  0.00  0.00    -0.168 F 
ATOM     31  F   UNL     1      -3.312  -9.852  -0.972  0.00  0.00    -0.168 F 
ATOM     32  F   UNL     1      -3.508  -7.974  -2.259  0.00  0.00    -0.168 F 
ENDBRANCH   6  29
TORSDOF 3
