REMARK  Name = ZINC38719662
REMARK  7 active torsions:
REMARK  status: ('A' for Active; 'I' for Inactive)
REMARK    1  A    between atoms: C_1  and  C_2
REMARK    2  A    between atoms: C_4  and  N_20
REMARK    3  A    between atoms: C_7  and  N_8
REMARK    4  A    between atoms: N_8  and  S_9
REMARK    5  A    between atoms: S_9  and  C_12
REMARK    6  A    between atoms: C_13  and  C_19
REMARK    7  A    between atoms: C_16  and  C_18
REMARK                            x       y       z     vdW  Elec       q    Type
REMARK                         _______ _______ _______ _____ _____    ______ ____
ROOT
ATOM      1  N   UNL     1       0.025  -0.011   2.417  0.00  0.00    -0.216 N 
ATOM      2  H   UNL     1      -0.521   0.785   2.511  0.00  0.00    +0.174 HD
ENDROOT
BRANCH   1   9
ATOM      3  C   UNL     1       0.154   1.690   0.142  0.00  0.00    +0.046 C 
ATOM      4  C   UNL     1       0.257   0.191   0.022  0.00  0.00    -0.026 A 
ATOM      5  C   UNL     1       0.424  -0.392  -1.219  0.00  0.00    +0.028 A 
ATOM      6  C   UNL     1       0.520  -1.773  -1.330  0.00  0.00    +0.025 A 
ATOM      7  C   UNL     1       0.447  -2.567  -0.193  0.00  0.00    +0.024 A 
ATOM      8  C   UNL     1       0.279  -1.984   1.047  0.00  0.00    +0.026 A 
ATOM      9  C   UNL     1       0.189  -0.603   1.159  0.00  0.00    +0.051 A 
BRANCH   6  10
ATOM     10  N   UNL     1       0.689  -2.364  -2.587  0.00  0.00    -0.358 N 
ATOM     11  H   UNL     1       0.740  -1.810  -3.381  0.00  0.00    +0.142 HD
ATOM     12  H   UNL     1       0.756  -3.329  -2.665  0.00  0.00    +0.142 HD
ENDBRANCH   6  10
ENDBRANCH   1   9
BRANCH   1  13
ATOM     13  S   UNL     1       0.764  -0.670   3.744  0.00  0.00    +0.072 S 
ATOM     14  O   UNL     1       0.519   0.216   4.827  0.00  0.00    -0.150 OA
ATOM     15  O   UNL     1       0.387  -2.040   3.781  0.00  0.00    -0.150 OA
BRANCH  13  16
ATOM     16  C   UNL     1       2.500  -0.633   3.446  0.00  0.00    +0.134 C 
ATOM     17  C   UNL     1       3.300  -1.650   3.117  0.00  0.00    +0.085 C 
ATOM     18  N   UNL     1       4.576  -1.230   2.971  0.00  0.00    -0.157 NA
ATOM     19  N   UNL     1       4.743  -0.023   3.166  0.00  0.00    -0.178 NA
ATOM     20  C   UNL     1       3.433   0.564   3.498  0.00  0.00    +0.176 C 
ATOM     21  C   UNL     1       3.027   1.611   2.458  0.00  0.00    +0.041 C 
ATOM     22  C   UNL     1       2.842  -3.074   2.934  0.00  0.00    +0.069 C 
ENDBRANCH  13  16
ENDBRANCH   1  13
TORSDOF 4
