REMARK  Name = ZINC66890907
REMARK  9 active torsions:
REMARK  status: ('A' for Active; 'I' for Inactive)
REMARK    1  A    between atoms: C_1  and  C_2
REMARK    2  A    between atoms: C_5  and  N_9
REMARK    3  A    between atoms: C_6  and  C_8
REMARK    4  A    between atoms: C_10  and  C_12
REMARK    5  A    between atoms: C_12  and  C_14
REMARK    6  A    between atoms: C_12  and  N_15
REMARK    7  A    between atoms: C_18  and  N_21
REMARK    8  A    between atoms: C_22  and  C_24
REMARK    9  A    between atoms: C_28  and  C_29
REMARK                            x       y       z     vdW  Elec       q    Type
REMARK                         _______ _______ _______ _____ _____    ______ ____
ROOT
ATOM      1  N   UNL     1      -0.112  -6.835  -2.571  0.00  0.00    +0.387 N 
ATOM      2  C   UNL     1       1.079  -6.314  -3.254  0.00  0.00    -0.076 C 
ATOM      3  C   UNL     1       1.065  -6.757  -4.719  0.00  0.00    +0.004 C 
ATOM      4  C   UNL     1       1.065  -8.287  -4.784  0.00  0.00    +0.070 C 
ATOM      5  C   UNL     1      -0.141  -8.821  -4.005  0.00  0.00    +0.004 C 
ATOM      6  C   UNL     1      -0.082  -8.302  -2.567  0.00  0.00    -0.076 C 
ATOM      7  H   UNL     1      -0.939  -6.517  -3.053  0.00  0.00    -0.081 HD
ENDROOT
BRANCH   4   8
ATOM      8  N   UNL     1       0.975  -8.718  -6.181  0.00  0.00    -0.309 N 
ATOM      9  C   UNL     1       1.449  -9.926  -6.546  0.00  0.00    +0.248 C 
ATOM     10  O   UNL     1       1.951 -10.658  -5.715  0.00  0.00    -0.270 OA
ATOM     11  H   UNL     1       0.575  -8.134  -6.844  0.00  0.00    +0.149 HD
BRANCH   9  12
ATOM     12  C   UNL     1       1.359 -10.359  -7.952  0.00  0.00    +0.077 A 
ATOM     13  C   UNL     1       0.793  -9.605  -9.080  0.00  0.00    +0.054 A 
ATOM     14  C   UNL     1       0.929 -10.394 -10.156  0.00  0.00    +0.196 A 
ATOM     15  O   UNL     1       1.518 -11.542  -9.788  0.00  0.00    -0.467 OA
ATOM     16  C   UNL     1       1.788 -11.542  -8.479  0.00  0.00    +0.114 A 
ATOM     17  C   UNL     1       2.450 -12.659  -7.715  0.00  0.00    +0.087 C 
ENDBRANCH   9  12
ENDBRANCH   4   8
BRANCH   1  18
ATOM     18  C   UNL     1      -0.134  -6.343  -1.187  0.00  0.00    +0.016 C 
ATOM     19  C   UNL     1      -1.303  -6.984  -0.437  0.00  0.00    -0.004 C 
BRANCH  18  21
ATOM     20  N   UNL     1      -0.081  -4.141  -0.060  0.00  0.00    -0.287 N 
ATOM     21  C   UNL     1      -0.299  -4.845  -1.189  0.00  0.00    +0.203 C 
ATOM     22  O   UNL     1      -0.627  -4.272  -2.206  0.00  0.00    -0.277 OA
ATOM     23  H   UNL     1       0.255  -4.588   0.733  0.00  0.00    +0.155 HD
BRANCH  20  28
ATOM     24  C   UNL     1      -1.132   1.432   0.056  0.00  0.00    +0.044 C 
ATOM     25  C   UNL     1      -0.853  -0.048   0.025  0.00  0.00    -0.050 A 
ATOM     26  C   UNL     1      -0.389  -0.639  -1.136  0.00  0.00    +0.005 A 
ATOM     27  C   UNL     1      -0.132  -1.996  -1.167  0.00  0.00    +0.024 A 
ATOM     28  C   UNL     1      -0.340  -2.767  -0.031  0.00  0.00    +0.036 A 
ATOM     29  C   UNL     1      -0.805  -2.171   1.133  0.00  0.00    -0.029 A 
ATOM     30  C   UNL     1      -1.056  -0.812   1.160  0.00  0.00    +0.008 A 
ATOM     31  C   UNL     1      -1.032  -3.004   2.369  0.00  0.00    +0.045 C 
ENDBRANCH  20  28
ENDBRANCH  18  21
ENDBRANCH   1  18
TORSDOF 5
