REMARK  Name = ZINC04623712
REMARK  4 active torsions:
REMARK  status: ('A' for Active; 'I' for Inactive)
REMARK    1  A    between atoms: C_1  and  C_2
REMARK    2  A    between atoms: N_4  and  C_5
REMARK    3  A    between atoms: C_22  and  C_25
REMARK    4  A    between atoms: C_28  and  C_31
REMARK                            x       y       z     vdW  Elec       q    Type
REMARK                         _______ _______ _______ _____ _____    ______ ____
ROOT
ATOM      1  C   UNL     1      -0.308   1.127   0.151  0.00  0.00    +0.034 A 
ATOM      2  C   UNL     1      -0.393  -0.258   0.114  0.00  0.00    +0.025 A 
ATOM      3  C   UNL     1       0.765  -1.014   0.131  0.00  0.00    +0.025 A 
ATOM      4  C   UNL     1       1.992  -0.382   0.185  0.00  0.00    +0.031 A 
ATOM      5  C   UNL     1       2.091   1.004   0.190  0.00  0.00    -0.021 A 
ATOM      6  C   UNL     1       0.928   1.756   0.188  0.00  0.00    +0.029 A 
ATOM      7  C   UNL     1       3.421   1.692   0.154  0.00  0.00    +0.029 C 
ATOM      8  C   UNL     1       3.779   1.981  -1.340  0.00  0.00    -0.003 C 
ATOM      9  C   UNL     1       3.600   0.568  -2.045  0.00  0.00    +0.004 C 
ATOM     10  C   UNL     1       4.774  -0.280  -1.505  0.00  0.00    +0.004 C 
ATOM     11  C   UNL     1       5.541   0.674  -0.541  0.00  0.00    -0.005 C 
ATOM     12  C   UNL     1       5.344   2.060  -1.254  0.00  0.00    +0.008 C 
ATOM     13  C   UNL     1       4.587   0.853   0.679  0.00  0.00    +0.024 C 
ATOM     14  C   UNL     1       4.182  -0.512   1.206  0.00  0.00    +0.105 C 
ATOM     15  N   UNL     1       3.191  -1.111   0.289  0.00  0.00    -0.336 N 
ATOM     16  H   UNL     1       3.353  -1.934  -0.198  0.00  0.00    +0.147 HD
ENDROOT
BRANCH  14  17
ATOM     17  C   UNL     1       5.396  -1.400   1.288  0.00  0.00    -0.027 A 
ATOM     18  C   UNL     1       5.564  -2.423   0.371  0.00  0.00    +0.007 A 
ATOM     19  C   UNL     1       6.676  -3.237   0.437  0.00  0.00    +0.019 A 
ATOM     20  C   UNL     1       7.628  -3.034   1.438  0.00  0.00    +0.052 A 
ATOM     21  C   UNL     1       7.449  -2.004   2.364  0.00  0.00    +0.019 A 
ATOM     22  C   UNL     1       6.335  -1.194   2.283  0.00  0.00    +0.007 A 
BRANCH  20  23
ATOM     23  C   UNL     1       8.781  -3.879   1.517  0.00  0.00    +0.099 C 
ATOM     24  N   UNL     1       9.696  -4.549   1.579  0.00  0.00    -0.191 NA
ENDBRANCH  20  23
ENDBRANCH  14  17
BRANCH   1  28
ATOM     25  C   UNL     1      -3.876   2.216   0.669  0.00  0.00    +0.109 C 
ATOM     26  C   UNL     1      -2.583   1.449   0.775  0.00  0.00    +0.214 C 
ATOM     27  O   UNL     1      -2.536   0.428   1.429  0.00  0.00    -0.276 OA
ATOM     28  N   UNL     1      -1.480   1.896   0.144  0.00  0.00    -0.286 N 
ATOM     29  H   UNL     1      -1.497   2.751  -0.315  0.00  0.00    +0.155 HD
ENDBRANCH   1  28
TORSDOF 3
