REMARK  Name = ZINC09265888
REMARK  6 active torsions:
REMARK  status: ('A' for Active; 'I' for Inactive)
REMARK    1  A    between atoms: C_1  and  C_2
REMARK    2  A    between atoms: C_7  and  N_8
REMARK    3  A    between atoms: C_9  and  C_11
REMARK    4  A    between atoms: N_14  and  S_17
REMARK    5  A    between atoms: S_17  and  C_20
REMARK    6  A    between atoms: C_29  and  C_32
REMARK                            x       y       z     vdW  Elec       q    Type
REMARK                         _______ _______ _______ _____ _____    ______ ____
ROOT
ATOM      1  C   UNL     1       2.423  -4.237  -0.260  0.00  0.00    +0.078 C 
ATOM      2  C   UNL     1       1.774  -4.856   0.980  0.00  0.00    +0.030 C 
ATOM      3  C   UNL     1       1.759  -6.381   0.836  0.00  0.00    +0.110 C 
ATOM      4  N   UNL     1       3.130  -6.845   0.578  0.00  0.00    -0.177 NA
ATOM      5  C   UNL     1       3.878  -6.248  -0.537  0.00  0.00    +0.110 C 
ATOM      6  C   UNL     1       3.869  -4.725  -0.378  0.00  0.00    +0.030 C 
ENDROOT
BRANCH   1   8
ATOM      7  N   UNL     1       1.236  -2.080  -0.021  0.00  0.00    -0.285 N 
ATOM      8  C   UNL     1       2.408  -2.735  -0.138  0.00  0.00    +0.220 C 
ATOM      9  O   UNL     1       3.451  -2.116  -0.144  0.00  0.00    -0.275 OA
ATOM     10  H   UNL     1       0.408  -2.579   0.064  0.00  0.00    +0.155 HD
BRANCH   7  17
ATOM     11  C   UNL     1      -0.944  -0.769   1.253  0.00  0.00    +0.046 C 
ATOM     12  C   UNL     1       0.168  -0.001   0.586  0.00  0.00    -0.028 A 
ATOM     13  C   UNL     1       0.147   1.380   0.582  0.00  0.00    +0.025 A 
ATOM     14  C   UNL     1       1.168   2.086  -0.030  0.00  0.00    +0.041 A 
ATOM     15  C   UNL     1       2.211   1.411  -0.640  0.00  0.00    +0.022 A 
ATOM     16  C   UNL     1       2.236   0.031  -0.638  0.00  0.00    +0.025 A 
ATOM     17  C   UNL     1       1.213  -0.681  -0.024  0.00  0.00    +0.036 A 
ATOM     18 CL   UNL     1       1.139   3.822  -0.035  0.00  0.00    -0.084 Cl
ENDBRANCH   7  17
ENDBRANCH   1   8
BRANCH   4  19
ATOM     19  S   UNL     1       3.817  -8.017   1.525  0.00  0.00    +0.061 S 
ATOM     20  O   UNL     1       2.746  -8.758   2.094  0.00  0.00    -0.153 OA
ATOM     21  O   UNL     1       4.834  -8.627   0.742  0.00  0.00    -0.153 OA
BRANCH  19  22
ATOM     22  C   UNL     1       4.629  -7.199   2.858  0.00  0.00    +0.107 A 
ATOM     23  C   UNL     1       5.953  -6.823   2.728  0.00  0.00    +0.030 A 
ATOM     24  C   UNL     1       6.592  -6.175   3.770  0.00  0.00    +0.018 A 
ATOM     25  C   UNL     1       5.905  -5.915   4.944  0.00  0.00    +0.030 A 
ATOM     26  C   UNL     1       4.571  -6.299   5.085  0.00  0.00    +0.049 A 
ATOM     27  C   UNL     1       3.940  -6.944   4.027  0.00  0.00    +0.053 A 
ATOM     28  N   UNL     1       3.863  -6.054   6.259  0.00  0.00    -0.284 N 
ATOM     29  C   UNL     1       4.154  -5.138   7.178  0.00  0.00    +0.230 C 
ATOM     30  O   UNL     1       3.429  -5.046   8.146  0.00  0.00    -0.274 OA
ATOM     31  C   UNL     1       5.334  -4.210   7.084  0.00  0.00    +0.134 C 
ATOM     32  S   UNL     1       6.708  -5.090   6.281  0.00  0.00    -0.111 S 
ATOM     33  C   UNL     1       5.756  -3.772   8.488  0.00  0.00    +0.029 C 
ATOM     34  H   UNL     1       3.081  -6.605   6.421  0.00  0.00    +0.155 HD
ENDBRANCH  19  22
ENDBRANCH   4  19
TORSDOF 4
