REMARK  Name = ZINC64435660
REMARK  5 active torsions:
REMARK  status: ('A' for Active; 'I' for Inactive)
REMARK    1  A    between atoms: C_1  and  C_2
REMARK    2  A    between atoms: C_2  and  C_4
REMARK    3  A    between atoms: C_2  and  N_17
REMARK    4  A    between atoms: N_6  and  C_7
REMARK    5  A    between atoms: N_23  and  C_26
REMARK                            x       y       z     vdW  Elec       q    Type
REMARK                         _______ _______ _______ _____ _____    ______ ____
ROOT
ATOM      1  N   UNL     1       0.390  -0.594  -1.171  0.00  0.00    -0.288 N 
ATOM      2  C   UNL     1       1.719  -0.755  -1.325  0.00  0.00    +0.303 C 
ATOM      3  O   UNL     1       2.471  -0.518  -0.399  0.00  0.00    -0.253 OA
ATOM      4  N   UNL     1       2.215  -1.178  -2.504  0.00  0.00    -0.283 N 
ATOM      5  C   UNL     1       1.314  -1.569  -3.597  0.00  0.00    +0.128 C 
ATOM      6  C   UNL     1       1.668  -0.748  -4.843  0.00  0.00    +0.124 C 
ATOM      7  N   UNL     1       3.120  -0.826  -5.059  0.00  0.00    -0.327 N 
ATOM      8  C   UNL     1       4.021  -0.434  -3.966  0.00  0.00    +0.124 C 
ATOM      9  C   UNL     1       3.666  -1.251  -2.723  0.00  0.00    +0.128 C 
ATOM     10  H   UNL     1      -0.216  -0.854  -1.883  0.00  0.00    +0.151 HD
ENDROOT
BRANCH   7  11
ATOM     11  C   UNL     1       3.634  -1.264  -6.282  0.00  0.00    +0.030 A 
ATOM     12  C   UNL     1       2.779  -1.506  -7.350  0.00  0.00    +0.024 A 
ATOM     13  C   UNL     1       3.289  -1.939  -8.558  0.00  0.00    +0.022 A 
ATOM     14  C   UNL     1       4.652  -2.133  -8.705  0.00  0.00    +0.041 A 
ATOM     15  C   UNL     1       5.506  -1.893  -7.643  0.00  0.00    +0.022 A 
ATOM     16  C   UNL     1       5.001  -1.454  -6.434  0.00  0.00    +0.024 A 
ATOM     17 CL   UNL     1       5.290  -2.678 -10.224  0.00  0.00    -0.084 Cl
ENDBRANCH   7  11
BRANCH   1  19
ATOM     18  C   UNL     1      -0.114   1.501  -0.014  0.00  0.00    +0.038 C 
ATOM     19  C   UNL     1      -0.141  -0.026   0.071  0.00  0.00    +0.158 C 
BRANCH  19  20
ATOM     20  C   UNL     1      -1.560  -0.493   0.271  0.00  0.00    +0.237 C 
ATOM     21  O   UNL     1      -2.077  -1.228  -0.544  0.00  0.00    -0.273 OA
ATOM     22  N   UNL     1      -2.254  -0.095   1.355  0.00  0.00    -0.284 N 
ATOM     23  H   UNL     1      -1.819   0.434   2.042  0.00  0.00    +0.155 HD
BRANCH  22  24
ATOM     24  C   UNL     1      -3.591  -0.440   1.488  0.00  0.00    +0.034 C 
ATOM     25  C   UNL     1      -4.549   0.543   1.609  0.00  0.00    +0.029 C 
ATOM     26  C   UNL     1      -5.869   0.081   1.679  0.00  0.00    -0.016 C 
ATOM     27  C   UNL     1      -6.973   0.556   2.289  0.00  0.00    +0.025 C 
ATOM     28  C   UNL     1      -7.972  -0.437   2.284  0.00  0.00    +0.106 C 
ATOM     29  N   UNL     1      -7.608  -1.499   1.617  0.00  0.00    -0.279 NA
ATOM     30  C   UNL     1      -6.304  -1.223   1.031  0.00  0.00    +0.158 C 
ATOM     31  C   UNL     1      -5.249  -2.249   1.316  0.00  0.00    +0.006 C 
ATOM     32  C   UNL     1      -3.988  -1.851   1.494  0.00  0.00    +0.021 C 
ENDBRANCH  22  24
ENDBRANCH  19  20
ENDBRANCH   1  19
TORSDOF 4
