REMARK  Name = ZINC14162302
REMARK  8 active torsions:
REMARK  status: ('A' for Active; 'I' for Inactive)
REMARK    1  A    between atoms: C_1  and  C_2
REMARK    2  A    between atoms: C_2  and  O_3
REMARK    3  A    between atoms: O_3  and  C_4
REMARK    4  A    between atoms: C_4  and  C_6
REMARK    5  A    between atoms: C_7  and  N_38
REMARK    6  A    between atoms: C_27  and  C_29
REMARK    7  A    between atoms: C_34  and  C_36
REMARK    8  A    between atoms: C_34  and  C_37
REMARK                            x       y       z     vdW  Elec       q    Type
REMARK                         _______ _______ _______ _____ _____    ______ ____
ROOT
ATOM      1  C   UNL     1      -0.706  -1.454   4.435  0.00  0.00    +0.117 C 
ATOM      2  C   UNL     1      -1.246  -1.534   5.680  0.00  0.00    +0.195 C 
ATOM      3  O   UNL     1      -2.522  -1.193   5.909  0.00  0.00    -0.446 OA
ATOM      4  C   UNL     1      -3.172  -0.386   5.050  0.00  0.00    +0.116 C 
ATOM      5  C   UNL     1      -2.759  -0.241   3.776  0.00  0.00    +0.057 C 
ATOM      6  C   UNL     1      -1.536  -0.970   3.283  0.00  0.00    +0.142 C 
ATOM      7  C   UNL     1      -1.917  -2.097   2.379  0.00  0.00    +0.001 A 
ATOM      8  C   UNL     1      -2.653  -3.252   2.535  0.00  0.00    +0.045 A 
ATOM      9  C   UNL     1      -2.783  -4.076   1.416  0.00  0.00    +0.124 A 
ATOM     10  C   UNL     1      -2.202  -3.767   0.192  0.00  0.00    +0.044 A 
ATOM     11  C   UNL     1      -1.466  -2.617   0.035  0.00  0.00    -0.020 A 
ATOM     12  C   UNL     1      -1.343  -1.792   1.153  0.00  0.00    +0.045 A 
ATOM     13  N   UNL     1      -0.643  -0.586   1.185  0.00  0.00    -0.263 N 
ATOM     14  C   UNL     1      -0.709  -0.040   2.410  0.00  0.00    +0.240 C 
ATOM     15  O   UNL     1      -0.201   1.006   2.756  0.00  0.00    -0.274 OA
ATOM     16  C   UNL     1       0.026  -0.094  -0.026  0.00  0.00    +0.043 C 
ATOM     17  C   UNL     1       0.013   1.439  -0.049  0.00  0.00    +0.026 C 
ATOM     18  C   UNL     1       1.490   1.888  -0.063  0.00  0.00    +0.002 C 
ATOM     19  C   UNL     1       2.257   0.691   0.551  0.00  0.00    +0.002 C 
ATOM     20  C   UNL     1       1.500  -0.534  -0.022  0.00  0.00    +0.026 C 
ATOM     21  C   UNL     1      -0.684  -0.649  -1.260  0.00  0.00    +0.034 C 
ATOM     22  C   UNL     1      -0.781  -2.178  -1.225  0.00  0.00    +0.020 C 
ATOM     23  C   UNL     1      -1.582  -2.663  -2.435  0.00  0.00    +0.012 C 
ATOM     24  F   UNL     1      -3.499  -5.216   1.527  0.00  0.00    -0.205 F 
ATOM     25  C   UNL     1      -3.453   0.587   2.872  0.00  0.00    +0.165 C 
ATOM     26  O   UNL     1      -3.042   0.702   1.735  0.00  0.00    -0.292 OA
ATOM     27  C   UNL     1      -4.693   1.330   3.288  0.00  0.00    +0.086 C 
ATOM     28  C   UNL     1      -5.383   0.552   4.414  0.00  0.00    -0.021 C 
ATOM     29  C   UNL     1      -4.383   0.362   5.555  0.00  0.00    +0.081 C 
ATOM     30  C   UNL     1      -5.835  -0.814   3.893  0.00  0.00    +0.012 C 
ATOM     31  C   UNL     1      -6.593   1.342   4.917  0.00  0.00    +0.012 C 
ENDROOT
BRANCH   2  32
ATOM     32  N   UNL     1      -0.472  -1.972   6.721  0.00  0.00    -0.329 N 
ATOM     33  H   UNL     1       0.472  -2.150   6.582  0.00  0.00    +0.145 HD
ATOM     34  H   UNL     1      -0.867  -2.105   7.597  0.00  0.00    +0.145 HD
ENDBRANCH   2  32
BRANCH   1  35
ATOM     35  C   UNL     1       0.632  -1.825   4.228  0.00  0.00    +0.342 C 
ATOM     36  O   UNL     1       0.895  -2.912   3.745  0.00  0.00    -0.245 OA
BRANCH  35  37
ATOM     37  O   UNL     1       1.628  -0.976   4.563  0.00  0.00    -0.462 OA
BRANCH  37  39
ATOM     38  C   UNL     1       3.951  -0.346   4.776  0.00  0.00    +0.048 C 
ATOM     39  C   UNL     1       2.958  -1.369   4.220  0.00  0.00    +0.229 C 
ENDBRANCH  37  39
ENDBRANCH  35  37
ENDBRANCH   1  35
TORSDOF 4
