REMARK  Name = ZINC01427192
REMARK  7 active torsions:
REMARK  status: ('A' for Active; 'I' for Inactive)
REMARK    1  A    between atoms: C_1  and  C_2
REMARK    2  A    between atoms: C_3  and  C_23
REMARK    3  A    between atoms: C_4  and  C_14
REMARK    4  A    between atoms: N_25  and  C_26
REMARK    5  A    between atoms: C_27  and  C_35
REMARK    6  A    between atoms: C_35  and  O_37
REMARK    7  A    between atoms: O_37  and  C_38
REMARK                            x       y       z     vdW  Elec       q    Type
REMARK                         _______ _______ _______ _____ _____    ______ ____
ROOT
ATOM      1  C   UNL     1      -0.013   1.086   0.008  0.00  0.00    +0.061 C 
ATOM      2  C   UNL     1      -0.718   1.572   1.248  0.00  0.00    +0.014 C 
ATOM      3  C   UNL     1      -0.849   2.891   1.467  0.00  0.00    +0.043 C 
ATOM      4  C   UNL     1      -1.556   3.411   2.684  0.00  0.00    +0.090 C 
ATOM      5  C   UNL     1      -1.661   2.345   3.745  0.00  0.00    +0.024 C 
ATOM      6  C   UNL     1      -1.495   1.042   3.432  0.00  0.00    +0.015 C 
ATOM      7  N   UNL     1      -1.215   0.667   2.145  0.00  0.00    -0.321 N 
ATOM      8  C   UNL     1      -1.617  -0.032   4.484  0.00  0.00    +0.051 C 
ATOM      9  C   UNL     1      -1.170   0.523   5.838  0.00  0.00    +0.014 C 
ATOM     10  C   UNL     1      -2.040   1.738   6.178  0.00  0.00    +0.080 C 
ATOM     11  C   UNL     1      -1.933   2.744   5.065  0.00  0.00    +0.162 C 
ATOM     12  O   UNL     1      -2.084   3.924   5.312  0.00  0.00    -0.292 OA
ATOM     13  H   UNL     1      -1.394  -0.373   1.835  0.00  0.00    +0.152 HD
ENDROOT
BRANCH   4  14
ATOM     14  C   UNL     1      -2.941   3.866   2.301  0.00  0.00    -0.032 A 
ATOM     15  C   UNL     1      -3.845   2.960   1.777  0.00  0.00    +0.008 A 
ATOM     16  C   UNL     1      -5.118   3.371   1.430  0.00  0.00    +0.050 A 
ATOM     17  C   UNL     1      -5.488   4.696   1.595  0.00  0.00    +0.166 A 
ATOM     18  C   UNL     1      -4.576   5.610   2.118  0.00  0.00    +0.167 A 
ATOM     19  C   UNL     1      -3.304   5.189   2.470  0.00  0.00    +0.054 A 
ATOM     20  O   UNL     1      -5.175   6.835   2.182  0.00  0.00    -0.453 OA
ATOM     21  C   UNL     1      -6.321   6.749   1.315  0.00  0.00    +0.466 C 
ATOM     22  O   UNL     1      -6.657   5.349   1.331  0.00  0.00    -0.453 OA
ENDBRANCH   4  14
BRANCH   3  23
ATOM     23  C   UNL     1      -0.314   3.807   0.529  0.00  0.00    +0.247 C 
ATOM     24  O   UNL     1       0.258   3.397  -0.464  0.00  0.00    -0.270 OA
ATOM     25  N   UNL     1      -0.439   5.133   0.737  0.00  0.00    -0.275 N 
ATOM     26  H   UNL     1      -0.956   5.503   1.634  0.00  0.00    +0.156 HD
BRANCH  25  27
ATOM     27  C   UNL     1       0.085   6.029  -0.180  0.00  0.00    +0.087 A 
ATOM     28  C   UNL     1       0.057   7.418  -0.143  0.00  0.00    +0.091 A 
ATOM     29  C   UNL     1       0.686   8.131  -1.242  0.00  0.00    -0.021 A 
ATOM     30  C   UNL     1       1.236   7.348  -2.196  0.00  0.00    -0.004 A 
ATOM     31  S   UNL     1       0.939   5.691  -1.649  0.00  0.00    -0.077 S 
ATOM     32  C   UNL     1       1.946   7.799  -3.435  0.00  0.00    +0.043 C 
ATOM     33  C   UNL     1       1.632   9.286  -3.659  0.00  0.00    +0.005 C 
ATOM     34  C   UNL     1       1.837  10.037  -2.340  0.00  0.00    +0.005 C 
ATOM     35  C   UNL     1       0.740   9.650  -1.346  0.00  0.00    +0.037 C 
BRANCH  28  36
ATOM     36  C   UNL     1      -0.580   8.135   0.963  0.00  0.00    +0.342 C 
ATOM     37  O   UNL     1       0.069   8.437   1.946  0.00  0.00    -0.245 OA
BRANCH  36  38
ATOM     38  O   UNL     1      -1.887   8.462   0.890  0.00  0.00    -0.464 OA
ATOM     39  C   UNL     1      -2.452   9.173   2.023  0.00  0.00    +0.280 C 
ENDBRANCH  36  38
ENDBRANCH  28  36
ENDBRANCH  25  27
ENDBRANCH   3  23
TORSDOF 5
