REMARK  Name = ZINC39673281
REMARK  8 active torsions:
REMARK  status: ('A' for Active; 'I' for Inactive)
REMARK    1  A    between atoms: C_3  and  O_31
REMARK    2  A    between atoms: C_6  and  C_7
REMARK    3  A    between atoms: C_7  and  N_8
REMARK    4  A    between atoms: C_9  and  C_11
REMARK    5  A    between atoms: C_22  and  C_24
REMARK    6  A    between atoms: C_24  and  C_25
REMARK    7  A    between atoms: C_25  and  C_26
REMARK    8  A    between atoms: O_31  and  C_32
REMARK                            x       y       z     vdW  Elec       q    Type
REMARK                         _______ _______ _______ _____ _____    ______ ____
ROOT
ATOM      1  C   UNL     1      -3.314  -1.941  -3.024  0.00  0.00    +0.100 C 
ATOM      2  C   UNL     1      -2.226  -2.714  -3.802  0.00  0.00    +0.121 C 
ATOM      3  N   UNL     1      -2.625  -4.136  -3.691  0.00  0.00    -0.300 N 
ATOM      4  C   UNL     1      -4.101  -4.117  -3.825  0.00  0.00    +0.115 C 
ATOM      5  C   UNL     1      -4.545  -2.863  -3.044  0.00  0.00    -0.004 C 
ATOM      6  C   UNL     1      -5.706  -2.179  -3.759  0.00  0.00    -0.010 C 
ATOM      7  C   UNL     1      -6.935  -3.092  -3.715  0.00  0.00    -0.082 C 
ATOM      8  N   UNL     1      -7.290  -3.371  -2.318  0.00  0.00    +0.379 N 
ATOM      9  C   UNL     1      -6.204  -4.112  -1.664  0.00  0.00    -0.082 C 
ATOM     10  C   UNL     1      -4.944  -3.242  -1.621  0.00  0.00    -0.010 C 
ATOM     11  C   UNL     1      -1.826  -5.207  -3.509  0.00  0.00    +0.216 C 
ATOM     12  O   UNL     1      -2.308  -6.317  -3.438  0.00  0.00    -0.276 OA
ATOM     13  H   UNL     1      -7.443  -2.501  -1.831  0.00  0.00    -0.086 HD
ATOM     14  H   UNL     1      -8.135  -3.922  -2.291  0.00  0.00    -0.086 HD
ENDROOT
BRANCH   1  16
ATOM     15  N   UNL     1      -3.327  -0.617  -0.935  0.00  0.00    -0.311 N 
ATOM     16  C   UNL     1      -2.868  -1.692  -1.606  0.00  0.00    +0.218 C 
ATOM     17  O   UNL     1      -2.097  -2.458  -1.070  0.00  0.00    -0.275 OA
ATOM     18  H   UNL     1      -3.944  -0.004  -1.364  0.00  0.00    +0.149 HD
BRANCH  15  19
ATOM     19  C   UNL     1      -2.893  -0.375   0.444  0.00  0.00    +0.139 C 
BRANCH  19  25
ATOM     20  C   UNL     1      -4.768   0.809   1.604  0.00  0.00    +0.009 A 
ATOM     21  C   UNL     1      -5.368   1.959   2.080  0.00  0.00    +0.046 A 
ATOM     22  C   UNL     1      -4.742   3.186   1.915  0.00  0.00    +0.127 A 
ATOM     23  C   UNL     1      -3.515   3.255   1.271  0.00  0.00    +0.046 A 
ATOM     24  C   UNL     1      -2.920   2.103   0.796  0.00  0.00    +0.009 A 
ATOM     25  C   UNL     1      -3.546   0.881   0.962  0.00  0.00    -0.030 A 
BRANCH  22  26
ATOM     26  O   UNL     1      -5.330   4.319   2.382  0.00  0.00    -0.434 OA
BRANCH  26  27
ATOM     27  C   UNL     1      -4.629   5.546   2.176  0.00  0.00    +0.541 C 
ATOM     28  F   UNL     1      -3.382   5.482   2.807  0.00  0.00    -0.166 F 
ATOM     29  F   UNL     1      -4.447   5.755   0.805  0.00  0.00    -0.166 F 
ENDBRANCH  26  27
ENDBRANCH  22  26
ENDBRANCH  19  25
ENDBRANCH  15  19
ENDBRANCH   1  16
BRANCH  11  30
ATOM     30  C   UNL     1      -0.335  -5.023  -3.395  0.00  0.00    +0.096 C 
BRANCH  30  31
ATOM     31  C   UNL     1       0.333  -6.385  -3.195  0.00  0.00    +0.013 C 
BRANCH  31  32
ATOM     32  C   UNL     1       1.847  -6.199  -3.079  0.00  0.00    -0.011 C 
ATOM     33  C   UNL     1       2.427  -5.731  -4.430  0.00  0.00    +0.003 C 
ATOM     34  C   UNL     1       3.792  -6.457  -4.528  0.00  0.00    +0.000 C 
ATOM     35  C   UNL     1       3.486  -7.846  -3.917  0.00  0.00    +0.000 C 
ATOM     36  C   UNL     1       2.520  -7.543  -2.753  0.00  0.00    +0.003 C 
ENDBRANCH  31  32
ENDBRANCH  30  31
ENDBRANCH  11  30
TORSDOF 8
