REMARK  Name = ZINC13016721
REMARK  7 active torsions:
REMARK  status: ('A' for Active; 'I' for Inactive)
REMARK    1  A    between atoms: C_1  and  C_2
REMARK    2  A    between atoms: C_2  and  C_4
REMARK    3  A    between atoms: C_2  and  S_13
REMARK    4  A    between atoms: N_6  and  C_7
REMARK    5  A    between atoms: S_13  and  C_14
REMARK    6  A    between atoms: C_18  and  C_32
REMARK    7  A    between atoms: N_24  and  C_25
REMARK                            x       y       z     vdW  Elec       q    Type
REMARK                         _______ _______ _______ _____ _____    ______ ____
ROOT
ATOM      1  C   UNL     1       2.812   4.366  -1.315  0.00  0.00    +0.177 A 
ATOM      2  N   UNL     1       3.801   3.561  -1.015  0.00  0.00    -0.223 NA
ATOM      3  C   UNL     1       4.917   4.009  -0.392  0.00  0.00    +0.080 A 
ATOM      4  C   UNL     1       5.970   3.148  -0.073  0.00  0.00    +0.043 A 
ATOM      5  C   UNL     1       7.095   3.652   0.567  0.00  0.00    +0.065 A 
ATOM      6  C   UNL     1       7.177   5.013   0.892  0.00  0.00    +0.016 A 
ATOM      7  C   UNL     1       6.155   5.864   0.586  0.00  0.00    +0.016 A 
ATOM      8  C   UNL     1       5.016   5.379  -0.057  0.00  0.00    +0.065 A 
ATOM      9  C   UNL     1       3.891   6.261  -0.405  0.00  0.00    +0.267 A 
ATOM     10  O   UNL     1       3.917   7.449  -0.143  0.00  0.00    -0.267 OA
ATOM     11  N   UNL     1       2.829   5.704  -1.032  0.00  0.00    -0.255 N 
ENDROOT
BRANCH  11  12
ATOM     12  C   UNL     1       1.735   6.503  -1.389  0.00  0.00    +0.052 A 
ATOM     13  C   UNL     1       0.681   6.677  -0.501  0.00  0.00    +0.029 A 
ATOM     14  C   UNL     1      -0.394   7.469  -0.853  0.00  0.00    +0.040 A 
ATOM     15  C   UNL     1      -0.426   8.082  -2.094  0.00  0.00    +0.124 A 
ATOM     16  C   UNL     1       0.621   7.906  -2.983  0.00  0.00    +0.040 A 
ATOM     17  C   UNL     1       1.700   7.119  -2.633  0.00  0.00    +0.029 A 
ATOM     18  F   UNL     1      -1.482   8.852  -2.439  0.00  0.00    -0.205 F 
ENDBRANCH  11  12
BRANCH   5  19
ATOM     19  C   UNL     1       8.214   2.747   0.908  0.00  0.00    +0.387 C 
ATOM     20  O   UNL     1       8.148   1.567   0.628  0.00  0.00    -0.241 OA
ATOM     21  O   UNL     1       9.307   3.231   1.528  0.00  0.00    -0.241 OA
ENDBRANCH   5  19
BRANCH   1  22
ATOM     22  S   UNL     1       1.399   3.696  -2.126  0.00  0.00    -0.075 S 
BRANCH  22  24
ATOM     23  C   UNL     1       2.020   1.361  -0.850  0.00  0.00    +0.029 C 
ATOM     24  C   UNL     1       1.903   1.962  -2.253  0.00  0.00    +0.137 C 
BRANCH  24  25
ATOM     25  C   UNL     1       0.872   1.196  -3.042  0.00  0.00    +0.226 C 
ATOM     26  O   UNL     1      -0.248   1.643  -3.171  0.00  0.00    -0.275 OA
ATOM     27  N   UNL     1       1.198   0.018  -3.611  0.00  0.00    -0.312 N 
ATOM     28  H   UNL     1       2.095  -0.337  -3.511  0.00  0.00    +0.149 HD
BRANCH  27  29
ATOM     29  C   UNL     1       0.196  -0.726  -4.378  0.00  0.00    +0.073 C 
ATOM     30  C   UNL     1      -0.642  -1.583  -3.428  0.00  0.00    +0.022 C 
ATOM     31  C   UNL     1      -1.688  -2.361  -4.229  0.00  0.00    +0.002 C 
ATOM     32  C   UNL     1      -0.984  -3.264  -5.244  0.00  0.00    +0.000 C 
ATOM     33  C   UNL     1      -0.146  -2.406  -6.195  0.00  0.00    +0.002 C 
ATOM     34  C   UNL     1       0.900  -1.629  -5.394  0.00  0.00    +0.022 C 
ENDBRANCH  27  29
ENDBRANCH  24  25
ENDBRANCH  22  24
ENDBRANCH   1  22
TORSDOF 6
