REMARK  Name = ZINC32072164
REMARK  7 active torsions:
REMARK  status: ('A' for Active; 'I' for Inactive)
REMARK    1  A    between atoms: C_1  and  C_2
REMARK    2  A    between atoms: C_3  and  C_25
REMARK    3  A    between atoms: C_8  and  O_24
REMARK    4  A    between atoms: C_10  and  C_12
REMARK    5  A    between atoms: N_14  and  C_15
REMARK    6  A    between atoms: C_18  and  C_21
REMARK    7  A    between atoms: C_21  and  C_23
REMARK                            x       y       z     vdW  Elec       q    Type
REMARK                         _______ _______ _______ _____ _____    ______ ____
ROOT
ATOM      1  C   UNL     1      -0.989   0.960  -0.304  0.00  0.00    +0.050 C 
ATOM      2  C   UNL     1      -0.957  -0.543  -0.195  0.00  0.00    +0.021 A 
ATOM      3  C   UNL     1      -1.446  -1.457  -1.149  0.00  0.00    +0.098 A 
ATOM      4  N   UNL     1      -1.239  -2.681  -0.698  0.00  0.00    -0.168 NA
ATOM      5  N   UNL     1      -0.621  -2.590   0.544  0.00  0.00    -0.233 N 
ATOM      6  C   UNL     1      -0.447  -1.259   0.836  0.00  0.00    +0.159 A 
ATOM      7  N   UNL     1       0.151  -0.848   1.994  0.00  0.00    -0.198 NA
ATOM      8  C   UNL     1       0.266  -1.702   2.970  0.00  0.00    +0.191 C 
ATOM      9  C   UNL     1      -0.261  -3.105   2.886  0.00  0.00    +0.131 C 
ATOM     10  C   UNL     1      -0.189  -3.649   1.459  0.00  0.00    +0.204 C 
ENDROOT
BRANCH   3  11
ATOM     11  C   UNL     1      -2.084  -1.105  -2.441  0.00  0.00    +0.003 A 
ATOM     12  C   UNL     1      -1.579  -0.057  -3.208  0.00  0.00    +0.011 A 
ATOM     13  C   UNL     1      -2.177   0.268  -4.409  0.00  0.00    +0.020 A 
ATOM     14  C   UNL     1      -3.277  -0.447  -4.852  0.00  0.00    +0.041 A 
ATOM     15  C   UNL     1      -3.783  -1.488  -4.094  0.00  0.00    +0.020 A 
ATOM     16  C   UNL     1      -3.188  -1.824  -2.894  0.00  0.00    +0.011 A 
ATOM     17 CL   UNL     1      -4.024  -0.034  -6.364  0.00  0.00    -0.084 Cl
ENDBRANCH   3  11
BRANCH  10  18
ATOM     18  C   UNL     1       1.232  -4.042   1.148  0.00  0.00    +0.242 C 
ATOM     19  O   UNL     1       1.830  -3.492   0.248  0.00  0.00    -0.273 OA
ATOM     20  N   UNL     1       1.839  -5.005   1.870  0.00  0.00    -0.284 N 
ATOM     21  H   UNL     1       1.340  -5.492   2.544  0.00  0.00    +0.155 HD
BRANCH  20  22
ATOM     22  C   UNL     1       3.182  -5.300   1.649  0.00  0.00    +0.033 A 
ATOM     23  C   UNL     1       3.640  -6.606   1.801  0.00  0.00    +0.024 A 
ATOM     24  C   UNL     1       4.961  -6.901   1.584  0.00  0.00    +0.013 A 
ATOM     25  C   UNL     1       5.850  -5.886   1.208  0.00  0.00    +0.017 A 
ATOM     26  C   UNL     1       5.385  -4.574   1.056  0.00  0.00    +0.013 A 
ATOM     27  C   UNL     1       4.061  -4.289   1.270  0.00  0.00    +0.024 A 
BRANCH  25  28
ATOM     28  C   UNL     1       7.266  -6.197   0.975  0.00  0.00    +0.160 C 
ATOM     29  O   UNL     1       7.647  -7.348   1.006  0.00  0.00    -0.292 OA
ATOM     30  C   UNL     1       8.246  -5.086   0.696  0.00  0.00    +0.091 C 
ENDBRANCH  25  28
ENDBRANCH  20  22
ENDBRANCH  10  18
BRANCH   8  31
ATOM     31  O   UNL     1       0.884  -1.310   4.103  0.00  0.00    -0.495 OA
ATOM     32  H   UNL     1       1.196  -0.395   4.084  0.00  0.00    +0.293 HD
ENDBRANCH   8  31
TORSDOF 5
