REMARK  Name = ZINC25781939
REMARK  6 active torsions:
REMARK  status: ('A' for Active; 'I' for Inactive)
REMARK    1  A    between atoms: C_3  and  C_10
REMARK    2  A    between atoms: C_5  and  N_7
REMARK    3  A    between atoms: C_12  and  C_33
REMARK    4  A    between atoms: C_13  and  N_32
REMARK    5  A    between atoms: N_14  and  C_22
REMARK    6  A    between atoms: C_26  and  C_28
REMARK                            x       y       z     vdW  Elec       q    Type
REMARK                         _______ _______ _______ _____ _____    ______ ____
ROOT
ATOM      1  C   UNL     1      -0.173   7.928   0.900  0.00  0.00    +0.097 C 
ATOM      2  C   UNL     1      -1.364   7.200   0.350  0.00  0.00    +0.077 C 
ATOM      3  C   UNL     1      -1.269   5.909  -0.066  0.00  0.00    +0.107 C 
ATOM      4  N   UNL     1      -0.066   5.247   0.015  0.00  0.00    -0.260 N 
ATOM      5  C   UNL     1       1.109   5.947   0.111  0.00  0.00    +0.024 C 
ATOM      6  C   UNL     1       1.111   7.231   0.526  0.00  0.00    +0.025 C 
ATOM      7  C   UNL     1       2.311   7.958   0.627  0.00  0.00    +0.162 C 
ATOM      8  O   UNL     1       2.277   9.118   0.986  0.00  0.00    -0.292 OA
ATOM      9  C   UNL     1       3.636   7.325   0.299  0.00  0.00    +0.080 C 
ATOM     10  C   UNL     1       3.547   5.818   0.564  0.00  0.00    +0.014 C 
ATOM     11  C   UNL     1       2.393   5.247  -0.262  0.00  0.00    +0.052 C 
ENDROOT
BRANCH   1  14
ATOM     12  C   UNL     1      -0.401   6.879   4.520  0.00  0.00    +0.003 A 
ATOM     13  C   UNL     1      -0.301   6.822   3.142  0.00  0.00    +0.005 A 
ATOM     14  C   UNL     1      -0.282   7.989   2.402  0.00  0.00    -0.033 A 
ATOM     15  C   UNL     1      -0.357   9.214   3.040  0.00  0.00    +0.037 A 
ATOM     16  C   UNL     1      -0.462   9.271   4.417  0.00  0.00    +0.126 A 
ATOM     17  C   UNL     1      -0.481   8.103   5.157  0.00  0.00    +0.033 A 
BRANCH  16  18
ATOM     18  N   UNL     1      -0.547  10.581   5.099  0.00  0.00    +0.056 N 
ATOM     19  O   UNL     1      -0.635  10.632   6.313  0.00  0.00    -0.126 OA
ATOM     20  O   UNL     1      -0.530  11.610   4.447  0.00  0.00    -0.126 OA
ENDBRANCH  16  18
ENDBRANCH   1  14
BRANCH   4  21
ATOM     21  C   UNL     1      -0.040   3.847  -0.007  0.00  0.00    +0.040 A 
ATOM     22  C   UNL     1       0.046   3.172  -1.218  0.00  0.00    +0.024 A 
ATOM     23  C   UNL     1       0.071   1.791  -1.236  0.00  0.00    +0.002 A 
ATOM     24  C   UNL     1       0.011   1.081  -0.050  0.00  0.00    +0.012 A 
ATOM     25  C   UNL     1      -0.081   1.751   1.156  0.00  0.00    +0.057 A 
ATOM     26  C   UNL     1      -0.101   3.132   1.181  0.00  0.00    +0.036 A 
BRANCH  25  27
ATOM     27  C   UNL     1      -0.152   0.973   2.445  0.00  0.00    +0.417 C 
ATOM     28  F   UNL     1      -0.111  -0.397   2.166  0.00  0.00    -0.166 F 
ATOM     29  F   UNL     1       0.933   1.317   3.258  0.00  0.00    -0.166 F 
ATOM     30  F   UNL     1      -1.347   1.278   3.107  0.00  0.00    -0.166 F 
ENDBRANCH  25  27
ENDBRANCH   4  21
BRANCH   3  31
ATOM     31  N   UNL     1      -2.376   5.264  -0.564  0.00  0.00    -0.345 N 
ATOM     32  H   UNL     1      -2.298   4.219  -0.901  0.00  0.00    +0.144 HD
ATOM     33  H   UNL     1      -3.339   5.791  -0.626  0.00  0.00    +0.144 HD
ENDBRANCH   3  31
BRANCH   2  34
ATOM     34  C   UNL     1      -2.622   7.879   0.257  0.00  0.00    +0.099 C 
ATOM     35  N   UNL     1      -3.619   8.417   0.183  0.00  0.00    -0.191 NA
ENDBRANCH   2  34
TORSDOF 6
