REMARK  Name = ZINC50558826
REMARK  5 active torsions:
REMARK  status: ('A' for Active; 'I' for Inactive)
REMARK    1  A    between atoms: C_7  and  C_11
REMARK    2  A    between atoms: C_16  and  C_18
REMARK    3  A    between atoms: C_18  and  N_19
REMARK    4  A    between atoms: N_22  and  C_23
REMARK    5  A    between atoms: C_23  and  C_24
REMARK                            x       y       z     vdW  Elec       q    Type
REMARK                         _______ _______ _______ _____ _____    ______ ____
ROOT
ATOM      1  C   UNL     1       2.689  -2.518   2.635  0.00  0.00    +0.144 C 
ATOM      2  C   UNL     1       2.749  -3.933   2.022  0.00  0.00    +0.032 C 
ATOM      3  C   UNL     1       3.383  -4.778   3.158  0.00  0.00    +0.021 C 
ATOM      4  C   UNL     1       4.380  -3.767   3.778  0.00  0.00    +0.108 C 
ATOM      5  N   UNL     1       3.689  -2.466   3.711  0.00  0.00    -0.290 N 
ATOM      6  C   UNL     1       3.933  -1.405   4.505  0.00  0.00    +0.233 C 
ATOM      7  O   UNL     1       3.301  -0.381   4.360  0.00  0.00    -0.274 OA
ENDROOT
BRANCH   1  14
ATOM      8  C   UNL     1      -0.019   1.524   0.010  0.00  0.00    +0.002 C 
ATOM      9  C   UNL     1       1.403   2.078  -0.000  0.00  0.00    +0.008 C 
ATOM     10  C   UNL     1       2.311   1.146  -0.809  0.00  0.00    +0.076 C 
ATOM     11  C   UNL     1       2.864   0.083   0.104  0.00  0.00    +0.134 A 
ATOM     12  N   UNL     1       4.102  -0.311   0.193  0.00  0.00    -0.134 NA
ATOM     13  N   UNL     1       4.193  -1.250   1.070  0.00  0.00    -0.132 NA
ATOM     14  C   UNL     1       3.015  -1.490   1.582  0.00  0.00    +0.154 A 
ATOM     15  N   UNL     1       2.144  -0.643   0.991  0.00  0.00    -0.313 N 
ATOM     16  C   UNL     1       0.711  -0.518   1.258  0.00  0.00    +0.125 C 
ATOM     17  C   UNL     1       0.002  -0.004   0.002  0.00  0.00    +0.022 C 
ENDBRANCH   1  14
BRANCH   6  18
ATOM     18  C   UNL     1       4.993  -1.492   5.574  0.00  0.00    +0.201 C 
BRANCH  18  19
ATOM     19  N   UNL     1       5.065  -0.219   6.295  0.00  0.00    -0.291 N 
ATOM     20  C   UNL     1       5.948  -0.063   7.301  0.00  0.00    +0.300 C 
ATOM     21  O   UNL     1       6.684  -0.980   7.611  0.00  0.00    -0.253 OA
ATOM     22  N   UNL     1       6.014   1.108   7.964  0.00  0.00    -0.299 N 
ATOM     23  H   UNL     1       4.477   0.512   6.048  0.00  0.00    +0.151 HD
ATOM     24  H   UNL     1       5.427   1.839   7.717  0.00  0.00    +0.150 HD
BRANCH  22  25
ATOM     25  C   UNL     1       6.974   1.277   9.058  0.00  0.00    +0.109 C 
BRANCH  25  26
ATOM     26  C   UNL     1       6.845   2.688   9.636  0.00  0.00    +0.006 C 
ATOM     27  C   UNL     1       7.321   3.729   8.602  0.00  0.00    +0.005 C 
ATOM     28  C   UNL     1       8.038   4.808   9.452  0.00  0.00    +0.000 C 
ATOM     29  C   UNL     1       8.757   3.967  10.536  0.00  0.00    +0.000 C 
ATOM     30  C   UNL     1       7.758   2.839  10.866  0.00  0.00    +0.005 C 
ENDBRANCH  25  26
ENDBRANCH  22  25
ENDBRANCH  18  19
ENDBRANCH   6  18
TORSDOF 5
