REMARK  Name = ZINC09295270
REMARK  6 active torsions:
REMARK  status: ('A' for Active; 'I' for Inactive)
REMARK    1  A    between atoms: C_4  and  O_7
REMARK    2  A    between atoms: O_7  and  C_8
REMARK    3  A    between atoms: C_8  and  C_9
REMARK    4  A    between atoms: C_15  and  C_30
REMARK    5  A    between atoms: C_17  and  C_20
REMARK    6  A    between atoms: N_22  and  C_23
REMARK                            x       y       z     vdW  Elec       q    Type
REMARK                         _______ _______ _______ _____ _____    ______ ____
ROOT
ATOM      1  C   UNL     1       4.872   4.154   0.010  0.00  0.00    +0.189 A 
ATOM      2  N   UNL     1       5.598   4.462   1.049  0.00  0.00    -0.128 NA
ATOM      3  N   UNL     1       6.730   4.948   0.671  0.00  0.00    -0.121 NA
ATOM      4  C   UNL     1       6.774   4.983  -0.631  0.00  0.00    +0.209 A 
ATOM      5  N   UNL     1       5.598   4.471  -1.102  0.00  0.00    -0.222 N 
ATOM      6  N   UNL     1       5.240   4.307  -2.401  0.00  0.00    -0.272 N 
ATOM      7  C   UNL     1       5.973   5.170  -3.328  0.00  0.00    +0.140 C 
ATOM      8  C   UNL     1       7.480   4.895  -3.239  0.00  0.00    +0.166 C 
ATOM      9  S   UNL     1       8.079   5.575  -1.663  0.00  0.00    -0.069 S 
ATOM     10  H   UNL     1       5.310   3.339  -2.676  0.00  0.00    +0.167 HD
ENDROOT
BRANCH   7  11
ATOM     11  C   UNL     1       5.501   4.906  -4.735  0.00  0.00    -0.024 A 
ATOM     12  C   UNL     1       5.261   3.609  -5.151  0.00  0.00    +0.008 A 
ATOM     13  C   UNL     1       4.824   3.366  -6.439  0.00  0.00    +0.038 A 
ATOM     14  C   UNL     1       4.635   4.421  -7.316  0.00  0.00    +0.123 A 
ATOM     15  C   UNL     1       4.880   5.718  -6.900  0.00  0.00    +0.038 A 
ATOM     16  C   UNL     1       5.313   5.960  -5.609  0.00  0.00    +0.008 A 
ATOM     17  F   UNL     1       4.212   4.184  -8.577  0.00  0.00    -0.205 F 
ENDBRANCH   7  11
BRANCH   8  18
ATOM     18  C   UNL     1       8.190   5.565  -4.387  0.00  0.00    +0.233 C 
ATOM     19  O   UNL     1       7.777   6.619  -4.822  0.00  0.00    -0.274 OA
ATOM     20  N   UNL     1       9.284   4.994  -4.929  0.00  0.00    -0.282 N 
ATOM     21  H   UNL     1       9.652   4.185  -4.540  0.00  0.00    +0.155 HD
BRANCH  20  22
ATOM     22  C   UNL     1       9.888   5.568  -6.054  0.00  0.00    +0.069 A 
ATOM     23  C   UNL     1       9.908   6.948  -6.206  0.00  0.00    +0.026 A 
ATOM     24  C   UNL     1      10.510   7.511  -7.314  0.00  0.00    +0.002 A 
ATOM     25  C   UNL     1      11.083   6.703  -8.278  0.00  0.00    +0.003 A 
ATOM     26  C   UNL     1      11.062   5.328  -8.134  0.00  0.00    +0.040 A 
ATOM     27  C   UNL     1      10.466   4.757  -7.025  0.00  0.00    +0.144 A 
ATOM     28  F   UNL     1      10.445   3.413  -6.884  0.00  0.00    -0.204 F 
ENDBRANCH  20  22
ENDBRANCH   8  18
BRANCH   1  29
ATOM     29  C   UNL     1       3.487   3.562   0.033  0.00  0.00    +0.306 C 
BRANCH  29  30
ATOM     30  O   UNL     1       3.578   2.136   0.031  0.00  0.00    -0.484 OA
BRANCH  30  34
ATOM     31  C   UNL     1       0.029   0.033   0.089  0.00  0.00    +0.000 A 
ATOM     32  C   UNL     1       0.012   1.415   0.089  0.00  0.00    +0.004 A 
ATOM     33  C   UNL     1       1.199   2.122   0.070  0.00  0.00    +0.045 A 
ATOM     34  C   UNL     1       2.408   1.443   0.051  0.00  0.00    +0.121 A 
ATOM     35  C   UNL     1       2.423   0.056   0.050  0.00  0.00    +0.045 A 
ATOM     36  C   UNL     1       1.233  -0.646   0.069  0.00  0.00    +0.004 A 
ENDBRANCH  30  34
ENDBRANCH  29  30
ENDBRANCH   1  29
TORSDOF 6
