REMARK  Name = ZINC13415967
REMARK  8 active torsions:
REMARK  status: ('A' for Active; 'I' for Inactive)
REMARK    1  A    between atoms: C_1  and  C_2
REMARK    2  A    between atoms: C_2  and  C_3
REMARK    3  A    between atoms: C_3  and  N_4
REMARK    4  A    between atoms: C_13  and  S_14
REMARK    5  A    between atoms: S_14  and  C_15
REMARK    6  A    between atoms: C_15  and  C_16
REMARK    7  A    between atoms: C_24  and  C_30
REMARK    8  A    between atoms: C_25  and  C_27
REMARK                            x       y       z     vdW  Elec       q    Type
REMARK                         _______ _______ _______ _____ _____    ______ ____
ROOT
ATOM      1  S   UNL     1      -0.874  -2.421   2.959  0.00  0.00    -0.083 S 
ENDROOT
BRANCH   1  11
ATOM      2  N   UNL     1      -0.505  -2.811   0.304  0.00  0.00    -0.287 N 
ATOM      3  C   UNL     1      -0.560  -3.493  -0.856  0.00  0.00    +0.263 A 
ATOM      4  O   UNL     1      -0.134  -2.999  -1.885  0.00  0.00    -0.267 OA
ATOM      5  C   UNL     1      -1.127  -4.806  -0.860  0.00  0.00    +0.076 A 
ATOM      6  C   UNL     1      -1.285  -5.720  -2.003  0.00  0.00    -0.023 A 
ATOM      7  C   UNL     1      -1.852  -6.911  -1.754  0.00  0.00    -0.004 A 
ATOM      8  S   UNL     1      -2.204  -6.898  -0.011  0.00  0.00    -0.073 S 
ATOM      9  C   UNL     1      -1.588  -5.281   0.376  0.00  0.00    +0.117 A 
ATOM     10  N   UNL     1      -1.506  -4.557   1.486  0.00  0.00    -0.216 NA
ATOM     11  C   UNL     1      -0.974  -3.352   1.466  0.00  0.00    +0.173 A 
ATOM     12  C   UNL     1      -1.967  -7.757  -2.994  0.00  0.00    +0.043 C 
ATOM     13  C   UNL     1      -1.781  -6.762  -4.161  0.00  0.00    +0.010 C 
ATOM     14  C   UNL     1      -0.943  -5.652  -3.495  0.00  0.00    +0.037 C 
BRANCH   2  15
ATOM     15  C   UNL     1       0.074  -1.465   0.320  0.00  0.00    +0.127 C 
BRANCH  15  17
ATOM     16  C   UNL     1       2.182  -0.155   0.605  0.00  0.00    +0.005 C 
ATOM     17  C   UNL     1       1.577  -1.560   0.588  0.00  0.00    +0.018 C 
ENDBRANCH  15  17
ENDBRANCH   2  15
ENDBRANCH   1  11
BRANCH   1  18
ATOM     18  C   UNL     1      -1.601  -3.518   4.209  0.00  0.00    +0.113 C 
BRANCH  18  19
ATOM     19  C   UNL     1      -1.577  -2.834   5.551  0.00  0.00    -0.022 A 
ATOM     20  C   UNL     1      -0.558  -3.065   6.410  0.00  0.00    +0.075 A 
ATOM     21  C   UNL     1      -0.519  -2.435   7.668  0.00  0.00    +0.250 A 
ATOM     22  O   UNL     1       0.406  -2.653   8.432  0.00  0.00    -0.268 OA
ATOM     23  N   UNL     1      -1.506  -1.591   8.027  0.00  0.00    -0.317 N 
ATOM     24  H   UNL     1      -1.477  -1.158   8.895  0.00  0.00    +0.169 HD
ATOM     25  C   UNL     1      -2.542  -1.340   7.185  0.00  0.00    +0.089 A 
ATOM     26  C   UNL     1      -2.631  -1.935   5.916  0.00  0.00    +0.014 A 
ATOM     27  C   UNL     1      -3.755  -1.577   5.155  0.00  0.00    -0.020 A 
ATOM     28  C   UNL     1      -4.632  -0.695   5.717  0.00  0.00    +0.106 A 
ATOM     29  S   UNL     1      -3.901  -0.372   7.308  0.00  0.00    -0.064 S 
ATOM     30  C   UNL     1      -3.983  -2.142   3.777  0.00  0.00    +0.046 C 
BRANCH  28  31
ATOM     31  C   UNL     1      -5.833  -0.172   5.172  0.00  0.00    +0.393 C 
ATOM     32  O   UNL     1      -6.196  -0.511   4.052  0.00  0.00    -0.240 OA
ATOM     33  O   UNL     1      -6.506   0.619   5.821  0.00  0.00    -0.240 OA
ENDBRANCH  28  31
ENDBRANCH  18  19
ENDBRANCH   1  18
TORSDOF 6
