REMARK  Name = ZINC15991388
REMARK  6 active torsions:
REMARK  status: ('A' for Active; 'I' for Inactive)
REMARK    1  A    between atoms: C_1  and  C_2
REMARK    2  A    between atoms: C_4  and  C_28
REMARK    3  A    between atoms: N_5  and  C_7
REMARK    4  A    between atoms: C_10  and  C_13
REMARK    5  A    between atoms: N_15  and  N_16
REMARK    6  A    between atoms: C_17  and  C_19
REMARK                            x       y       z     vdW  Elec       q    Type
REMARK                         _______ _______ _______ _____ _____    ______ ____
ROOT
ATOM      1  C   UNL     1       0.388  -7.244   2.995  0.00  0.00    +0.260 C 
ATOM      2  O   UNL     1      -0.150  -8.210   2.491  0.00  0.00    -0.269 OA
ATOM      3  N   UNL     1       1.058  -7.375   4.158  0.00  0.00    -0.230 N 
ATOM      4  H   UNL     1       1.487  -6.604   4.560  0.00  0.00    +0.173 HD
ENDROOT
BRANCH   1   8
ATOM      5  C   UNL     1       0.157  -3.453   1.093  0.00  0.00    +0.066 A 
ATOM      6  C   UNL     1      -0.459  -4.558   0.515  0.00  0.00    +0.028 A 
ATOM      7  C   UNL     1      -0.386  -5.788   1.129  0.00  0.00    +0.015 A 
ATOM      8  C   UNL     1       0.308  -5.926   2.334  0.00  0.00    +0.038 A 
ATOM      9  C   UNL     1       0.925  -4.814   2.912  0.00  0.00    +0.015 A 
ATOM     10  C   UNL     1       0.853  -3.587   2.290  0.00  0.00    +0.028 A 
BRANCH   5  15
ATOM     11  C   UNL     1       1.470   0.989  -0.670  0.00  0.00    +0.067 C 
ATOM     12  C   UNL     1       0.674  -0.238  -0.310  0.00  0.00    +0.061 A 
ATOM     13  C   UNL     1      -0.678  -0.453  -0.602  0.00  0.00    +0.047 A 
ATOM     14  C   UNL     1      -1.022  -1.668  -0.116  0.00  0.00    +0.042 A 
ATOM     15  N   UNL     1       0.081  -2.205   0.467  0.00  0.00    -0.237 N 
ATOM     16  N   UNL     1       1.130  -1.287   0.325  0.00  0.00    -0.171 NA
ATOM     17  C   UNL     1      -2.383  -2.309  -0.205  0.00  0.00    +0.066 C 
ENDBRANCH   5  15
ENDBRANCH   1   8
BRANCH   3  18
ATOM     18  N   UNL     1       1.134  -8.625   4.785  0.00  0.00    -0.230 N 
ATOM     19  C   UNL     1       1.803  -8.756   5.948  0.00  0.00    +0.260 C 
ATOM     20  O   UNL     1       2.341  -7.789   6.452  0.00  0.00    -0.269 OA
ATOM     21  H   UNL     1       0.704  -9.396   4.383  0.00  0.00    +0.173 HD
BRANCH  19  22
ATOM     22  C   UNL     1       1.883 -10.074   6.609  0.00  0.00    +0.042 A 
ATOM     23  C   UNL     1       1.270 -11.187   6.028  0.00  0.00    +0.017 A 
ATOM     24  C   UNL     1       1.347 -12.416   6.646  0.00  0.00    +0.050 A 
ATOM     25  C   UNL     1       2.031 -12.553   7.847  0.00  0.00    +0.166 A 
ATOM     26  C   UNL     1       2.645 -11.445   8.432  0.00  0.00    +0.167 A 
ATOM     27  C   UNL     1       2.577 -10.211   7.814  0.00  0.00    +0.062 A 
ATOM     28  O   UNL     1       3.243 -11.841   9.593  0.00  0.00    -0.453 OA
ATOM     29  C   UNL     1       2.644 -13.109   9.920  0.00  0.00    +0.466 C 
ATOM     30  O   UNL     1       2.246 -13.639   8.642  0.00  0.00    -0.453 OA
ENDBRANCH  19  22
ENDBRANCH   3  18
TORSDOF 4
