REMARK  Name = ZINC63526316
REMARK  8 active torsions:
REMARK  status: ('A' for Active; 'I' for Inactive)
REMARK    1  A    between atoms: C_1  and  O_2
REMARK    2  A    between atoms: O_2  and  C_3
REMARK    3  A    between atoms: C_10  and  C_18
REMARK    4  A    between atoms: C_21  and  O_26
REMARK    5  A    between atoms: C_22  and  O_24
REMARK    6  A    between atoms: O_24  and  C_25
REMARK    7  A    between atoms: O_26  and  C_27
REMARK    8  A    between atoms: C_27  and  C_28
REMARK                            x       y       z     vdW  Elec       q    Type
REMARK                         _______ _______ _______ _____ _____    ______ ____
ROOT
ATOM      1  C   UNL     1       4.411  -4.084  -2.934  0.00  0.00    -0.024 A 
ATOM      2  C   UNL     1       4.231  -4.077  -1.563  0.00  0.00    +0.009 A 
ATOM      3  C   UNL     1       5.148  -3.443  -0.746  0.00  0.00    +0.050 A 
ATOM      4  C   UNL     1       6.250  -2.812  -1.300  0.00  0.00    +0.162 A 
ATOM      5  C   UNL     1       6.432  -2.820  -2.679  0.00  0.00    +0.162 A 
ATOM      6  C   UNL     1       5.512  -3.462  -3.493  0.00  0.00    +0.054 A 
ENDROOT
BRANCH   1  13
ATOM      7  C   UNL     1       0.451  -2.189   0.356  0.00  0.00    +0.121 A 
ATOM      8  C   UNL     1       0.627  -1.061  -0.464  0.00  0.00    +0.047 A 
ATOM      9  C   UNL     1       1.097  -1.148  -1.726  0.00  0.00    +0.029 A 
ATOM     10  C   UNL     1       1.445  -2.455  -2.287  0.00  0.00    +0.043 A 
ATOM     11  N   UNL     1       1.934  -2.806  -3.455  0.00  0.00    -0.376 N 
ATOM     12  C   UNL     1       2.001  -4.263  -3.508  0.00  0.00    +0.128 C 
ATOM     13  C   UNL     1       3.409  -4.777  -3.821  0.00  0.00    +0.111 C 
ATOM     14  N   UNL     1       3.440  -6.226  -3.566  0.00  0.00    -0.307 NA
ATOM     15  C   UNL     1       3.280  -6.568  -2.150  0.00  0.00    +0.086 C 
ATOM     16  C   UNL     1       1.877  -6.162  -1.663  0.00  0.00    +0.048 C 
ATOM     17  C   UNL     1       1.653  -4.733  -2.104  0.00  0.00    -0.035 C 
ATOM     18  C   UNL     1       1.270  -3.649  -1.420  0.00  0.00    +0.003 A 
ATOM     19  C   UNL     1       0.752  -3.441  -0.063  0.00  0.00    +0.055 A 
ATOM     20  H   UNL     1       2.758  -6.707  -4.133  0.00  0.00    +0.123 HD
ATOM     21  H   UNL     1       2.204  -2.200  -4.162  0.00  0.00    +0.160 HD
BRANCH   7  23
ATOM     22  C   UNL     1      -0.336  -0.679   2.015  0.00  0.00    +0.277 C 
ATOM     23  O   UNL     1      -0.032  -2.017   1.615  0.00  0.00    -0.495 OA
ENDBRANCH   7  23
ENDBRANCH   1  13
BRANCH   5  24
ATOM     24  O   UNL     1       7.512  -2.202  -3.228  0.00  0.00    -0.491 OA
ATOM     25  C   UNL     1       7.634  -2.250  -4.651  0.00  0.00    +0.277 C 
ENDBRANCH   5  24
BRANCH   4  26
ATOM     26  O   UNL     1       7.152  -2.187  -0.497  0.00  0.00    -0.484 OA
BRANCH  26  27
ATOM     27  C   UNL     1       6.902  -2.220   0.910  0.00  0.00    +0.264 C 
BRANCH  27  28
ATOM     28  C   UNL     1       7.998  -1.482   1.633  0.00  0.00    -0.009 A 
ATOM     29  C   UNL     1       9.130  -2.160   2.048  0.00  0.00    +0.008 A 
ATOM     30  C   UNL     1      10.137  -1.484   2.712  0.00  0.00    +0.022 A 
ATOM     31  C   UNL     1      10.013  -0.129   2.961  0.00  0.00    +0.059 A 
ATOM     32  C   UNL     1       8.880   0.550   2.545  0.00  0.00    +0.060 A 
ATOM     33  C   UNL     1       7.875  -0.127   1.876  0.00  0.00    +0.028 A 
ATOM     34 CL   UNL     1       8.722   2.250   2.858  0.00  0.00    -0.082 Cl
ATOM     35 CL   UNL     1      11.276   0.720   3.795  0.00  0.00    -0.082 Cl
ENDBRANCH  27  28
ENDBRANCH  26  27
ENDBRANCH   4  26
TORSDOF 6
