REMARK  Name = ZINC11719715
REMARK  7 active torsions:
REMARK  status: ('A' for Active; 'I' for Inactive)
REMARK    1  A    between atoms: C_1  and  C_2
REMARK    2  A    between atoms: C_2  and  C_4
REMARK    3  A    between atoms: C_2  and  N_49
REMARK    4  A    between atoms: N_6  and  C_7
REMARK    5  A    between atoms: C_17  and  N_20
REMARK    6  A    between atoms: N_20  and  S_21
REMARK    7  A    between atoms: S_21  and  C_24
REMARK                            x       y       z     vdW  Elec       q    Type
REMARK                         _______ _______ _______ _____ _____    ______ ____
ROOT
ATOM      1  C   UNL     1      -2.718  -2.897   1.224  0.00  0.00    -0.076 C 
ATOM      2  C   UNL     1      -2.298  -4.363   1.102  0.00  0.00    +0.002 C 
ATOM      3  C   UNL     1      -3.548  -5.248   1.099  0.00  0.00    +0.073 C 
ATOM      4  C   UNL     1      -4.462  -4.824  -0.054  0.00  0.00    +0.002 C 
ATOM      5  C   UNL     1      -4.819  -3.345   0.102  0.00  0.00    -0.076 C 
ATOM      6  N   UNL     1      -3.576  -2.545   0.072  0.00  0.00    +0.387 N 
ATOM      7  H   UNL     1      -3.068  -2.752  -0.796  0.00  0.00    -0.081 HD
ENDROOT
BRANCH   6   9
ATOM      8  C   UNL     1      -2.600  -0.301   0.158  0.00  0.00    -0.004 C 
ATOM      9  C   UNL     1      -3.901  -1.104   0.107  0.00  0.00    +0.016 C 
BRANCH   9  10
ATOM     10  C   UNL     1      -4.663  -0.748  -1.143  0.00  0.00    +0.203 C 
ATOM     11  O   UNL     1      -4.526  -1.413  -2.148  0.00  0.00    -0.277 OA
ATOM     12  N   UNL     1      -5.497   0.311  -1.146  0.00  0.00    -0.285 N 
ATOM     13  H   UNL     1      -5.551   0.888  -0.367  0.00  0.00    +0.155 HD
BRANCH  12  14
ATOM     14  C   UNL     1      -6.285   0.580  -2.272  0.00  0.00    +0.069 A 
ATOM     15  C   UNL     1      -6.533  -0.420  -3.202  0.00  0.00    +0.027 A 
ATOM     16  C   UNL     1      -7.315  -0.155  -4.309  0.00  0.00    +0.022 A 
ATOM     17  C   UNL     1      -7.847   1.109  -4.496  0.00  0.00    +0.044 A 
ATOM     18  C   UNL     1      -7.598   2.110  -3.574  0.00  0.00    +0.060 A 
ATOM     19  C   UNL     1      -6.817   1.850  -2.463  0.00  0.00    +0.146 A 
ATOM     20  F   UNL     1      -6.574   2.828  -1.563  0.00  0.00    -0.203 F 
ATOM     21 CL   UNL     1      -8.829   1.438  -5.889  0.00  0.00    -0.083 Cl
ENDBRANCH  12  14
ENDBRANCH   9  10
ENDBRANCH   6   9
BRANCH   3  22
ATOM     22  N   UNL     1      -3.155  -6.649   0.923  0.00  0.00    -0.187 NA
ATOM     23  H   UNL     1      -3.011  -7.004   0.032  0.00  0.00    +0.148 HD
BRANCH  22  24
ATOM     24  S   UNL     1      -2.958  -7.626   2.246  0.00  0.00    +0.065 S 
ATOM     25  O   UNL     1      -2.608  -8.912   1.752  0.00  0.00    -0.153 OA
ATOM     26  O   UNL     1      -2.138  -6.911   3.160  0.00  0.00    -0.153 OA
BRANCH  24  27
ATOM     27  C   UNL     1      -4.537  -7.792   3.010  0.00  0.00    +0.142 A 
ATOM     28  C   UNL     1      -5.501  -8.719   2.786  0.00  0.00    +0.036 A 
ATOM     29  C   UNL     1      -6.675  -8.654   3.513  0.00  0.00    +0.010 A 
ATOM     30  C   UNL     1      -6.827  -7.667   4.429  0.00  0.00    +0.047 A 
ATOM     31  S   UNL     1      -5.279  -6.789   4.287  0.00  0.00    -0.077 S 
ENDBRANCH  24  27
ENDBRANCH  22  24
ENDBRANCH   3  22
TORSDOF 6
