REMARK  Name = ZINC46621350
REMARK  7 active torsions:
REMARK  status: ('A' for Active; 'I' for Inactive)
REMARK    1  A    between atoms: C_1  and  C_2
REMARK    2  A    between atoms: C_2  and  C_4
REMARK    3  A    between atoms: C_2  and  N_14
REMARK    4  A    between atoms: C_15  and  C_17
REMARK    5  A    between atoms: C_24  and  C_26
REMARK    6  A    between atoms: C_31  and  O_32
REMARK    7  A    between atoms: O_32  and  C_33
REMARK                            x       y       z     vdW  Elec       q    Type
REMARK                         _______ _______ _______ _____ _____    ______ ____
ROOT
ATOM      1  C   UNL     1       0.743  -1.173   3.574  0.00  0.00    +0.092 C 
ATOM      2  C   UNL     1      -0.231  -1.265   4.750  0.00  0.00    +0.016 C 
ATOM      3  C   UNL     1       0.519  -1.731   6.000  0.00  0.00    +0.020 C 
ATOM      4  C   UNL     1       1.108  -3.123   5.749  0.00  0.00    +0.108 C 
ATOM      5  N   UNL     1       1.931  -3.076   4.533  0.00  0.00    -0.297 N 
ATOM      6  C   UNL     1       1.335  -2.558   3.294  0.00  0.00    +0.120 C 
ATOM      7  C   UNL     1       3.211  -3.499   4.554  0.00  0.00    +0.250 C 
ATOM      8  O   UNL     1       3.726  -3.825   5.605  0.00  0.00    -0.270 OA
ENDROOT
BRANCH   7   9
ATOM      9  C   UNL     1       3.986  -3.565   3.300  0.00  0.00    +0.079 A 
ATOM     10  C   UNL     1       3.489  -4.275   2.204  0.00  0.00    +0.017 A 
ATOM     11  C   UNL     1       4.218  -4.333   1.036  0.00  0.00    +0.001 A 
ATOM     12  C   UNL     1       5.442  -3.691   0.943  0.00  0.00    +0.004 A 
ATOM     13  C   UNL     1       5.944  -2.986   2.018  0.00  0.00    +0.046 A 
ATOM     14  C   UNL     1       5.222  -2.913   3.200  0.00  0.00    +0.139 A 
BRANCH  14  15
ATOM     15  O   UNL     1       5.712  -2.217   4.256  0.00  0.00    -0.433 OA
BRANCH  15  16
ATOM     16  C   UNL     1       6.978  -1.578   4.081  0.00  0.00    +0.541 C 
ATOM     17  F   UNL     1       7.949  -2.540   3.782  0.00  0.00    -0.166 F 
ATOM     18  F   UNL     1       6.895  -0.657   3.030  0.00  0.00    -0.166 F 
ENDBRANCH  15  16
ENDBRANCH  14  15
ENDBRANCH   7   9
BRANCH   1  20
ATOM     19  N   UNL     1       0.671  -0.524   1.188  0.00  0.00    -0.306 N 
ATOM     20  C   UNL     1       0.010  -0.683   2.352  0.00  0.00    +0.218 C 
ATOM     21  O   UNL     1      -1.175  -0.431   2.415  0.00  0.00    -0.275 OA
ATOM     22  H   UNL     1       1.619  -0.725   1.137  0.00  0.00    +0.149 HD
BRANCH  19  24
ATOM     23  C   UNL     1      -0.089   1.481   0.012  0.00  0.00    +0.036 C 
ATOM     24  C   UNL     1      -0.042  -0.048  -0.000  0.00  0.00    +0.136 C 
BRANCH  24  25
ATOM     25  C   UNL     1       0.676  -0.518  -1.239  0.00  0.00    +0.128 A 
ATOM     26  N   UNL     1       0.097  -0.690  -2.458  0.00  0.00    -0.340 N 
ATOM     27  H   UNL     1      -0.834  -0.533  -2.679  0.00  0.00    +0.167 HD
ATOM     28  C   UNL     1       1.081  -1.127  -3.322  0.00  0.00    +0.066 A 
ATOM     29  C   UNL     1       1.104  -1.467  -4.668  0.00  0.00    +0.028 A 
ATOM     30  C   UNL     1       2.285  -1.879  -5.248  0.00  0.00    +0.002 A 
ATOM     31  C   UNL     1       3.449  -1.956  -4.495  0.00  0.00    +0.002 A 
ATOM     32  C   UNL     1       3.445  -1.626  -3.170  0.00  0.00    +0.030 A 
ATOM     33  C   UNL     1       2.259  -1.206  -2.561  0.00  0.00    +0.089 A 
ATOM     34  N   UNL     1       1.942  -0.815  -1.300  0.00  0.00    -0.231 NA
ENDBRANCH  24  25
ENDBRANCH  19  24
ENDBRANCH   1  20
TORSDOF 6
