REMARK  Name = ZINC39665289
REMARK  7 active torsions:
REMARK  status: ('A' for Active; 'I' for Inactive)
REMARK    1  A    between atoms: C_1  and  C_2
REMARK    2  A    between atoms: C_2  and  C_4
REMARK    3  A    between atoms: C_2  and  O_29
REMARK    4  A    between atoms: C_4  and  N_5
REMARK    5  A    between atoms: C_6  and  C_8
REMARK    6  A    between atoms: C_19  and  C_21
REMARK    7  A    between atoms: O_29  and  C_30
REMARK                            x       y       z     vdW  Elec       q    Type
REMARK                         _______ _______ _______ _____ _____    ______ ____
ROOT
ATOM      1  C   UNL     1      -2.013  -7.513   1.406  0.00  0.00    +0.100 C 
ATOM      2  C   UNL     1      -2.227  -6.816   2.768  0.00  0.00    +0.121 C 
ATOM      3  N   UNL     1      -3.293  -5.818   2.514  0.00  0.00    -0.296 N 
ATOM      4  C   UNL     1      -4.238  -6.511   1.606  0.00  0.00    +0.115 C 
ATOM      5  C   UNL     1      -3.336  -7.314   0.648  0.00  0.00    -0.004 C 
ATOM      6  C   UNL     1      -3.096  -6.524  -0.635  0.00  0.00    -0.010 C 
ATOM      7  C   UNL     1      -4.416  -6.388  -1.399  0.00  0.00    -0.082 C 
ATOM      8  N   UNL     1      -4.941  -7.722  -1.713  0.00  0.00    +0.379 N 
ATOM      9  C   UNL     1      -5.257  -8.441  -0.473  0.00  0.00    -0.082 C 
ATOM     10  C   UNL     1      -3.972  -8.664   0.331  0.00  0.00    -0.010 C 
ATOM     11  C   UNL     1      -3.383  -4.564   2.999  0.00  0.00    +0.249 C 
ATOM     12  O   UNL     1      -4.362  -3.886   2.754  0.00  0.00    -0.270 OA
ATOM     13  H   UNL     1      -5.779  -7.630  -2.269  0.00  0.00    -0.086 HD
ATOM     14  H   UNL     1      -4.250  -8.240  -2.235  0.00  0.00    -0.086 HD
ENDROOT
BRANCH  11  15
ATOM     15  C   UNL     1      -2.292  -4.013   3.829  0.00  0.00    +0.073 A 
ATOM     16  C   UNL     1      -1.084  -3.635   3.239  0.00  0.00    +0.036 A 
ATOM     17  C   UNL     1      -0.070  -3.120   4.020  0.00  0.00    +0.042 A 
ATOM     18  C   UNL     1      -0.246  -2.978   5.387  0.00  0.00    +0.023 A 
ATOM     19  C   UNL     1      -1.438  -3.350   5.979  0.00  0.00    +0.040 A 
ATOM     20  C   UNL     1      -2.466  -3.862   5.208  0.00  0.00    +0.136 A 
ATOM     21  F   UNL     1      -3.634  -4.220   5.787  0.00  0.00    -0.205 F 
ATOM     22 CL   UNL     1       1.433  -2.651   3.288  0.00  0.00    -0.084 Cl
ENDBRANCH  11  15
BRANCH   1  24
ATOM     23  N   UNL     1      -0.204  -7.561  -0.281  0.00  0.00    -0.312 N 
ATOM     24  C   UNL     1      -0.877  -6.865   0.658  0.00  0.00    +0.218 C 
ATOM     25  O   UNL     1      -0.567  -5.718   0.900  0.00  0.00    -0.275 OA
ATOM     26  H   UNL     1      -0.406  -8.498  -0.427  0.00  0.00    +0.149 HD
BRANCH  23  27
ATOM     27  C   UNL     1       0.832  -6.902  -1.079  0.00  0.00    +0.148 C 
BRANCH  27  29
ATOM     28  C   UNL     1       2.336  -7.144  -3.059  0.00  0.00    +0.053 C 
ATOM     29  C   UNL     1       1.350  -7.871  -2.143  0.00  0.00    +0.187 C 
BRANCH  29  30
ATOM     30  O   UNL     1       2.010  -8.968  -1.508  0.00  0.00    -0.488 OA
BRANCH  30  31
ATOM     31  C   UNL     1       2.066 -10.137  -2.198  0.00  0.00    +0.121 A 
ATOM     32  C   UNL     1       1.606 -10.196  -3.505  0.00  0.00    +0.045 A 
ATOM     33  C   UNL     1       1.664 -11.386  -4.204  0.00  0.00    +0.004 A 
ATOM     34  C   UNL     1       2.180 -12.519  -3.601  0.00  0.00    +0.000 A 
ATOM     35  C   UNL     1       2.638 -12.463  -2.298  0.00  0.00    +0.004 A 
ATOM     36  C   UNL     1       2.588 -11.274  -1.597  0.00  0.00    +0.045 A 
ENDBRANCH  30  31
ENDBRANCH  29  30
ENDBRANCH  27  29
ENDBRANCH  23  27
ENDBRANCH   1  24
TORSDOF 6
