REMARK  Name = ZINC35664445
REMARK  12 active torsions:
REMARK  status: ('A' for Active; 'I' for Inactive)
REMARK    1  A    between atoms: C_1  and  C_2
REMARK    2  A    between atoms: C_2  and  C_3
REMARK    3  A    between atoms: C_3  and  N_4
REMARK    4  A    between atoms: N_11  and  C_14
REMARK    5  A    between atoms: C_14  and  C_15
REMARK    6  A    between atoms: C_16  and  C_31
REMARK    7  A    between atoms: C_17  and  C_26
REMARK    8  A    between atoms: N_22  and  C_23
REMARK    9  A    between atoms: C_23  and  C_24
REMARK   10  A    between atoms: C_31  and  O_33
REMARK   11  A    between atoms: O_33  and  C_34
REMARK   12  A    between atoms: C_34  and  C_35
REMARK                            x       y       z     vdW  Elec       q    Type
REMARK                         _______ _______ _______ _____ _____    ______ ____
ROOT
ATOM      1  C   UNL     1      -0.104  -6.946  -6.622  0.00  0.00    +0.011 C 
ATOM      2  C   UNL     1      -0.132  -8.053  -7.394  0.00  0.00    +0.076 C 
ATOM      3  C   UNL     1       0.899  -8.169  -8.498  0.00  0.00    +0.144 C 
ATOM      4  N   UNL     1       1.853  -7.057  -8.640  0.00  0.00    -0.288 N 
ATOM      5  C   UNL     1       1.754  -6.015  -7.790  0.00  0.00    +0.307 C 
ATOM      6  O   UNL     1       2.537  -5.091  -7.899  0.00  0.00    -0.252 OA
ATOM      7  N   UNL     1       0.818  -5.962  -6.834  0.00  0.00    -0.257 N 
ATOM      8  H   UNL     1       2.536  -7.073  -9.328  0.00  0.00    +0.151 HD
ENDROOT
BRANCH   3   9
ATOM      9  C   UNL     1       1.689  -9.431  -8.265  0.00  0.00    -0.015 A 
ATOM     10  C   UNL     1       1.406 -10.579  -8.982  0.00  0.00    +0.013 A 
ATOM     11  C   UNL     1       2.136 -11.697  -8.749  0.00  0.00    +0.045 A 
ATOM     12  S   UNL     1       3.265 -11.142  -7.482  0.00  0.00    -0.105 S 
ATOM     13  C   UNL     1       2.692  -9.456  -7.354  0.00  0.00    +0.051 A 
ENDBRANCH   3   9
BRANCH   2  14
ATOM     14  C   UNL     1      -1.091  -9.071  -7.178  0.00  0.00    +0.339 C 
ATOM     15  O   UNL     1      -1.985  -8.904  -6.370  0.00  0.00    -0.245 OA
BRANCH  14  16
ATOM     16  O   UNL     1      -1.013 -10.228  -7.869  0.00  0.00    -0.462 OA
BRANCH  16  17
ATOM     17  C   UNL     1      -2.014 -11.212  -7.600  0.00  0.00    +0.229 C 
ATOM     18  C   UNL     1      -1.764 -12.445  -8.471  0.00  0.00    +0.048 C 
ENDBRANCH  16  17
ENDBRANCH  14  16
ENDBRANCH   2  14
BRANCH   1  19
ATOM     19  C   UNL     1      -1.112  -6.790  -5.512  0.00  0.00    -0.026 C 
BRANCH  19  27
ATOM     20  N   UNL     1      -5.943  -7.421  -7.812  0.00  0.00    -0.299 N 
ATOM     21  C   UNL     1      -6.046  -6.417  -6.918  0.00  0.00    +0.302 C 
ATOM     22  O   UNL     1      -7.049  -6.308  -6.240  0.00  0.00    -0.253 OA
ATOM     23  N   UNL     1      -5.037  -5.534  -6.777  0.00  0.00    -0.287 N 
ATOM     24  C   UNL     1      -5.125  -4.519  -5.708  0.00  0.00    +0.107 C 
ATOM     25  C   UNL     1      -3.766  -4.335  -5.007  0.00  0.00    +0.000 C 
ATOM     26  C   UNL     1      -3.103  -5.684  -4.835  0.00  0.00    -0.077 C 
ATOM     27  N   UNL     1      -2.213  -5.932  -5.967  0.00  0.00    +0.384 N 
ATOM     28  C   UNL     1      -2.826  -6.547  -7.082  0.00  0.00    -0.059 C 
ATOM     29  C   UNL     1      -3.904  -5.619  -7.676  0.00  0.00    +0.091 C 
ATOM     30  H   UNL     1      -5.175  -7.467  -8.403  0.00  0.00    +0.150 HD
ATOM     31  H   UNL     1      -1.823  -5.050  -6.264  0.00  0.00    -0.081 HD
BRANCH  20  32
ATOM     32  C   UNL     1      -6.989  -8.443  -7.890  0.00  0.00    +0.105 C 
BRANCH  32  34
ATOM     33  C   UNL     1      -7.724 -10.526  -9.058  0.00  0.00    +0.005 C 
ATOM     34  C   UNL     1      -6.631  -9.458  -8.977  0.00  0.00    +0.015 C 
ENDBRANCH  32  34
ENDBRANCH  20  32
ENDBRANCH  19  27
ENDBRANCH   1  19
BRANCH   7  35
ATOM     35  C   UNL     1       0.787  -4.785  -5.963  0.00  0.00    +0.141 C 
BRANCH  35  36
ATOM     36  C   UNL     1       1.757  -4.975  -4.825  0.00  0.00    -0.015 C 
ATOM     37  C   UNL     1       2.682  -4.077  -4.596  0.00  0.00    +0.005 C 
ENDBRANCH  35  36
ENDBRANCH   7  35
TORSDOF 10
