REMARK  Name = ZINC14535699
REMARK  10 active torsions:
REMARK  status: ('A' for Active; 'I' for Inactive)
REMARK    1  A    between atoms: C_1  and  N_2
REMARK    2  A    between atoms: N_2  and  S_3
REMARK    3  A    between atoms: S_3  and  C_6
REMARK    4  A    between atoms: C_8  and  C_24
REMARK    5  A    between atoms: C_10  and  N_12
REMARK    6  A    between atoms: N_12  and  C_13
REMARK    7  A    between atoms: C_13  and  C_14
REMARK    8  A    between atoms: N_26  and  C_27
REMARK    9  A    between atoms: C_31  and  S_33
REMARK   10  A    between atoms: S_33  and  C_34
REMARK                            x       y       z     vdW  Elec       q    Type
REMARK                         _______ _______ _______ _____ _____    ______ ____
ROOT
ATOM      1  C   UNL     1       2.486  -0.656  -1.445  0.00  0.00    +0.108 A 
ATOM      2  C   UNL     1       3.357  -1.443  -0.719  0.00  0.00    +0.041 A 
ATOM      3  C   UNL     1       4.683  -1.041  -0.545  0.00  0.00    +0.041 A 
ATOM      4  C   UNL     1       5.122   0.158  -1.108  0.00  0.00    +0.036 A 
ATOM      5  C   UNL     1       4.239   0.941  -1.836  0.00  0.00    +0.030 A 
ATOM      6  C   UNL     1       2.923   0.528  -2.007  0.00  0.00    +0.051 A 
ENDROOT
BRANCH   3   7
ATOM      7  C   UNL     1       5.617  -1.881   0.233  0.00  0.00    +0.248 C 
ATOM      8  O   UNL     1       5.232  -2.925   0.722  0.00  0.00    -0.270 OA
ATOM      9  N   UNL     1       6.896  -1.491   0.399  0.00  0.00    -0.281 N 
ATOM     10  H   UNL     1       7.224  -0.698  -0.055  0.00  0.00    +0.155 HD
BRANCH   9  11
ATOM     11  C   UNL     1       7.751  -2.227   1.225  0.00  0.00    +0.035 A 
ATOM     12  C   UNL     1       9.104  -2.321   0.920  0.00  0.00    +0.023 A 
ATOM     13  C   UNL     1       9.949  -3.048   1.736  0.00  0.00    +0.003 A 
ATOM     14  C   UNL     1       9.453  -3.685   2.857  0.00  0.00    +0.015 A 
ATOM     15  C   UNL     1       8.101  -3.596   3.167  0.00  0.00    +0.009 A 
ATOM     16  C   UNL     1       7.250  -2.861   2.353  0.00  0.00    +0.038 A 
BRANCH  15  17
ATOM     17  S   UNL     1       7.469  -4.409   4.598  0.00  0.00    -0.129 S 
ATOM     18  C   UNL     1       8.925  -5.210   5.326  0.00  0.00    +0.090 C 
ENDBRANCH  15  17
ENDBRANCH   9  11
ENDBRANCH   3   7
BRANCH   1  19
ATOM     19  S   UNL     1       0.814  -1.168  -1.663  0.00  0.00    +0.058 S 
ATOM     20  O   UNL     1       0.798  -2.580  -1.506  0.00  0.00    -0.153 OA
ATOM     21  O   UNL     1       0.344  -0.527  -2.841  0.00  0.00    -0.153 OA
BRANCH  19  23
ATOM     22  C   UNL     1      -0.207   0.910  -0.265  0.00  0.00    +0.127 C 
ATOM     23  N   UNL     1      -0.057  -0.541  -0.402  0.00  0.00    -0.193 NA
ATOM     24  H   UNL     1      -0.469  -1.135   0.245  0.00  0.00    +0.148 HD
ENDBRANCH  19  23
ENDBRANCH   1  19
BRANCH   5  25
ATOM     25  N   UNL     1       4.674   2.142  -2.402  0.00  0.00    -0.340 N 
ATOM     26  H   UNL     1       4.057   2.690  -2.911  0.00  0.00    +0.146 HD
BRANCH  25  27
ATOM     27  C   UNL     1       6.063   2.574  -2.226  0.00  0.00    +0.139 C 
BRANCH  27  28
ATOM     28  C   UNL     1       6.273   3.891  -2.929  0.00  0.00    -0.005 A 
ATOM     29  C   UNL     1       6.861   3.924  -4.155  0.00  0.00    +0.007 A 
ATOM     30  C   UNL     1       7.064   5.130  -4.823  0.00  0.00    +0.001 A 
ATOM     31  C   UNL     1       6.679   6.311  -4.264  0.00  0.00    +0.010 A 
ATOM     32  C   UNL     1       6.069   6.314  -3.000  0.00  0.00    +0.001 A 
ATOM     33  C   UNL     1       5.856   5.088  -2.322  0.00  0.00    +0.076 A 
ATOM     34  N   UNL     1       5.281   5.086  -1.115  0.00  0.00    -0.255 NA
ATOM     35  C   UNL     1       4.895   6.201  -0.543  0.00  0.00    +0.111 A 
ATOM     36  C   UNL     1       5.069   7.439  -1.157  0.00  0.00    +0.020 A 
ATOM     37  C   UNL     1       5.656   7.513  -2.388  0.00  0.00    +0.011 A 
ENDBRANCH  27  28
ENDBRANCH  25  27
ENDBRANCH   5  25
TORSDOF 8
