REMARK  Name = ZINC38664691
REMARK  11 active torsions:
REMARK  status: ('A' for Active; 'I' for Inactive)
REMARK    1  A    between atoms: C_1  and  C_2
REMARK    2  A    between atoms: C_4  and  C_7
REMARK    3  A    between atoms: C_8  and  C_9
REMARK    4  A    between atoms: C_8  and  C_10
REMARK    5  A    between atoms: C_14  and  C_39
REMARK    6  A    between atoms: C_18  and  C_38
REMARK    7  A    between atoms: C_20  and  O_37
REMARK    8  A    between atoms: C_22  and  C_36
REMARK    9  A    between atoms: C_26  and  C_34
REMARK   10  A    between atoms: C_26  and  C_35
REMARK   11  A    between atoms: C_27  and  O_33
REMARK                            x       y       z     vdW  Elec       q    Type
REMARK                         _______ _______ _______ _____ _____    ______ ____
ROOT
ATOM      1  C   UNL     1      -4.314  -3.475   2.281  0.00  0.00    +0.206 C 
ATOM      2  C   UNL     1      -5.102  -3.544   0.974  0.00  0.00    +0.076 C 
ATOM      3  C   UNL     1      -4.186  -3.700  -0.207  0.00  0.00    -0.024 C 
ATOM      4  C   UNL     1      -4.678  -3.735  -1.425  0.00  0.00    -0.076 C 
ATOM      5  C   UNL     1      -6.163  -3.644  -1.655  0.00  0.00    +0.030 C 
ATOM      6  C   UNL     1      -6.615  -2.184  -1.653  0.00  0.00    +0.005 C 
ATOM      7  C   UNL     1      -7.943  -2.068  -2.401  0.00  0.00    +0.006 C 
ATOM      8  C   UNL     1      -8.922  -1.197  -1.596  0.00  0.00    +0.015 C 
ATOM      9  C   UNL     1      -9.679  -2.098  -0.631  0.00  0.00    +0.127 C 
ATOM     10  C   UNL     1     -10.455  -1.379   0.457  0.00  0.00    +0.081 C 
ATOM     11  C   UNL     1     -10.240  -2.053   1.784  0.00  0.00    +0.147 C 
ATOM     12  O   UNL     1     -11.074  -2.879   2.127  0.00  0.00    -0.296 OA
ATOM     13  C   UNL     1      -9.087  -1.800   2.714  0.00  0.00    +0.050 C 
ATOM     14  C   UNL     1      -8.760  -3.109   3.446  0.00  0.00    +0.138 C 
ATOM     15  C   UNL     1      -7.463  -3.002   4.240  0.00  0.00    +0.152 C 
ATOM     16  C   UNL     1      -6.343  -3.694   3.504  0.00  0.00    +0.310 C 
ATOM     17  O   UNL     1      -6.507  -4.807   3.067  0.00  0.00    -0.251 OA
ATOM     18  O   UNL     1      -5.170  -3.060   3.347  0.00  0.00    -0.457 OA
ATOM     19  C   UNL     1      -9.502  -0.749   3.751  0.00  0.00    +0.021 C 
ATOM     20  C   UNL     1      -7.849  -1.320   1.967  0.00  0.00    +0.021 C 
ATOM     21  C   UNL     1     -10.240   0.120   0.523  0.00  0.00    +0.018 C 
ATOM     22  C   UNL     1      -9.893  -0.552  -2.595  0.00  0.00    +0.010 C 
ATOM     23  C   UNL     1      -3.741  -3.874  -2.597  0.00  0.00    +0.039 C 
ENDROOT
BRANCH   1  25
ATOM     24  C   UNL     1      -1.932  -2.880   2.218  0.00  0.00    +0.031 C 
ATOM     25  C   UNL     1      -3.193  -2.474   2.154  0.00  0.00    -0.030 C 
ATOM     26  C   UNL     1      -3.506  -1.014   1.954  0.00  0.00    +0.043 C 
BRANCH  24  30
ATOM     27  C   UNL     1      -0.183   1.567   0.800  0.00  0.00    +0.073 C 
ATOM     28  C   UNL     1      -0.094   0.142   1.281  0.00  0.00    +0.076 A 
ATOM     29  N   UNL     1      -1.071  -0.693   1.521  0.00  0.00    -0.245 NA
ATOM     30  C   UNL     1      -0.836  -1.929   1.943  0.00  0.00    +0.071 A 
ATOM     31  C   UNL     1       0.481  -2.275   2.110  0.00  0.00    +0.074 A 
ATOM     32  S   UNL     1       1.286  -0.756   1.628  0.00  0.00    -0.080 S 
ENDBRANCH  24  30
ENDBRANCH   1  25
BRANCH  14  33
ATOM     33  O   UNL     1      -9.834  -3.420   4.342  0.00  0.00    -0.390 OA
ATOM     34  H   UNL     1      -9.704  -4.236   4.844  0.00  0.00    +0.210 HD
ENDBRANCH  14  33
BRANCH   9  35
ATOM     35  O   UNL     1     -10.590  -2.913  -1.390  0.00  0.00    -0.391 OA
ATOM     36  H   UNL     1     -11.116  -3.521  -0.851  0.00  0.00    +0.210 HD
ENDBRANCH   9  35
TORSDOF 4
