REMARK  Name = ZINC22288946
REMARK  6 active torsions:
REMARK  status: ('A' for Active; 'I' for Inactive)
REMARK    1  A    between atoms: C_3  and  S_30
REMARK    2  A    between atoms: C_6  and  C_7
REMARK    3  A    between atoms: C_10  and  C_12
REMARK    4  A    between atoms: C_14  and  C_26
REMARK    5  A    between atoms: N_16  and  C_19
REMARK    6  A    between atoms: S_30  and  N_33
REMARK                            x       y       z     vdW  Elec       q    Type
REMARK                         _______ _______ _______ _____ _____    ______ ____
ROOT
ATOM      1  C   UNL     1       1.385   4.388   0.012  0.00  0.00    +0.061 C 
ATOM      2  C   UNL     1       0.766   5.636   0.025  0.00  0.00    +0.074 C 
ATOM      3  C   UNL     1       1.411   6.955   0.025  0.00  0.00    +0.174 C 
ATOM      4  N   UNL     1       0.472   7.852   0.039  0.00  0.00    -0.167 NA
ATOM      5  N   UNL     1      -0.792   7.262   0.049  0.00  0.00    -0.156 N 
ATOM      6  C   UNL     1      -0.675   5.919   0.034  0.00  0.00    +0.273 C 
ATOM      7  O   UNL     1      -1.583   5.104   0.032  0.00  0.00    -0.268 OA
ENDROOT
BRANCH   5   8
ATOM      8  C   UNL     1      -2.005   7.963   0.064  0.00  0.00    +0.060 A 
ATOM      9  C   UNL     1      -3.208   7.270   0.066  0.00  0.00    +0.027 A 
ATOM     10  C   UNL     1      -4.403   7.963   0.088  0.00  0.00    +0.022 A 
ATOM     11  C   UNL     1      -4.401   9.347   0.095  0.00  0.00    +0.041 A 
ATOM     12  C   UNL     1      -3.203  10.040   0.088  0.00  0.00    +0.022 A 
ATOM     13  C   UNL     1      -2.006   9.352   0.072  0.00  0.00    +0.027 A 
ATOM     14 CL   UNL     1      -5.904  10.215   0.114  0.00  0.00    -0.084 Cl
ENDBRANCH   5   8
BRANCH   1  18
ATOM     15  C   UNL     1      -1.133   1.881   0.017  0.00  0.00    +0.136 A 
ATOM     16  C   UNL     1      -0.013   1.076   0.008  0.00  0.00    +0.050 A 
ATOM     17  C   UNL     1       1.096   1.919   0.002  0.00  0.00    +0.050 A 
ATOM     18  C   UNL     1       0.610   3.221   0.013  0.00  0.00    +0.129 A 
ATOM     19  O   UNL     1      -0.739   3.166   0.026  0.00  0.00    -0.455 OA
BRANCH  15  25
ATOM     20  C   UNL     1      -2.811   0.041   0.008  0.00  0.00    +0.013 A 
ATOM     21  C   UNL     1      -4.120  -0.393   0.016  0.00  0.00    +0.029 A 
ATOM     22  C   UNL     1      -5.156   0.525   0.026  0.00  0.00    +0.105 A 
ATOM     23  C   UNL     1      -4.887   1.883   0.032  0.00  0.00    +0.029 A 
ATOM     24  C   UNL     1      -3.583   2.330   0.029  0.00  0.00    +0.013 A 
ATOM     25  C   UNL     1      -2.531   1.410   0.020  0.00  0.00    +0.017 A 
BRANCH  22  26
ATOM     26  S   UNL     1      -6.826  -0.038   0.029  0.00  0.00    +0.056 S 
ATOM     27  O   UNL     1      -6.811  -1.351   0.573  0.00  0.00    -0.153 OA
ATOM     28  O   UNL     1      -7.606   1.009   0.588  0.00  0.00    -0.153 OA
BRANCH  26  29
ATOM     29  N   UNL     1      -7.296  -0.186  -1.552  0.00  0.00    -0.204 NA
ATOM     30  H   UNL     1      -8.337  -0.537  -1.594  0.00  0.00    +0.144 HD
ATOM     31  H   UNL     1      -6.644  -0.911  -2.062  0.00  0.00    +0.144 HD
ENDBRANCH  26  29
ENDBRANCH  22  26
ENDBRANCH  15  25
ENDBRANCH   1  18
BRANCH   3  32
ATOM     32  C   UNL     1       2.895   7.219   0.011  0.00  0.00    +0.436 C 
ATOM     33  F   UNL     1       3.123   8.599   0.017  0.00  0.00    -0.164 F 
ATOM     34  F   UNL     1       3.481   6.645   1.145  0.00  0.00    -0.164 F 
ATOM     35  F   UNL     1       3.458   6.657  -1.140  0.00  0.00    -0.164 F 
ENDBRANCH   3  32
TORSDOF 6
