REMARK  Name = ZINC39253057
REMARK  6 active torsions:
REMARK  status: ('A' for Active; 'I' for Inactive)
REMARK    1  A    between atoms: C_6  and  C_7
REMARK    2  A    between atoms: C_11  and  C_13
REMARK    3  A    between atoms: N_14  and  N_15
REMARK    4  A    between atoms: C_16  and  C_18
REMARK    5  A    between atoms: N_22  and  C_24
REMARK    6  A    between atoms: C_24  and  C_25
REMARK                            x       y       z     vdW  Elec       q    Type
REMARK                         _______ _______ _______ _____ _____    ______ ____
ROOT
ATOM      1  N   UNL     1       0.730  -4.290   2.261  0.00  0.00    -0.206 N 
ATOM      2  C   UNL     1       1.729  -5.186   2.138  0.00  0.00    +0.255 C 
ATOM      3  O   UNL     1       2.127  -5.503   1.037  0.00  0.00    -0.272 OA
ATOM      4  H   UNL     1       0.412  -4.036   3.142  0.00  0.00    +0.177 HD
ENDROOT
BRANCH   2   5
ATOM      5  C   UNL     1       2.353  -5.793   3.368  0.00  0.00    +0.184 C 
ATOM      6  C   UNL     1       1.330  -6.604   4.135  0.00  0.00    +0.019 C 
ATOM      7  C   UNL     1       1.769  -7.846   4.157  0.00  0.00    +0.086 C 
ATOM      8  N   UNL     1       2.974  -7.975   3.495  0.00  0.00    -0.269 N 
ATOM      9  N   UNL     1       3.391  -6.773   2.991  0.00  0.00    -0.225 NA
ATOM     10  H   UNL     1       3.499  -6.817   1.989  0.00  0.00    +0.146 HD
BRANCH   8  11
ATOM     11  C   UNL     1       3.710  -9.233   3.351  0.00  0.00    +0.160 C 
BRANCH  11  12
ATOM     12  C   UNL     1       4.566  -9.456   4.571  0.00  0.00    -0.010 A 
ATOM     13  C   UNL     1       5.915  -9.153   4.534  0.00  0.00    +0.008 A 
ATOM     14  C   UNL     1       6.700  -9.357   5.653  0.00  0.00    +0.020 A 
ATOM     15  C   UNL     1       6.137  -9.865   6.811  0.00  0.00    +0.042 A 
ATOM     16  C   UNL     1       4.788 -10.168   6.848  0.00  0.00    +0.040 A 
ATOM     17  C   UNL     1       4.002  -9.959   5.729  0.00  0.00    +0.047 A 
ATOM     18 CL   UNL     1       2.307 -10.334   5.777  0.00  0.00    -0.083 Cl
ATOM     19 CL   UNL     1       7.124 -10.122   8.215  0.00  0.00    -0.083 Cl
ENDBRANCH  11  12
ENDBRANCH   8  11
ENDBRANCH   2   5
BRANCH   1  21
ATOM     20  C   UNL     1      -0.799  -2.874   1.234  0.00  0.00    +0.118 C 
ATOM     21  N   UNL     1       0.150  -3.725   1.117  0.00  0.00    -0.192 NA
BRANCH  20  26
ATOM     22  C   UNL     1      -1.260  -0.760   0.011  0.00  0.00    +0.084 C 
ATOM     23  N   UNL     1      -2.470  -0.272   0.019  0.00  0.00    -0.153 NA
ATOM     24  N   UNL     1      -3.439  -1.270   0.026  0.00  0.00    -0.161 NA
ATOM     25  C   UNL     1      -2.927  -2.458   0.021  0.00  0.00    +0.123 C 
ATOM     26  C   UNL     1      -1.423  -2.268   0.004  0.00  0.00    +0.125 C 
BRANCH  22  32
ATOM     27  C   UNL     1      -0.017   1.394   0.010  0.00  0.00    +0.011 A 
ATOM     28  C   UNL     1       1.169   2.097   0.002  0.00  0.00    +0.022 A 
ATOM     29  C   UNL     1       2.378   1.422  -0.013  0.00  0.00    +0.059 A 
ATOM     30  C   UNL     1       2.405   0.035  -0.021  0.00  0.00    +0.060 A 
ATOM     31  C   UNL     1       1.226  -0.680  -0.014  0.00  0.00    +0.031 A 
ATOM     32  C   UNL     1       0.002  -0.004   0.002  0.00  0.00    +0.000 A 
ATOM     33 CL   UNL     1       3.926  -0.801  -0.041  0.00  0.00    -0.082 Cl
ATOM     34 CL   UNL     1       3.867   2.315  -0.022  0.00  0.00    -0.082 Cl
ENDBRANCH  22  32
ENDBRANCH  20  26
ENDBRANCH   1  21
TORSDOF 6
