REMARK  Name = ZINC03373252
REMARK  7 active torsions:
REMARK  status: ('A' for Active; 'I' for Inactive)
REMARK    1  A    between atoms: C_1  and  S_2
REMARK    2  A    between atoms: S_2  and  C_3
REMARK    3  A    between atoms: C_8  and  N_12
REMARK    4  A    between atoms: C_13  and  C_15
REMARK    5  A    between atoms: N_18  and  S_21
REMARK    6  A    between atoms: S_21  and  C_24
REMARK    7  A    between atoms: C_29  and  C_30
REMARK                            x       y       z     vdW  Elec       q    Type
REMARK                         _______ _______ _______ _____ _____    ______ ____
ROOT
ATOM      1  C   UNL     1      -0.287  -6.514   0.171  0.00  0.00    +0.078 C 
ATOM      2  C   UNL     1       0.581  -7.116  -0.936  0.00  0.00    +0.030 C 
ATOM      3  C   UNL     1       0.668  -8.633  -0.743  0.00  0.00    +0.110 C 
ATOM      4  N   UNL     1      -0.694  -9.180  -0.679  0.00  0.00    -0.177 NA
ATOM      5  C   UNL     1      -1.640  -8.610   0.290  0.00  0.00    +0.110 C 
ATOM      6  C   UNL     1      -1.701  -7.093   0.085  0.00  0.00    +0.030 C 
ENDROOT
BRANCH   1   8
ATOM      7  N   UNL     1       0.786  -4.288   0.044  0.00  0.00    -0.285 N 
ATOM      8  C   UNL     1      -0.347  -5.017   0.004  0.00  0.00    +0.220 C 
ATOM      9  O   UNL     1      -1.415  -4.468  -0.167  0.00  0.00    -0.275 OA
ATOM     10  H   UNL     1       1.646  -4.732   0.111  0.00  0.00    +0.155 HD
BRANCH   7  16
ATOM     11  C   UNL     1      -0.514   1.770  -0.997  0.00  0.00    +0.135 A 
ATOM     12  N   UNL     1       0.437   1.260  -0.246  0.00  0.00    -0.233 NA
ATOM     13  C   UNL     1       0.613  -0.073  -0.104  0.00  0.00    +0.080 A 
ATOM     14  C   UNL     1       1.589  -0.746   0.667  0.00  0.00    +0.031 A 
ATOM     15  C   UNL     1       1.632  -2.114   0.705  0.00  0.00    +0.025 A 
ATOM     16  C   UNL     1       0.722  -2.890  -0.009  0.00  0.00    +0.035 A 
ATOM     17  C   UNL     1      -0.249  -2.260  -0.777  0.00  0.00    +0.040 A 
ATOM     18  C   UNL     1      -0.295  -0.889  -0.817  0.00  0.00    +0.042 A 
ATOM     19  S   UNL     1      -1.324   0.309  -1.631  0.00  0.00    -0.061 S 
BRANCH  11  21
ATOM     20  C   UNL     1       0.386   4.257  -0.295  0.00  0.00    +0.092 C 
ATOM     21  S   UNL     1      -0.893   3.464  -1.300  0.00  0.00    -0.102 S 
ENDBRANCH  11  21
ENDBRANCH   7  16
ENDBRANCH   1   8
BRANCH   4  22
ATOM     22  S   UNL     1      -1.154 -10.417  -1.680  0.00  0.00    +0.061 S 
ATOM     23  O   UNL     1       0.041 -11.001  -2.180  0.00  0.00    -0.153 OA
ATOM     24  O   UNL     1      -2.131 -11.169  -0.974  0.00  0.00    -0.153 OA
BRANCH  22  25
ATOM     25  C   UNL     1      -1.976  -9.692  -3.060  0.00  0.00    +0.117 A 
ATOM     26  C   UNL     1      -1.882  -8.331  -3.284  0.00  0.00    +0.029 A 
ATOM     27  C   UNL     1      -2.522  -7.763  -4.369  0.00  0.00    +0.002 A 
ATOM     28  C   UNL     1      -3.267  -8.554  -5.224  0.00  0.00    +0.001 A 
ATOM     29  C   UNL     1      -3.366  -9.914  -4.997  0.00  0.00    +0.014 A 
ATOM     30  C   UNL     1      -2.720 -10.483  -3.915  0.00  0.00    +0.081 A 
BRANCH  30  31
ATOM     31  C   UNL     1      -2.828 -11.966  -3.667  0.00  0.00    +0.419 C 
ATOM     32  F   UNL     1      -3.504 -12.569  -4.733  0.00  0.00    -0.166 F 
ATOM     33  F   UNL     1      -1.546 -12.515  -3.557  0.00  0.00    -0.166 F 
ATOM     34  F   UNL     1      -3.535 -12.190  -2.481  0.00  0.00    -0.166 F 
ENDBRANCH  30  31
ENDBRANCH  22  25
ENDBRANCH   4  22
TORSDOF 6
