REMARK  Name = ZINC13540445
REMARK  8 active torsions:
REMARK  status: ('A' for Active; 'I' for Inactive)
REMARK    1  A    between atoms: C_1  and  C_2
REMARK    2  A    between atoms: C_2  and  C_3
REMARK    3  A    between atoms: C_2  and  C_4
REMARK    4  A    between atoms: C_11  and  C_42
REMARK    5  A    between atoms: N_23  and  C_26
REMARK    6  A    between atoms: C_31  and  N_32
REMARK    7  A    between atoms: C_38  and  C_39
REMARK    8  A    between atoms: C_38  and  C_40
REMARK                            x       y       z     vdW  Elec       q    Type
REMARK                         _______ _______ _______ _____ _____    ______ ____
ROOT
ATOM      1  C   UNL     1       7.465   4.789  -1.364  0.00  0.00    -0.066 C 
ATOM      2  C   UNL     1       7.136   4.112  -0.266  0.00  0.00    -0.019 C 
ATOM      3  C   UNL     1       5.676   3.632  -0.282  0.00  0.00    +0.004 C 
ATOM      4  C   UNL     1       5.416   2.886   1.014  0.00  0.00    +0.012 C 
ATOM      5  C   UNL     1       3.933   2.824   1.383  0.00  0.00    +0.006 C 
ATOM      6  C   UNL     1       3.076   3.248   0.198  0.00  0.00    +0.012 C 
ATOM      7  C   UNL     1       3.354   4.699  -0.157  0.00  0.00    -0.025 C 
ATOM      8  C   UNL     1       4.845   4.899  -0.401  0.00  0.00    +0.007 C 
ATOM      9  C   UNL     1       5.151   5.625  -1.707  0.00  0.00    +0.013 C 
ATOM     10  C   UNL     1       6.347   4.932  -2.383  0.00  0.00    +0.028 C 
ATOM     11  C   UNL     1       5.881   3.526  -2.782  0.00  0.00    +0.096 C 
ATOM     12  C   UNL     1       5.564   2.721  -1.502  0.00  0.00    +0.098 C 
ATOM     13  C   UNL     1       6.688   1.699  -1.463  0.00  0.00    +0.231 C 
ATOM     14  O   UNL     1       6.888   0.906  -0.569  0.00  0.00    -0.274 OA
ATOM     15  N   UNL     1       7.423   1.803  -2.577  0.00  0.00    -0.208 N 
ATOM     16  C   UNL     1       7.029   2.772  -3.411  0.00  0.00    +0.231 C 
ATOM     17  O   UNL     1       7.513   3.003  -4.498  0.00  0.00    -0.274 OA
ATOM     18  C   UNL     1       2.536   5.091  -1.388  0.00  0.00    +0.007 C 
ATOM     19  C   UNL     1       1.049   4.877  -1.106  0.00  0.00    +0.002 C 
ATOM     20  C   UNL     1       0.772   3.411  -0.805  0.00  0.00    +0.018 C 
ATOM     21  C   UNL     1       1.613   2.885   0.358  0.00  0.00    +0.072 C 
ATOM     22  C   UNL     1       1.021   3.335   1.690  0.00  0.00    +0.023 C 
ATOM     23  C   UNL     1       2.977   5.646   0.995  0.00  0.00    +0.012 C 
ENDROOT
BRANCH  15  24
ATOM     24  C   UNL     1       8.509   0.959  -2.850  0.00  0.00    +0.074 A 
ATOM     25  C   UNL     1       9.787   1.316  -2.443  0.00  0.00    +0.026 A 
ATOM     26  C   UNL     1      10.854   0.481  -2.710  0.00  0.00    +0.002 A 
ATOM     27  C   UNL     1      10.652  -0.706  -3.391  0.00  0.00    +0.002 A 
ATOM     28  C   UNL     1       9.380  -1.061  -3.802  0.00  0.00    +0.034 A 
ATOM     29  C   UNL     1       8.309  -0.232  -3.534  0.00  0.00    +0.148 A 
BRANCH  29  30
ATOM     30  N   UNL     1       6.948  -0.614  -3.974  0.00  0.00    +0.058 N 
ATOM     31  O   UNL     1       6.773  -1.660  -4.573  0.00  0.00    -0.126 OA
ATOM     32  O   UNL     1       6.003   0.117  -3.736  0.00  0.00    -0.126 OA
ENDBRANCH  29  30
ENDBRANCH  15  24
BRANCH   1  34
ATOM     33  C   UNL     1       9.462   4.762  -2.838  0.00  0.00    +0.012 C 
ATOM     34  C   UNL     1       8.842   5.370  -1.578  0.00  0.00    +0.009 C 
ATOM     35  C   UNL     1       8.736   6.887  -1.743  0.00  0.00    +0.012 C 
ENDBRANCH   1  34
BRANCH  21  36
ATOM     36  C   UNL     1       1.501   1.363   0.310  0.00  0.00    +0.362 C 
ATOM     37  O   UNL     1       2.497   0.686   0.205  0.00  0.00    -0.246 OA
ATOM     38  O   UNL     1       0.296   0.776   0.383  0.00  0.00    -0.246 OA
ENDBRANCH  21  36
TORSDOF 4
