REMARK  Name = ZINC36066228
REMARK  13 active torsions:
REMARK  status: ('A' for Active; 'I' for Inactive)
REMARK    1  A    between atoms: C_1  and  C_2
REMARK    2  A    between atoms: C_7  and  N_12
REMARK    3  A    between atoms: C_9  and  C_11
REMARK    4  A    between atoms: C_13  and  C_15
REMARK    5  A    between atoms: C_23  and  C_34
REMARK    6  A    between atoms: N_29  and  C_30
REMARK    7  A    between atoms: C_30  and  C_31
REMARK    8  A    between atoms: C_31  and  O_32
REMARK    9  A    between atoms: O_32  and  C_33
REMARK   10  A    between atoms: N_36  and  C_37
REMARK   11  A    between atoms: C_40  and  C_43
REMARK   12  A    between atoms: C_43  and  C_44
REMARK   13  A    between atoms: C_43  and  C_45
REMARK                            x       y       z     vdW  Elec       q    Type
REMARK                         _______ _______ _______ _____ _____    ______ ____
ROOT
ATOM      1  C   UNL     1      -1.372  -4.423   1.699  0.00  0.00    +0.198 C 
ATOM      2  C   UNL     1      -2.296  -3.917   2.763  0.00  0.00    +0.127 C 
ATOM      3  C   UNL     1      -1.667  -3.929   4.144  0.00  0.00    +0.009 C 
ATOM      4  C   UNL     1      -2.592  -3.451   4.964  0.00  0.00    +0.004 C 
ATOM      5  C   UNL     1      -3.819  -3.203   4.078  0.00  0.00    +0.155 C 
ATOM      6  O   UNL     1      -3.176  -2.818   2.792  0.00  0.00    -0.358 OA
ATOM      7  C   UNL     1      -4.324  -4.670   3.792  0.00  0.00    +0.123 C 
ATOM      8  C   UNL     1      -3.360  -5.085   2.681  0.00  0.00    +0.128 C 
ATOM      9  C   UNL     1      -2.464  -6.256   2.679  0.00  0.00    +0.223 C 
ATOM     10  O   UNL     1      -2.689  -7.337   3.180  0.00  0.00    -0.275 OA
ATOM     11  N   UNL     1      -1.326  -5.889   2.001  0.00  0.00    -0.284 N 
ENDROOT
BRANCH   1  13
ATOM     12  N   UNL     1       0.311  -2.709   1.111  0.00  0.00    -0.311 N 
ATOM     13  C   UNL     1      -0.005  -3.803   1.832  0.00  0.00    +0.237 C 
ATOM     14  O   UNL     1       0.809  -4.288   2.588  0.00  0.00    -0.274 OA
ATOM     15  H   UNL     1      -0.340  -2.322   0.506  0.00  0.00    +0.149 HD
BRANCH  12  21
ATOM     16  C   UNL     1       1.013   0.987  -0.966  0.00  0.00    +0.008 C 
ATOM     17  C   UNL     1       1.086  -0.493  -0.586  0.00  0.00    -0.009 C 
ATOM     18  C   UNL     1       2.065  -1.211  -1.517  0.00  0.00    +0.003 C 
ATOM     19  C   UNL     1       2.138  -2.692  -1.137  0.00  0.00    +0.002 C 
ATOM     20  C   UNL     1       2.619  -2.824   0.309  0.00  0.00    +0.022 C 
ATOM     21  C   UNL     1       1.640  -2.106   1.240  0.00  0.00    +0.076 C 
ATOM     22  C   UNL     1       1.567  -0.626   0.860  0.00  0.00    +0.009 C 
ATOM     23  C   UNL     1       0.588   0.092   1.792  0.00  0.00    +0.009 C 
ENDBRANCH  12  21
ENDBRANCH   1  13
BRANCH   7  24
ATOM     24  C   UNL     1      -4.178  -5.540   5.013  0.00  0.00    +0.224 C 
ATOM     25  O   UNL     1      -3.462  -6.519   4.979  0.00  0.00    -0.275 OA
ATOM     26  N   UNL     1      -4.844  -5.232   6.144  0.00  0.00    -0.285 N 
ATOM     27  H   UNL     1      -5.361  -4.413   6.194  0.00  0.00    +0.155 HD
BRANCH  26  28
ATOM     28  C   UNL     1      -4.789  -6.093   7.246  0.00  0.00    +0.033 A 
ATOM     29  C   UNL     1      -4.820  -5.577   8.535  0.00  0.00    +0.023 A 
ATOM     30  C   UNL     1      -4.766  -6.429   9.620  0.00  0.00    +0.006 A 
ATOM     31  C   UNL     1      -4.679  -7.795   9.424  0.00  0.00    -0.045 A 
ATOM     32  C   UNL     1      -4.647  -8.312   8.142  0.00  0.00    +0.006 A 
ATOM     33  C   UNL     1      -4.708  -7.466   7.053  0.00  0.00    +0.023 A 
BRANCH  31  34
ATOM     34  C   UNL     1      -4.620  -8.723  10.610  0.00  0.00    +0.013 C 
ATOM     35  C   UNL     1      -5.811  -9.682  10.568  0.00  0.00    +0.012 C 
ATOM     36  C   UNL     1      -3.317  -9.524  10.566  0.00  0.00    +0.012 C 
ENDBRANCH  31  34
ENDBRANCH  26  28
ENDBRANCH   7  24
BRANCH  11  37
ATOM     37  C   UNL     1      -0.235  -6.793   1.630  0.00  0.00    +0.136 C 
BRANCH  37  38
ATOM     38  C   UNL     1      -0.477  -7.333   0.218  0.00  0.00    +0.178 C 
BRANCH  38  39
ATOM     39  O   UNL     1      -0.412  -6.257  -0.720  0.00  0.00    -0.381 OA
ATOM     40  C   UNL     1      -0.625  -6.655  -2.076  0.00  0.00    +0.194 C 
ENDBRANCH  38  39
ENDBRANCH  37  38
ENDBRANCH  11  37
TORSDOF 8
