REMARK  Name = ZINC03071275
REMARK  4 active torsions:
REMARK  status: ('A' for Active; 'I' for Inactive)
REMARK    1  A    between atoms: C_3  and  N_20
REMARK    2  A    between atoms: C_6  and  C_7
REMARK    3  A    between atoms: N_9  and  N_10
REMARK    4  A    between atoms: C_11  and  C_13
REMARK                            x       y       z     vdW  Elec       q    Type
REMARK                         _______ _______ _______ _____ _____    ______ ____
ROOT
ATOM      1  C   UNL     1       1.250  -2.160  -0.021  0.00  0.00    +0.260 C 
ATOM      2  O   UNL     1       0.208  -2.788  -0.014  0.00  0.00    -0.269 OA
ATOM      3  N   UNL     1       2.429  -2.812  -0.036  0.00  0.00    -0.230 N 
ATOM      4  H   UNL     1       3.260  -2.312  -0.041  0.00  0.00    +0.173 HD
ENDROOT
BRANCH   1  10
ATOM      5  C   UNL     1       0.002  -0.004   0.002  0.00  0.00    +0.015 A 
ATOM      6  C   UNL     1      -0.017   1.375   0.010  0.00  0.00    +0.033 A 
ATOM      7  C   UNL     1       1.170   2.086   0.002  0.00  0.00    +0.126 A 
ATOM      8  C   UNL     1       2.383   1.420  -0.013  0.00  0.00    +0.033 A 
ATOM      9  C   UNL     1       2.416   0.041  -0.021  0.00  0.00    +0.015 A 
ATOM     10  C   UNL     1       1.222  -0.682  -0.013  0.00  0.00    +0.038 A 
BRANCH   7  11
ATOM     11  N   UNL     1       1.143   3.566   0.010  0.00  0.00    +0.056 N 
ATOM     12  O   UNL     1       0.077   4.155   0.023  0.00  0.00    -0.126 OA
ATOM     13  O   UNL     1       2.186   4.195   0.003  0.00  0.00    -0.126 OA
ENDBRANCH   7  11
ENDBRANCH   1  10
BRANCH   3  14
ATOM     14  N   UNL     1       2.455  -4.213  -0.043  0.00  0.00    -0.230 N 
ATOM     15  C   UNL     1       3.635  -4.865  -0.058  0.00  0.00    +0.260 C 
ATOM     16  O   UNL     1       4.676  -4.238  -0.065  0.00  0.00    -0.269 OA
ATOM     17  H   UNL     1       1.624  -4.714  -0.037  0.00  0.00    +0.173 HD
BRANCH  15  18
ATOM     18  C   UNL     1       3.662  -6.343  -0.066  0.00  0.00    +0.038 A 
ATOM     19  C   UNL     1       2.468  -7.066  -0.052  0.00  0.00    +0.014 A 
ATOM     20  C   UNL     1       2.501  -8.445  -0.065  0.00  0.00    +0.015 A 
ATOM     21  C   UNL     1       3.714  -9.112  -0.080  0.00  0.00    +0.013 A 
ATOM     22  C   UNL     1       4.901  -8.400  -0.088  0.00  0.00    +0.015 A 
ATOM     23  C   UNL     1       4.882  -7.021  -0.081  0.00  0.00    +0.014 A 
ATOM     24  I   UNL     1       3.753 -11.206  -0.091  0.00  0.00    -0.044 I 
ENDBRANCH  15  18
ENDBRANCH   3  14
TORSDOF 4
