REMARK  Name = ZINC30835595
REMARK  5 active torsions:
REMARK  status: ('A' for Active; 'I' for Inactive)
REMARK    1  A    between atoms: C_1  and  C_2
REMARK    2  A    between atoms: C_5  and  N_12
REMARK    3  A    between atoms: C_8  and  C_10
REMARK    4  A    between atoms: C_8  and  C_11
REMARK    5  A    between atoms: N_15  and  C_16
REMARK                            x       y       z     vdW  Elec       q    Type
REMARK                         _______ _______ _______ _____ _____    ______ ____
ROOT
ATOM      1  N   UNL     1       1.354   2.998   0.117  0.00  0.00    -0.296 N 
ATOM      2  C   UNL     1       1.409   3.766  -0.988  0.00  0.00    +0.304 C 
ATOM      3  O   UNL     1       0.755   4.789  -1.051  0.00  0.00    -0.253 OA
ATOM      4  N   UNL     1       2.191   3.402  -2.025  0.00  0.00    -0.269 N 
ATOM      5  H   UNL     1       1.947   2.072   0.174  0.00  0.00    +0.151 HD
ATOM      6  H   UNL     1       2.719   2.437  -2.002  0.00  0.00    +0.156 HD
ENDROOT
BRANCH   1  10
ATOM      7  C   UNL     1       0.975   0.223   3.376  0.00  0.00    +0.007 C 
ATOM      8  C   UNL     1       0.624   1.069   2.151  0.00  0.00    -0.012 C 
ATOM      9  C   UNL     1       0.856   2.547   2.469  0.00  0.00    +0.025 C 
ATOM     10  C   UNL     1       0.505   3.394   1.243  0.00  0.00    +0.075 C 
ATOM     11  C   UNL     1      -0.964   3.175   0.876  0.00  0.00    +0.028 C 
ATOM     12  C   UNL     1      -1.196   1.697   0.558  0.00  0.00    -0.033 C 
ATOM     13  C   UNL     1      -0.845   0.851   1.784  0.00  0.00    +0.009 C 
ATOM     14  C   UNL     1      -0.309   1.283  -0.618  0.00  0.00    +0.011 C 
ATOM     15  C   UNL     1      -2.665   1.478   0.191  0.00  0.00    +0.011 C 
ENDBRANCH   1  10
BRANCH   4  16
ATOM     16  C   UNL     1       2.329   4.251  -3.129  0.00  0.00    +0.035 A 
ATOM     17  C   UNL     1       2.489   3.717  -4.401  0.00  0.00    +0.024 A 
ATOM     18  C   UNL     1       2.620   4.556  -5.490  0.00  0.00    +0.017 A 
ATOM     19  C   UNL     1       2.604   5.928  -5.312  0.00  0.00    +0.018 A 
ATOM     20  C   UNL     1       2.451   6.463  -4.045  0.00  0.00    +0.017 A 
ATOM     21  C   UNL     1       2.314   5.628  -2.954  0.00  0.00    +0.024 A 
ATOM     22 BR   UNL     1       2.792   7.075  -6.804  0.00  0.00    -0.050 Br
ENDBRANCH   4  16
TORSDOF 2
