REMARK  Name = ZINC13679782
REMARK  4 active torsions:
REMARK  status: ('A' for Active; 'I' for Inactive)
REMARK    1  A    between atoms: C_5  and  N_7
REMARK    2  A    between atoms: C_8  and  C_10
REMARK    3  A    between atoms: N_13  and  S_21
REMARK    4  A    between atoms: S_21  and  C_24
REMARK                            x       y       z     vdW  Elec       q    Type
REMARK                         _______ _______ _______ _____ _____    ______ ____
ROOT
ATOM      1  C   UNL     1       1.185  -2.163  -0.236  0.00  0.00    +0.278 C 
ATOM      2  C   UNL     1       0.665  -2.789   1.066  0.00  0.00    +0.186 C 
ATOM      3  N   UNL     1       0.741  -4.253   0.917  0.00  0.00    -0.195 N 
ATOM      4  C   UNL     1       1.889  -4.789   0.312  0.00  0.00    +0.093 A 
ATOM      5  C   UNL     1       2.149  -6.147   0.396  0.00  0.00    +0.028 A 
ATOM      6  C   UNL     1       3.277  -6.671  -0.208  0.00  0.00    +0.002 A 
ATOM      7  C   UNL     1       4.144  -5.841  -0.894  0.00  0.00    +0.004 A 
ATOM      8  C   UNL     1       3.890  -4.485  -0.980  0.00  0.00    +0.047 A 
ATOM      9  C   UNL     1       2.762  -3.950  -0.376  0.00  0.00    +0.144 A 
ATOM     10  O   UNL     1       2.522  -2.615  -0.463  0.00  0.00    -0.476 OA
ENDROOT
BRANCH   1  12
ATOM     11  N   UNL     1       0.002  -0.004   0.002  0.00  0.00    -0.281 N 
ATOM     12  C   UNL     1       1.173  -0.661  -0.114  0.00  0.00    +0.260 C 
ATOM     13  O   UNL     1       2.217  -0.044  -0.121  0.00  0.00    -0.271 OA
ATOM     14  H   UNL     1      -0.827  -0.501   0.088  0.00  0.00    +0.155 HD
BRANCH  11  19
ATOM     15  C   UNL     1       0.983   3.486  -0.617  0.00  0.00    +0.002 A 
ATOM     16  C   UNL     1      -0.058   4.163  -0.009  0.00  0.00    +0.001 A 
ATOM     17  C   UNL     1      -1.079   3.460   0.603  0.00  0.00    +0.017 A 
ATOM     18  C   UNL     1      -1.065   2.078   0.605  0.00  0.00    +0.039 A 
ATOM     19  C   UNL     1      -0.018   1.395  -0.001  0.00  0.00    +0.048 A 
ATOM     20  C   UNL     1       1.006   2.105  -0.615  0.00  0.00    +0.024 A 
ATOM     21 BR   UNL     1      -2.466   1.118   1.436  0.00  0.00    -0.048 Br
ENDBRANCH  11  19
ENDBRANCH   1  12
BRANCH   3  22
ATOM     22  S   UNL     1      -0.484  -5.233   1.447  0.00  0.00    +0.075 S 
ATOM     23  O   UNL     1      -1.660  -4.435   1.470  0.00  0.00    -0.150 OA
ATOM     24  O   UNL     1      -0.395  -6.436   0.697  0.00  0.00    -0.150 OA
BRANCH  22  25
ATOM     25  C   UNL     1      -0.128  -5.655   3.120  0.00  0.00    +0.109 A 
ATOM     26  C   UNL     1       0.615  -6.785   3.405  0.00  0.00    +0.030 A 
ATOM     27  C   UNL     1       0.899  -7.114   4.717  0.00  0.00    +0.022 A 
ATOM     28  C   UNL     1       0.431  -6.317   5.746  0.00  0.00    +0.041 A 
ATOM     29  C   UNL     1      -0.318  -5.189   5.461  0.00  0.00    +0.022 A 
ATOM     30  C   UNL     1      -0.597  -4.858   4.148  0.00  0.00    +0.030 A 
ATOM     31 CL   UNL     1       0.782  -6.732   7.394  0.00  0.00    -0.084 Cl
ENDBRANCH  22  25
ENDBRANCH   3  22
TORSDOF 4
