REMARK  Name = ZINC19753973
REMARK  3 active torsions:
REMARK  status: ('A' for Active; 'I' for Inactive)
REMARK    1  A    between atoms: C_4  and  C_7
REMARK    2  A    between atoms: C_8  and  C_9
REMARK    3  A    between atoms: C_15  and  N_18
REMARK                            x       y       z     vdW  Elec       q    Type
REMARK                         _______ _______ _______ _____ _____    ______ ____
ROOT
ATOM      1  C   UNL     1      -0.018   1.459   0.010  0.00  0.00    +0.161 A 
ATOM      2  N   UNL     1      -1.093   2.231   0.019  0.00  0.00    -0.129 NA
ATOM      3  N   UNL     1      -0.747   3.470   0.027  0.00  0.00    -0.129 NA
ATOM      4  C   UNL     1       0.576   3.567   0.015  0.00  0.00    +0.161 A 
ATOM      5  N   UNL     1       1.075   2.289   0.004  0.00  0.00    -0.281 N 
ATOM      6  C   UNL     1       2.421   2.069  -0.010  0.00  0.00    +0.117 A 
ATOM      7  C   UNL     1       3.288   3.113  -0.013  0.00  0.00    +0.041 A 
ATOM      8  C   UNL     1       2.802   4.436  -0.001  0.00  0.00    +0.028 A 
ATOM      9  C   UNL     1       1.460   4.661   0.013  0.00  0.00    +0.050 A 
ENDROOT
BRANCH   7  10
ATOM     10  N   UNL     1       4.668   2.876  -0.027  0.00  0.00    -0.357 N 
ATOM     11  H   UNL     1       5.371   3.721  -0.030  0.00  0.00    +0.142 HD
ATOM     12  H   UNL     1       5.048   1.844  -0.036  0.00  0.00    +0.142 HD
ENDBRANCH   7  10
BRANCH   1  14
ATOM     13  C   UNL     1      -1.156  -0.694   0.009  0.00  0.00    +0.011 C 
ATOM     14  C   UNL     1       0.002  -0.004   0.002  0.00  0.00    +0.049 C 
BRANCH  13  18
ATOM     15  C   UNL     1      -1.099  -4.936  -0.015  0.00  0.00    +0.000 A 
ATOM     16  C   UNL     1      -2.309  -4.264   0.001  0.00  0.00    +0.001 A 
ATOM     17  C   UNL     1      -2.336  -2.885   0.009  0.00  0.00    +0.008 A 
ATOM     18  C   UNL     1      -1.136  -2.166   0.001  0.00  0.00    -0.025 A 
ATOM     19  C   UNL     1       0.082  -2.852  -0.020  0.00  0.00    +0.008 A 
ATOM     20  C   UNL     1       0.092  -4.231  -0.023  0.00  0.00    +0.001 A 
ENDBRANCH  13  18
ENDBRANCH   1  14
TORSDOF 3
