REMARK  Name = ZINC34978311
REMARK  8 active torsions:
REMARK  status: ('A' for Active; 'I' for Inactive)
REMARK    1  A    between atoms: C_1  and  C_2
REMARK    2  A    between atoms: C_7  and  N_8
REMARK    3  A    between atoms: N_11  and  C_12
REMARK    4  A    between atoms: C_12  and  C_14
REMARK    5  A    between atoms: C_12  and  C_21
REMARK    6  A    between atoms: C_14  and  C_15
REMARK    7  A    between atoms: C_27  and  C_30
REMARK    8  A    between atoms: C_31  and  C_33
REMARK                            x       y       z     vdW  Elec       q    Type
REMARK                         _______ _______ _______ _____ _____    ______ ____
ROOT
ATOM      1  C   UNL     1       1.005  -1.058   6.086  0.00  0.00    +0.165 C 
ENDROOT
BRANCH   1   2
ATOM      2  C   UNL     1       1.427  -0.017   7.090  0.00  0.00    +0.236 C 
ATOM      3  O   UNL     1       2.047   0.960   6.725  0.00  0.00    -0.274 OA
ATOM      4  N   UNL     1       1.117  -0.171   8.392  0.00  0.00    -0.297 N 
ATOM      5  C   UNL     1       0.467  -1.401   8.865  0.00  0.00    +0.127 C 
ATOM      6  C   UNL     1      -0.826  -1.022   9.599  0.00  0.00    +0.127 C 
ATOM      7  N   UNL     1      -0.520   0.037  10.571  0.00  0.00    -0.295 N 
ATOM      8  C   UNL     1       0.129   1.268  10.097  0.00  0.00    +0.090 C 
ATOM      9  C   UNL     1       1.427   0.886   9.365  0.00  0.00    +0.130 C 
ATOM     10  C   UNL     1      -0.808   2.009   9.142  0.00  0.00    +0.029 C 
ATOM     11  C   UNL     1      -0.831  -0.117  11.873  0.00  0.00    +0.219 C 
ATOM     12  O   UNL     1      -0.670   0.802  12.648  0.00  0.00    -0.275 OA
BRANCH  11  13
ATOM     13  C   UNL     1      -1.379  -1.431  12.367  0.00  0.00    +0.075 C 
ATOM     14  C   UNL     1      -2.775  -1.653  11.783  0.00  0.00    +0.013 C 
ATOM     15  C   UNL     1      -3.332  -2.987  12.284  0.00  0.00    +0.001 C 
ATOM     16  C   UNL     1      -3.416  -2.963  13.811  0.00  0.00    +0.000 C 
ATOM     17  C   UNL     1      -2.019  -2.741  14.396  0.00  0.00    +0.001 C 
ATOM     18  C   UNL     1      -1.463  -1.407  13.894  0.00  0.00    +0.013 C 
ENDBRANCH  11  13
ENDBRANCH   1   2
BRANCH   1  22
ATOM     19  N   UNL     1       2.662  -1.767   2.881  0.00  0.00    -0.269 N 
ATOM     20  C   UNL     1       1.959  -1.929   4.019  0.00  0.00    +0.304 C 
ATOM     21  O   UNL     1       1.494  -3.017   4.298  0.00  0.00    -0.252 OA
ATOM     22  N   UNL     1       1.770  -0.883   4.849  0.00  0.00    -0.288 N 
ATOM     23  H   UNL     1       3.092  -0.918   2.693  0.00  0.00    +0.156 HD
ATOM     24  H   UNL     1       2.140  -0.015   4.626  0.00  0.00    +0.151 HD
BRANCH  19  31
ATOM     25  C   UNL     1       2.749  -1.147   0.105  0.00  0.00    +0.045 C 
ATOM     26  C   UNL     1       2.818  -2.566   0.607  0.00  0.00    -0.029 A 
ATOM     27  C   UNL     1       2.932  -3.611  -0.289  0.00  0.00    +0.005 A 
ATOM     28  C   UNL     1       2.996  -4.914   0.171  0.00  0.00    +0.000 A 
ATOM     29  C   UNL     1       2.944  -5.175   1.528  0.00  0.00    +0.002 A 
ATOM     30  C   UNL     1       2.830  -4.134   2.429  0.00  0.00    +0.023 A 
ATOM     31  C   UNL     1       2.772  -2.824   1.971  0.00  0.00    +0.038 A 
ENDBRANCH  19  31
ENDBRANCH   1  22
BRANCH   1  32
ATOM     32  C   UNL     1      -0.488  -0.904   5.789  0.00  0.00    +0.067 C 
BRANCH  32  33
ATOM     33  C   UNL     1      -0.928  -1.995   4.846  0.00  0.00    -0.045 A 
ATOM     34  C   UNL     1      -0.866  -1.794   3.480  0.00  0.00    +0.004 A 
ATOM     35  C   UNL     1      -1.269  -2.794   2.615  0.00  0.00    +0.000 A 
ATOM     36  C   UNL     1      -1.734  -3.995   3.116  0.00  0.00    +0.000 A 
ATOM     37  C   UNL     1      -1.796  -4.197   4.483  0.00  0.00    +0.000 A 
ATOM     38  C   UNL     1      -1.388  -3.198   5.347  0.00  0.00    +0.004 A 
ENDBRANCH  32  33
ENDBRANCH   1  32
TORSDOF 6
