REMARK  Name = ZINC22914041
REMARK  8 active torsions:
REMARK  status: ('A' for Active; 'I' for Inactive)
REMARK    1  A    between atoms: C_1  and  C_2
REMARK    2  A    between atoms: C_2  and  C_4
REMARK    3  A    between atoms: C_2  and  N_16
REMARK    4  A    between atoms: C_7  and  C_10
REMARK    5  A    between atoms: C_17  and  C_19
REMARK    6  A    between atoms: C_19  and  N_20
REMARK    7  A    between atoms: N_23  and  C_26
REMARK    8  A    between atoms: C_26  and  C_27
REMARK                            x       y       z     vdW  Elec       q    Type
REMARK                         _______ _______ _______ _____ _____    ______ ____
ROOT
ATOM      1  C   UNL     1       0.780  -1.133   3.576  0.00  0.00    +0.180 C 
ENDROOT
BRANCH   1   2
ATOM      2  N   UNL     1      -0.152  -1.201   4.710  0.00  0.00    -0.292 NA
ATOM      3  C   UNL     1      -1.185  -2.221   4.481  0.00  0.00    +0.100 C 
ATOM      4  C   UNL     1      -2.179  -2.206   5.644  0.00  0.00    +0.100 C 
ATOM      5  N   UNL     1      -1.462  -2.459   6.902  0.00  0.00    -0.294 NA
ATOM      6  C   UNL     1      -0.430  -1.439   7.130  0.00  0.00    +0.100 C 
ATOM      7  C   UNL     1       0.565  -1.454   5.967  0.00  0.00    +0.100 C 
BRANCH   5   8
ATOM      8  C   UNL     1      -2.395  -2.527   8.035  0.00  0.00    +0.137 C 
BRANCH   8   9
ATOM      9  C   UNL     1      -1.666  -3.026   9.256  0.00  0.00    +0.037 A 
ATOM     10  C   UNL     1      -1.506  -2.215  10.359  0.00  0.00    +0.093 A 
ATOM     11  C   UNL     1      -0.829  -2.695  11.480  0.00  0.00    +0.259 A 
ATOM     12  O   UNL     1      -0.685  -1.980  12.459  0.00  0.00    -0.267 OA
ATOM     13  N   UNL     1      -0.327  -3.966  11.481  0.00  0.00    -0.264 N 
ATOM     14  C   UNL     1       0.358  -4.578  12.502  0.00  0.00    +0.104 A 
ATOM     15  C   UNL     1       0.800  -5.830  12.381  0.00  0.00    +0.067 A 
ATOM     16  S   UNL     1       0.251  -6.253  10.736  0.00  0.00    -0.059 S 
ATOM     17  C   UNL     1      -0.530  -4.703  10.345  0.00  0.00    +0.158 A 
ATOM     18  N   UNL     1      -1.170  -4.261   9.291  0.00  0.00    -0.338 N 
ATOM     19  H   UNL     1      -1.280  -4.841   8.521  0.00  0.00    +0.168 HD
ENDBRANCH   8   9
ENDBRANCH   5   8
ENDBRANCH   1   2
BRANCH   1  21
ATOM     20  N   UNL     1       0.711  -0.489   1.189  0.00  0.00    -0.308 N 
ATOM     21  C   UNL     1       0.051  -0.633   2.355  0.00  0.00    +0.228 C 
ATOM     22  O   UNL     1      -1.129  -0.361   2.423  0.00  0.00    -0.274 OA
ATOM     23  H   UNL     1       1.654  -0.707   1.135  0.00  0.00    +0.149 HD
BRANCH  20  25
ATOM     24  C   UNL     1      -0.019   1.526   0.010  0.00  0.00    +0.033 C 
ATOM     25  C   UNL     1       0.002  -0.004   0.002  0.00  0.00    +0.100 C 
BRANCH  25  26
ATOM     26  C   UNL     1       0.707  -0.490  -1.238  0.00  0.00    -0.027 A 
ATOM     27  C   UNL     1       2.090  -0.510  -1.281  0.00  0.00    +0.006 A 
ATOM     28  C   UNL     1       2.741  -0.954  -2.414  0.00  0.00    +0.009 A 
ATOM     29  C   UNL     1       2.003  -1.383  -3.516  0.00  0.00    -0.018 A 
ATOM     30  C   UNL     1       0.611  -1.361  -3.466  0.00  0.00    +0.009 A 
ATOM     31  C   UNL     1      -0.030  -0.920  -2.326  0.00  0.00    +0.006 A 
BRANCH  29  32
ATOM     32  C   UNL     1       2.698  -1.861  -4.737  0.00  0.00    -0.018 A 
ATOM     33  C   UNL     1       4.090  -1.888  -4.784  0.00  0.00    +0.008 A 
ATOM     34  C   UNL     1       4.731  -2.334  -5.922  0.00  0.00    +0.001 A 
ATOM     35  C   UNL     1       3.994  -2.753  -7.014  0.00  0.00    +0.000 A 
ATOM     36  C   UNL     1       2.611  -2.728  -6.973  0.00  0.00    +0.001 A 
ATOM     37  C   UNL     1       1.960  -2.290  -5.838  0.00  0.00    +0.008 A 
ENDBRANCH  29  32
ENDBRANCH  25  26
ENDBRANCH  20  25
ENDBRANCH   1  21
TORSDOF 7
