REMARK  Name = ZINC64761316
REMARK  10 active torsions:
REMARK  status: ('A' for Active; 'I' for Inactive)
REMARK    1  A    between atoms: C_1  and  C_2
REMARK    2  A    between atoms: C_3  and  C_21
REMARK    3  A    between atoms: C_7  and  N_16
REMARK    4  A    between atoms: C_8  and  C_10
REMARK    5  A    between atoms: N_16  and  C_17
REMARK    6  A    between atoms: C_17  and  C_18
REMARK    7  A    between atoms: C_17  and  C_19
REMARK    8  A    between atoms: C_17  and  C_20
REMARK    9  A    between atoms: N_23  and  C_24
REMARK   10  A    between atoms: N_27  and  C_30
REMARK                            x       y       z     vdW  Elec       q    Type
REMARK                         _______ _______ _______ _____ _____    ______ ____
ROOT
ATOM      1  C   UNL     1       1.017  -0.005   0.275  0.00  0.00    +0.065 C 
ATOM      2  C   UNL     1       2.001  -0.241   1.392  0.00  0.00    +0.043 A 
ATOM      3  C   UNL     1       3.321  -0.324   1.116  0.00  0.00    +0.097 A 
ATOM      4  S   UNL     1       4.019  -0.600   2.737  0.00  0.00    -0.044 S 
ATOM      5  C   UNL     1       2.496  -0.582   3.655  0.00  0.00    +0.180 A 
ATOM      6  N   UNL     1       1.550  -0.363   2.678  0.00  0.00    -0.278 N 
ATOM      7  C   UNL     1       0.332  -0.335   3.351  0.00  0.00    +0.132 A 
ATOM      8  C   UNL     1       0.589  -0.528   4.673  0.00  0.00    +0.112 A 
ATOM      9  N   UNL     1       1.932  -0.684   4.820  0.00  0.00    -0.219 NA
ENDROOT
BRANCH   8  10
ATOM     10  C   UNL     1      -0.417  -0.573   5.758  0.00  0.00    +0.004 A 
ATOM     11  C   UNL     1      -1.033   0.602   6.192  0.00  0.00    +0.010 A 
ATOM     12  C   UNL     1      -1.970   0.554   7.203  0.00  0.00    +0.001 A 
ATOM     13  C   UNL     1      -2.300  -0.656   7.787  0.00  0.00    +0.000 A 
ATOM     14  C   UNL     1      -1.693  -1.825   7.362  0.00  0.00    +0.001 A 
ATOM     15  C   UNL     1      -0.759  -1.791   6.347  0.00  0.00    +0.010 A 
ENDBRANCH   8  10
BRANCH   3  16
ATOM     16  C   UNL     1       4.005  -0.217  -0.179  0.00  0.00    +0.253 C 
ATOM     17  O   UNL     1       3.360  -0.026  -1.193  0.00  0.00    -0.270 OA
ATOM     18  N   UNL     1       5.346  -0.330  -0.245  0.00  0.00    -0.308 N 
ATOM     19  H   UNL     1       5.860  -0.482   0.564  0.00  0.00    +0.149 HD
BRANCH  18  20
ATOM     20  C   UNL     1       6.028  -0.223  -1.537  0.00  0.00    +0.070 C 
ATOM     21  C   UNL     1       6.035  -1.590  -2.227  0.00  0.00    +0.003 C 
ATOM     22  C   UNL     1       6.817  -1.489  -3.539  0.00  0.00    -0.077 C 
ATOM     23  N   UNL     1       8.197  -1.073  -3.259  0.00  0.00    +0.378 N 
ATOM     24  C   UNL     1       8.201   0.269  -2.663  0.00  0.00    -0.077 C 
ATOM     25  C   UNL     1       7.473   0.235  -1.317  0.00  0.00    +0.003 C 
ATOM     26  C   UNL     1       8.964  -1.052  -4.512  0.00  0.00    -0.096 C 
ATOM     27  H   UNL     1       8.621  -1.726  -2.618  0.00  0.00    -0.082 HD
ENDBRANCH  18  20
ENDBRANCH   3  16
BRANCH   7  28
ATOM     28  N   UNL     1      -0.925  -0.142   2.774  0.00  0.00    -0.324 N 
ATOM     29  H   UNL     1      -1.262  -0.777   2.123  0.00  0.00    +0.148 HD
BRANCH  28  30
ATOM     30  C   UNL     1      -1.735   1.018   3.153  0.00  0.00    +0.025 C 
ATOM     31  C   UNL     1      -0.815   2.187   3.511  0.00  0.00    +0.031 C 
ATOM     32  C   UNL     1      -2.634   1.417   1.981  0.00  0.00    +0.031 C 
ATOM     33  C   UNL     1      -2.602   0.662   4.362  0.00  0.00    +0.031 C 
ENDBRANCH  28  30
ENDBRANCH   7  28
TORSDOF 5
