REMARK  Name = ZINC30826862
REMARK  11 active torsions:
REMARK  status: ('A' for Active; 'I' for Inactive)
REMARK    1  A    between atoms: C_1  and  C_2
REMARK    2  A    between atoms: C_5  and  C_8
REMARK    3  A    between atoms: N_10  and  C_11
REMARK    4  A    between atoms: C_11  and  N_13
REMARK    5  A    between atoms: N_13  and  C_14
REMARK    6  A    between atoms: C_16  and  C_33
REMARK    7  A    between atoms: C_17  and  O_32
REMARK    8  A    between atoms: C_18  and  C_20
REMARK    9  A    between atoms: C_24  and  C_29
REMARK   10  A    between atoms: C_29  and  C_30
REMARK   11  A    between atoms: C_29  and  C_31
REMARK                            x       y       z     vdW  Elec       q    Type
REMARK                         _______ _______ _______ _____ _____    ______ ____
ROOT
ATOM      1  C   UNL     1       3.751  -6.206  -0.120  0.00  0.00    +0.034 A 
ATOM      2  C   UNL     1       2.608  -6.994  -0.195  0.00  0.00    +0.030 A 
ATOM      3  C   UNL     1       2.713  -8.370  -0.258  0.00  0.00    -0.007 A 
ATOM      4  C   UNL     1       3.961  -8.973  -0.247  0.00  0.00    +0.132 A 
ATOM      5  C   UNL     1       5.116  -8.186  -0.172  0.00  0.00    +0.080 A 
ATOM      6  C   UNL     1       5.003  -6.796  -0.115  0.00  0.00    +0.040 A 
ATOM      7  C   UNL     1       1.469  -9.216  -0.339  0.00  0.00    +0.047 C 
ENDROOT
BRANCH   5   8
ATOM      8  C   UNL     1       6.449  -8.822  -0.160  0.00  0.00    +0.232 A 
ATOM      9  N   UNL     1       7.588  -8.179  -0.098  0.00  0.00    -0.209 NA
ATOM     10  C   UNL     1       8.600  -9.084  -0.105  0.00  0.00    +0.110 A 
ATOM     11  C   UNL     1       9.992  -8.974  -0.056  0.00  0.00    +0.035 A 
ATOM     12  C   UNL     1      10.769 -10.110  -0.087  0.00  0.00    -0.043 A 
ATOM     13  C   UNL     1      10.178 -11.363  -0.166  0.00  0.00    +0.007 A 
ATOM     14  C   UNL     1       8.804 -11.487  -0.214  0.00  0.00    +0.049 A 
ATOM     15  C   UNL     1       8.007 -10.354  -0.185  0.00  0.00    +0.156 A 
ATOM     16  O   UNL     1       6.671 -10.149  -0.217  0.00  0.00    -0.435 OA
BRANCH  12  17
ATOM     17  C   UNL     1      12.270  -9.993  -0.034  0.00  0.00    +0.013 C 
ATOM     18  C   UNL     1      12.797 -10.732   1.198  0.00  0.00    +0.012 C 
ATOM     19  C   UNL     1      12.874 -10.611  -1.297  0.00  0.00    +0.012 C 
ENDBRANCH  12  17
ENDBRANCH   5   8
BRANCH   1  20
ATOM     20  N   UNL     1       3.635  -4.811  -0.058  0.00  0.00    -0.297 N 
ATOM     21  H   UNL     1       2.901  -4.291  -0.691  0.00  0.00    +0.154 HD
BRANCH  20  22
ATOM     22  C   UNL     1       4.421  -4.106   0.780  0.00  0.00    +0.141 C 
ATOM     23  S   UNL     1       5.462  -4.923   1.867  0.00  0.00    -0.018 S 
BRANCH  22  26
ATOM     24  C   UNL     1       5.176  -2.054   1.598  0.00  0.00    +0.250 C 
ATOM     25  O   UNL     1       5.914  -2.634   2.370  0.00  0.00    -0.270 OA
ATOM     26  N   UNL     1       4.389  -2.759   0.761  0.00  0.00    -0.264 N 
ATOM     27  H   UNL     1       3.721  -2.235   0.062  0.00  0.00    +0.157 HD
BRANCH  24  32
ATOM     28  C   UNL     1       5.040   3.697   1.518  0.00  0.00    +0.044 C 
ATOM     29  C   UNL     1       5.075   2.191   1.538  0.00  0.00    -0.050 A 
ATOM     30  C   UNL     1       5.917   1.534   2.419  0.00  0.00    +0.004 A 
ATOM     31  C   UNL     1       5.955   0.155   2.444  0.00  0.00    +0.013 A 
ATOM     32  C   UNL     1       5.141  -0.577   1.578  0.00  0.00    +0.037 A 
ATOM     33  C   UNL     1       4.294   0.091   0.692  0.00  0.00    +0.013 A 
ATOM     34  C   UNL     1       4.266   1.471   0.678  0.00  0.00    +0.004 A 
ENDBRANCH  24  32
ENDBRANCH  22  26
ENDBRANCH  20  22
ENDBRANCH   1  20
BRANCH   4  35
ATOM     35  O   UNL     1       4.063 -10.326  -0.309  0.00  0.00    -0.506 OA
ATOM     36  H   UNL     1       5.053 -10.805  -0.300  0.00  0.00    +0.292 HD
ENDBRANCH   4  35
TORSDOF 7
