REMARK  Name = ZINC23590882
REMARK  6 active torsions:
REMARK  status: ('A' for Active; 'I' for Inactive)
REMARK    1  A    between atoms: C_1  and  C_2
REMARK    2  A    between atoms: C_11  and  N_27
REMARK    3  A    between atoms: C_13  and  S_15
REMARK    4  A    between atoms: S_15  and  C_16
REMARK    5  A    between atoms: C_16  and  C_17
REMARK    6  A    between atoms: C_24  and  C_26
REMARK                            x       y       z     vdW  Elec       q    Type
REMARK                         _______ _______ _______ _____ _____    ______ ____
ROOT
ATOM      1  C   UNL     1       0.794  -4.934  -0.045  0.00  0.00    +0.008 C 
ATOM      2  C   UNL     1       0.595  -3.439   0.212  0.00  0.00    -0.009 C 
ATOM      3  C   UNL     1      -0.563  -2.920  -0.647  0.00  0.00    +0.008 C 
ATOM      4  C   UNL     1      -0.931  -1.500  -0.217  0.00  0.00    +0.037 C 
ATOM      5  C   UNL     1       0.330  -0.640  -0.224  0.00  0.00    -0.025 A 
ATOM      6  C   UNL     1       1.551  -1.209  -0.201  0.00  0.00    -0.004 A 
ATOM      7  S   UNL     1       2.694   0.146  -0.221  0.00  0.00    -0.073 S 
ATOM      8  C   UNL     1       1.525   1.480  -0.259  0.00  0.00    +0.115 A 
ATOM      9  C   UNL     1       0.279   0.823  -0.255  0.00  0.00    +0.051 A 
ATOM     10  C   UNL     1      -0.863   1.672  -0.288  0.00  0.00    +0.129 A 
ATOM     11  N   UNL     1      -0.693   2.983  -0.311  0.00  0.00    -0.207 NA
ATOM     12  C   UNL     1       0.514   3.538  -0.314  0.00  0.00    +0.191 A 
ATOM     13  N   UNL     1       1.613   2.796  -0.288  0.00  0.00    -0.214 NA
ATOM     14  C   UNL     1       1.870  -2.673  -0.167  0.00  0.00    +0.046 C 
ENDROOT
BRANCH  10  15
ATOM     15  N   UNL     1      -2.136   1.132  -0.293  0.00  0.00    -0.343 N 
ATOM     16  H   UNL     1      -3.014   1.794  -0.318  0.00  0.00    +0.144 HD
ATOM     17  H   UNL     1      -2.271   0.041  -0.272  0.00  0.00    +0.144 HD
ENDBRANCH  10  15
BRANCH  12  18
ATOM     18  S   UNL     1       0.657   5.294  -0.351  0.00  0.00    -0.077 S 
BRANCH  18  19
ATOM     19  C   UNL     1      -1.093   5.752  -0.377  0.00  0.00    +0.173 C 
BRANCH  19  20
ATOM     20  C   UNL     1      -1.219   7.254  -0.411  0.00  0.00    +0.226 C 
ATOM     21  O   UNL     1      -0.224   7.946  -0.418  0.00  0.00    -0.275 OA
ATOM     22  N   UNL     1      -2.439   7.827  -0.434  0.00  0.00    -0.298 N 
ATOM     23  C   UNL     1      -3.653   7.011  -0.302  0.00  0.00    +0.108 C 
ATOM     24  C   UNL     1      -4.505   7.575   0.840  0.00  0.00    +0.019 C 
ATOM     25  C   UNL     1      -4.771   9.060   0.586  0.00  0.00    +0.003 C 
ATOM     26  C   UNL     1      -3.443   9.820   0.553  0.00  0.00    +0.022 C 
ATOM     27  C   UNL     1      -2.579   9.282  -0.586  0.00  0.00    +0.073 C 
ATOM     28  C   UNL     1      -1.198   9.939  -0.534  0.00  0.00    +0.028 C 
ENDBRANCH  19  20
ENDBRANCH  18  19
ENDBRANCH  12  18
TORSDOF 4
