REMARK  Name = ZINC39593972
REMARK  10 active torsions:
REMARK  status: ('A' for Active; 'I' for Inactive)
REMARK    1  A    between atoms: C_1  and  C_2
REMARK    2  A    between atoms: C_4  and  N_9
REMARK    3  A    between atoms: C_10  and  C_12
REMARK    4  A    between atoms: C_12  and  S_13
REMARK    5  A    between atoms: S_13  and  C_14
REMARK    6  A    between atoms: C_18  and  C_22
REMARK    7  A    between atoms: N_20  and  N_21
REMARK    8  A    between atoms: C_25  and  C_28
REMARK    9  A    between atoms: C_31  and  O_34
REMARK   10  A    between atoms: O_34  and  C_35
REMARK                            x       y       z     vdW  Elec       q    Type
REMARK                         _______ _______ _______ _____ _____    ______ ____
ROOT
ATOM      1  C   UNL     1       0.541  -7.366  -5.069  0.00  0.00    +0.272 C 
ATOM      2  N   UNL     1      -0.621  -6.993  -5.887  0.00  0.00    -0.159 NA
ATOM      3  N   UNL     1      -0.276  -6.647  -7.021  0.00  0.00    -0.167 NA
ATOM      4  C   UNL     1       1.182  -6.721  -7.180  0.00  0.00    +0.244 C 
ATOM      5  N   UNL     1       1.711  -6.807  -5.793  0.00  0.00    -0.183 NA
ENDROOT
BRANCH   4   6
ATOM      6  C   UNL     1       1.707  -5.465  -7.878  0.00  0.00    +0.195 C 
ATOM      7  C   UNL     1       1.060  -5.300  -9.241  0.00  0.00    +0.035 C 
ATOM      8  C   UNL     1       2.097  -5.361 -10.099  0.00  0.00    +0.091 C 
ATOM      9  N   UNL     1       3.262  -5.540  -9.423  0.00  0.00    -0.154 NA
ATOM     10  N   UNL     1       3.138  -5.606  -8.195  0.00  0.00    -0.176 NA
BRANCH   8  11
ATOM     11  C   UNL     1       1.983  -5.249 -11.574  0.00  0.00    +0.002 A 
ATOM     12  C   UNL     1       0.735  -5.061 -12.166  0.00  0.00    +0.013 A 
ATOM     13  C   UNL     1       0.631  -4.957 -13.537  0.00  0.00    +0.046 A 
ATOM     14  C   UNL     1       1.769  -5.040 -14.328  0.00  0.00    +0.120 A 
ATOM     15  C   UNL     1       3.014  -5.228 -13.742  0.00  0.00    +0.046 A 
ATOM     16  C   UNL     1       3.124  -5.327 -12.371  0.00  0.00    +0.013 A 
BRANCH  14  17
ATOM     17  O   UNL     1       1.664  -4.938 -15.679  0.00  0.00    -0.495 OA
ATOM     18  C   UNL     1       2.875  -5.033 -16.433  0.00  0.00    +0.277 C 
ENDBRANCH  14  17
ENDBRANCH   8  11
ENDBRANCH   4   6
BRANCH   5  19
ATOM     19  N   UNL     1       2.848  -7.710  -5.721  0.00  0.00    -0.263 NA
ATOM     20  H   UNL     1       3.122  -7.871  -4.763  0.00  0.00    +0.137 HD
ATOM     21  H   UNL     1       2.649  -8.580  -6.192  0.00  0.00    +0.137 HD
ENDBRANCH   5  19
BRANCH   1  22
ATOM     22  S   UNL     1       0.411  -6.631  -3.416  0.00  0.00    -0.107 S 
BRANCH  22  23
ATOM     23  C   UNL     1       0.265  -4.851  -3.737  0.00  0.00    +0.168 C 
BRANCH  23  25
ATOM     24  N   UNL     1       0.028  -2.771  -2.420  0.00  0.00    -0.285 N 
ATOM     25  C   UNL     1       0.148  -4.113  -2.428  0.00  0.00    +0.227 C 
ATOM     26  O   UNL     1       0.162  -4.727  -1.382  0.00  0.00    -0.275 OA
ATOM     27  H   UNL     1      -0.060  -2.287  -3.256  0.00  0.00    +0.155 HD
BRANCH  24  31
ATOM     28  C   UNL     1       1.619  -2.350   2.213  0.00  0.00    +0.045 C 
ATOM     29  C   UNL     1       0.793  -1.849   1.057  0.00  0.00    -0.035 A 
ATOM     30  C   UNL     1       0.792  -2.538  -0.141  0.00  0.00    +0.027 A 
ATOM     31  C   UNL     1       0.030  -2.075  -1.206  0.00  0.00    +0.034 A 
ATOM     32  C   UNL     1      -0.729  -0.921  -1.063  0.00  0.00    +0.024 A 
ATOM     33  C   UNL     1      -0.724  -0.236   0.136  0.00  0.00    +0.017 A 
ATOM     34  C   UNL     1       0.032  -0.703   1.197  0.00  0.00    +0.021 A 
ATOM     35 BR   UNL     1       0.029   0.233   2.841  0.00  0.00    -0.050 Br
ENDBRANCH  24  31
ENDBRANCH  23  25
ENDBRANCH  22  23
ENDBRANCH   1  22
TORSDOF 8
