REMARK  Name = ZINC64136959
REMARK  12 active torsions:
REMARK  status: ('A' for Active; 'I' for Inactive)
REMARK    1  A    between atoms: C_1  and  C_2
REMARK    2  A    between atoms: C_2  and  C_3
REMARK    3  A    between atoms: C_2  and  C_4
REMARK    4  A    between atoms: C_2  and  C_5
REMARK    5  A    between atoms: C_8  and  C_11
REMARK    6  A    between atoms: N_13  and  C_14
REMARK    7  A    between atoms: C_14  and  C_25
REMARK    8  A    between atoms: C_15  and  C_16
REMARK    9  A    between atoms: C_20  and  N_22
REMARK   10  A    between atoms: N_27  and  C_28
REMARK   11  A    between atoms: C_28  and  C_29
REMARK   12  A    between atoms: C_29  and  C_30
REMARK                            x       y       z     vdW  Elec       q    Type
REMARK                         _______ _______ _______ _____ _____    ______ ____
ROOT
ATOM      1  C   UNL     1       4.600  -1.930  -6.065  0.00  0.00    +0.097 C 
ATOM      2  C   UNL     1       3.957  -2.786  -6.892  0.00  0.00    +0.036 C 
ENDROOT
BRANCH   2   3
ATOM      3  C   UNL     1       4.710  -3.521  -7.920  0.00  0.00    -0.021 A 
ATOM      4  C   UNL     1       6.043  -3.882  -7.692  0.00  0.00    +0.008 A 
ATOM      5  C   UNL     1       6.742  -4.571  -8.660  0.00  0.00    +0.003 A 
ATOM      6  C   UNL     1       6.129  -4.905  -9.855  0.00  0.00    +0.033 A 
ATOM      7  C   UNL     1       4.812  -4.552 -10.089  0.00  0.00    +0.127 A 
ATOM      8  C   UNL     1       4.097  -3.868  -9.127  0.00  0.00    +0.040 A 
BRANCH   7   9
ATOM      9  N   UNL     1       4.167  -4.913 -11.371  0.00  0.00    +0.056 N 
ATOM     10  O   UNL     1       4.790  -5.517 -12.212  0.00  0.00    -0.126 OA
ATOM     11  O   UNL     1       3.016  -4.605 -11.576  0.00  0.00    -0.126 OA
ENDBRANCH   7   9
ENDBRANCH   2   3
BRANCH   1  14
ATOM     12  C   UNL     1       4.524  -0.411  -4.237  0.00  0.00    +0.248 C 
ATOM     13  O   UNL     1       5.698  -0.152  -4.418  0.00  0.00    -0.270 OA
ATOM     14  N   UNL     1       3.913  -1.339  -5.000  0.00  0.00    -0.277 N 
ATOM     15  H   UNL     1       2.998  -1.596  -4.811  0.00  0.00    +0.155 HD
BRANCH  12  19
ATOM     16  C   UNL     1       2.347   1.610  -1.202  0.00  0.00    -0.042 A 
ATOM     17  C   UNL     1       3.683   1.907  -1.404  0.00  0.00    +0.005 A 
ATOM     18  C   UNL     1       4.396   1.254  -2.389  0.00  0.00    +0.013 A 
ATOM     19  C   UNL     1       3.766   0.292  -3.181  0.00  0.00    +0.037 A 
ATOM     20  C   UNL     1       2.418  -0.002  -2.971  0.00  0.00    +0.013 A 
ATOM     21  C   UNL     1       1.718   0.654  -1.980  0.00  0.00    +0.005 A 
BRANCH  16  23
ATOM     22  C   UNL     1       1.048   1.310   0.889  0.00  0.00    +0.015 C 
ATOM     23  C   UNL     1       1.574   2.328  -0.125  0.00  0.00    -0.013 C 
ATOM     24  C   UNL     1       0.397   3.076  -0.754  0.00  0.00    +0.015 C 
ATOM     25  C   UNL     1       2.492   3.326   0.583  0.00  0.00    +0.015 C 
ENDBRANCH  16  23
ENDBRANCH  12  19
ENDBRANCH   1  14
BRANCH   1  26
ATOM     26  C   UNL     1       6.021  -1.622  -6.285  0.00  0.00    +0.258 C 
ATOM     27  O   UNL     1       6.858  -2.016  -5.496  0.00  0.00    -0.269 OA
ATOM     28  N   UNL     1       6.395  -0.903  -7.362  0.00  0.00    -0.310 N 
ATOM     29  H   UNL     1       5.723  -0.527  -7.952  0.00  0.00    +0.149 HD
BRANCH  28  30
ATOM     30  C   UNL     1       7.817  -0.689  -7.641  0.00  0.00    +0.109 C 
BRANCH  30  31
ATOM     31  C   UNL     1       7.965   0.254  -8.838  0.00  0.00    +0.052 C 
BRANCH  31  32
ATOM     32  C   UNL     1       9.422   0.379  -9.201  0.00  0.00    -0.040 C 
ATOM     33  C   UNL     1      10.090  -0.328 -10.142  0.00  0.00    -0.001 A 
ATOM     34  C   UNL     1       9.674  -1.385 -11.072  0.00  0.00    +0.010 A 
ATOM     35  C   UNL     1      10.590  -1.914 -11.915  0.00  0.00    +0.001 A 
ATOM     36  C   UNL     1      11.923  -1.479 -11.922  0.00  0.00    +0.002 A 
ATOM     37  C   UNL     1      12.379  -0.513 -11.098  0.00  0.00    +0.026 A 
ATOM     38  C   UNL     1      11.502   0.114 -10.170  0.00  0.00    +0.043 A 
ATOM     39  N   UNL     1      11.701   1.057  -9.281  0.00  0.00    -0.380 N 
ATOM     40  C   UNL     1      10.434   1.324  -8.592  0.00  0.00    +0.144 C 
ATOM     41  H   UNL     1      12.544   1.505  -9.110  0.00  0.00    +0.160 HD
ENDBRANCH  31  32
ENDBRANCH  30  31
ENDBRANCH  28  30
ENDBRANCH   1  26
TORSDOF 9
