REMARK  Name = ZINC21032163
REMARK  2 active torsions:
REMARK  status: ('A' for Active; 'I' for Inactive)
REMARK    1  A    between atoms: C_6  and  N_7
REMARK    2  A    between atoms: C_12  and  C_14
REMARK                            x       y       z     vdW  Elec       q    Type
REMARK                         _______ _______ _______ _____ _____    ______ ____
ROOT
ATOM      1  C   UNL     1      -0.017   1.389   0.010  0.00  0.00    +0.025 A 
ATOM      2  C   UNL     1       1.142   2.119   0.003  0.00  0.00    +0.031 A 
ATOM      3  C   UNL     1       2.402   1.478  -0.013  0.00  0.00    +0.080 A 
ATOM      4  C   UNL     1       2.386   0.064  -0.020  0.00  0.00    +0.043 A 
ATOM      5  C   UNL     1       1.224  -0.664  -0.013  0.00  0.00    +0.040 A 
ATOM      6  C   UNL     1       0.002  -0.004   0.002  0.00  0.00    +0.026 A 
ATOM      7  S   UNL     1       4.118  -0.334  -0.039  0.00  0.00    -0.052 S 
ATOM      8  C   UNL     1       4.734   1.344  -0.036  0.00  0.00    +0.166 A 
ATOM      9  N   UNL     1       3.628   2.049  -0.021  0.00  0.00    -0.225 NA
ATOM     10  N   UNL     1       6.047   1.787  -0.046  0.00  0.00    -0.261 N 
ATOM     11  C   UNL     1       6.312   3.108  -0.041  0.00  0.00    +0.253 C 
ATOM     12  O   UNL     1       5.399   3.911  -0.028  0.00  0.00    -0.270 OA
ATOM     13  H   UNL     1       6.872   1.060  -0.058  0.00  0.00    +0.157 HD
ENDROOT
BRANCH  11  14
ATOM     14  C   UNL     1       7.711   3.581  -0.052  0.00  0.00    +0.075 A 
ATOM     15  C   UNL     1       8.762   2.661  -0.067  0.00  0.00    +0.054 A 
ATOM     16  C   UNL     1      10.067   3.110  -0.078  0.00  0.00    +0.124 A 
ATOM     17  C   UNL     1      10.337   4.470  -0.073  0.00  0.00    +0.041 A 
ATOM     18  C   UNL     1       9.302   5.386  -0.058  0.00  0.00    +0.042 A 
ATOM     19  C   UNL     1       7.989   4.951  -0.053  0.00  0.00    +0.136 A 
ATOM     20  F   UNL     1       6.979   5.848  -0.044  0.00  0.00    -0.205 F 
ATOM     21  F   UNL     1      11.085   2.221  -0.093  0.00  0.00    -0.205 F 
ENDBRANCH  11  14
BRANCH   6  22
ATOM     22  N   UNL     1      -1.195  -0.729   0.010  0.00  0.00    -0.358 N 
ATOM     23  H   UNL     1      -1.172  -1.829   0.004  0.00  0.00    +0.142 HD
ATOM     24  H   UNL     1      -2.159  -0.199   0.022  0.00  0.00    +0.142 HD
ENDBRANCH   6  22
TORSDOF 2
