REMARK  Name = ZINC01217095
REMARK  13 active torsions:
REMARK  status: ('A' for Active; 'I' for Inactive)
REMARK    1  A    between atoms: C_1  and  C_2
REMARK    2  A    between atoms: C_2  and  O_3
REMARK    3  A    between atoms: O_3  and  C_4
REMARK    4  A    between atoms: C_4  and  C_6
REMARK    5  A    between atoms: C_7  and  C_36
REMARK    6  A    between atoms: C_14  and  C_15
REMARK    7  A    between atoms: C_18  and  O_22
REMARK    8  A    between atoms: C_19  and  O_21
REMARK    9  A    between atoms: O_22  and  C_23
REMARK   10  A    between atoms: C_25  and  C_27
REMARK   11  A    between atoms: C_30  and  N_33
REMARK   12  A    between atoms: N_33  and  C_34
REMARK   13  A    between atoms: N_33  and  C_35
REMARK                            x       y       z     vdW  Elec       q    Type
REMARK                         _______ _______ _______ _____ _____    ______ ____
ROOT
ATOM      1  C   UNL     1       1.222  12.517  -2.147  0.00  0.00    +0.085 C 
ATOM      2  C   UNL     1       1.648  11.611  -3.077  0.00  0.00    +0.053 C 
ATOM      3  N   UNL     1       1.573  10.309  -2.835  0.00  0.00    -0.228 NA
ATOM      4  C   UNL     1       1.104   9.780  -1.733  0.00  0.00    +0.178 A 
ATOM      5  N   UNL     1       0.624  10.511  -0.671  0.00  0.00    -0.275 N 
ATOM      6  C   UNL     1       0.162   9.857   0.403  0.00  0.00    +0.268 A 
ATOM      7  O   UNL     1      -0.278  10.461   1.363  0.00  0.00    -0.266 OA
ATOM      8  C   UNL     1       0.209   8.389   0.389  0.00  0.00    +0.081 A 
ATOM      9  C   UNL     1      -0.187   7.503   1.340  0.00  0.00    +0.028 C 
ATOM     10  S   UNL     1       0.919   8.083  -1.221  0.00  0.00    -0.046 S 
ATOM     11  C   UNL     1       0.665  11.990  -0.844  0.00  0.00    +0.162 C 
ATOM     12  C   UNL     1       2.210  12.096  -4.389  0.00  0.00    +0.066 C 
ENDROOT
BRANCH   9  13
ATOM     13  C   UNL     1       0.104   6.074   1.179  0.00  0.00    -0.020 A 
ATOM     14  C   UNL     1       1.023   5.649   0.211  0.00  0.00    +0.012 A 
ATOM     15  C   UNL     1       1.293   4.306   0.062  0.00  0.00    +0.050 A 
ATOM     16  C   UNL     1       0.656   3.372   0.868  0.00  0.00    +0.161 A 
ATOM     17  C   UNL     1      -0.264   3.786   1.830  0.00  0.00    +0.159 A 
ATOM     18  C   UNL     1      -0.537   5.130   1.991  0.00  0.00    +0.057 A 
BRANCH  17  19
ATOM     19  O   UNL     1      -0.889   2.867   2.613  0.00  0.00    -0.503 OA
ATOM     20  H   UNL     1      -0.420   2.665   3.434  0.00  0.00    +0.292 HD
ENDBRANCH  17  19
BRANCH  16  21
ATOM     21  O   UNL     1       0.926   2.049   0.715  0.00  0.00    -0.491 OA
ATOM     22  C   UNL     1       1.875   1.693  -0.293  0.00  0.00    +0.277 C 
ENDBRANCH  16  21
ENDBRANCH   9  13
BRANCH  11  23
ATOM     23  C   UNL     1      -0.740  12.514  -0.695  0.00  0.00    -0.020 A 
ATOM     24  C   UNL     1      -1.779  11.906  -1.375  0.00  0.00    +0.008 A 
ATOM     25  C   UNL     1      -3.068  12.380  -1.235  0.00  0.00    +0.023 A 
ATOM     26  C   UNL     1      -3.320  13.476  -0.420  0.00  0.00    +0.029 A 
ATOM     27  C   UNL     1      -2.272  14.089   0.257  0.00  0.00    +0.023 A 
ATOM     28  C   UNL     1      -0.986  13.606   0.117  0.00  0.00    +0.008 A 
BRANCH  26  29
ATOM     29  N   UNL     1      -4.622  13.962  -0.282  0.00  0.00    -0.336 N 
ATOM     30  C   UNL     1      -4.897  15.067   0.640  0.00  0.00    +0.129 C 
ATOM     31  C   UNL     1      -5.712  13.366  -1.057  0.00  0.00    +0.129 C 
ENDBRANCH  26  29
ENDBRANCH  11  23
BRANCH   1  32
ATOM     32  C   UNL     1       1.298  13.897  -2.394  0.00  0.00    +0.339 C 
ATOM     33  O   UNL     1       1.749  14.303  -3.450  0.00  0.00    -0.245 OA
BRANCH  32  34
ATOM     34  O   UNL     1       0.871  14.775  -1.461  0.00  0.00    -0.462 OA
BRANCH  34  36
ATOM     35  C   UNL     1       0.449  16.998  -0.611  0.00  0.00    +0.048 C 
ATOM     36  C   UNL     1       0.978  16.164  -1.780  0.00  0.00    +0.229 C 
ENDBRANCH  34  36
ENDBRANCH  32  34
ENDBRANCH   1  32
TORSDOF 8
