REMARK  Name = ZINC39883672
REMARK  8 active torsions:
REMARK  status: ('A' for Active; 'I' for Inactive)
REMARK    1  A    between atoms: C_1  and  C_2
REMARK    2  A    between atoms: C_4  and  C_37
REMARK    3  A    between atoms: C_10  and  C_11
REMARK    4  A    between atoms: C_11  and  C_12
REMARK    5  A    between atoms: N_14  and  C_15
REMARK    6  A    between atoms: C_16  and  C_26
REMARK    7  A    between atoms: C_21  and  C_25
REMARK    8  A    between atoms: N_28  and  C_29
REMARK                            x       y       z     vdW  Elec       q    Type
REMARK                         _______ _______ _______ _____ _____    ______ ____
ROOT
ATOM      1  C   UNL     1       2.288  -7.017  -2.482  0.00  0.00    +0.084 A 
ATOM      2  C   UNL     1       2.641  -8.010  -3.383  0.00  0.00    +0.069 A 
ATOM      3  C   UNL     1       4.037  -8.083  -3.777  0.00  0.00    -0.023 A 
ATOM      4  C   UNL     1       4.824  -7.151  -3.198  0.00  0.00    -0.004 A 
ATOM      5  S   UNL     1       3.729  -6.212  -2.175  0.00  0.00    -0.077 S 
ATOM      6  C   UNL     1       6.297  -6.968  -3.397  0.00  0.00    +0.046 C 
ATOM      7  C   UNL     1       6.854  -8.232  -4.067  0.00  0.00    -0.009 C 
ATOM      8  C   UNL     1       5.960  -8.598  -5.255  0.00  0.00    +0.008 C 
ATOM      9  C   UNL     1       4.606  -9.102  -4.753  0.00  0.00    +0.037 C 
ATOM     10  C   UNL     1       8.279  -7.967  -4.557  0.00  0.00    +0.008 C 
ENDROOT
BRANCH   1  13
ATOM     11  C   UNL     1       0.868  -5.730  -1.092  0.00  0.00    +0.222 C 
ATOM     12  O   UNL     1       1.818  -5.050  -0.767  0.00  0.00    -0.275 OA
ATOM     13  N   UNL     1       1.032  -6.747  -1.960  0.00  0.00    -0.279 N 
ATOM     14  H   UNL     1       0.272  -7.291  -2.220  0.00  0.00    +0.155 HD
BRANCH  11  15
ATOM     15  C   UNL     1      -0.497  -5.436  -0.524  0.00  0.00    +0.135 C 
BRANCH  15  25
ATOM     16  C   UNL     1       0.817  -3.343   5.906  0.00  0.00    +0.044 C 
ATOM     17  C   UNL     1       0.506  -3.670   4.468  0.00  0.00    -0.047 A 
ATOM     18  C   UNL     1       0.557  -4.988   4.037  0.00  0.00    +0.007 A 
ATOM     19  C   UNL     1       0.279  -5.303   2.736  0.00  0.00    -0.039 A 
ATOM     20  C   UNL     1      -0.059  -4.292   1.838  0.00  0.00    +0.027 A 
ATOM     21  C   UNL     1      -0.113  -2.955   2.268  0.00  0.00    +0.136 A 
ATOM     22  C   UNL     1       0.168  -2.658   3.595  0.00  0.00    +0.050 A 
ATOM     23  O   UNL     1      -0.461  -2.206   1.202  0.00  0.00    -0.463 OA
ATOM     24  C   UNL     1      -0.635  -2.973   0.112  0.00  0.00    +0.200 A 
ATOM     25  C   UNL     1      -0.409  -4.260   0.413  0.00  0.00    +0.007 A 
ATOM     26  C   UNL     1       0.337  -6.736   2.275  0.00  0.00    +0.044 C 
ENDBRANCH  15  25
ENDBRANCH  11  15
ENDBRANCH   1  13
BRANCH   2  27
ATOM     27  C   UNL     1       1.647  -8.947  -3.916  0.00  0.00    +0.247 C 
ATOM     28  O   UNL     1       1.043  -8.678  -4.937  0.00  0.00    -0.270 OA
ATOM     29  N   UNL     1       1.402 -10.106  -3.273  0.00  0.00    -0.307 N 
ATOM     30  H   UNL     1       1.883 -10.321  -2.459  0.00  0.00    +0.149 HD
BRANCH  29  31
ATOM     31  C   UNL     1       0.409 -11.043  -3.805  0.00  0.00    +0.096 C 
ATOM     32  C   UNL     1      -0.989 -10.668  -3.285  0.00  0.00    +0.046 C 
ATOM     33  C   UNL     1      -1.984 -11.818  -3.571  0.00  0.00    +0.168 C 
ATOM     34  S   UNL     1      -0.897 -13.302  -3.575  0.00  0.00    -0.029 S 
ATOM     35  O   UNL     1      -0.924 -13.892  -4.867  0.00  0.00    -0.174 OA
ATOM     36  O   UNL     1      -1.197 -14.098  -2.436  0.00  0.00    -0.174 OA
ATOM     37  C   UNL     1       0.735 -12.485  -3.322  0.00  0.00    +0.188 C 
ENDBRANCH  29  31
ENDBRANCH   2  27
TORSDOF 5
