REMARK  Name = ZINC39694201
REMARK  10 active torsions:
REMARK  status: ('A' for Active; 'I' for Inactive)
REMARK    1  A    between atoms: C_1  and  C_2
REMARK    2  A    between atoms: C_2  and  C_3
REMARK    3  A    between atoms: C_2  and  C_4
REMARK    4  A    between atoms: C_4  and  C_6
REMARK    5  A    between atoms: C_4  and  O_34
REMARK    6  A    between atoms: C_10  and  C_19
REMARK    7  A    between atoms: N_21  and  C_22
REMARK    8  A    between atoms: C_22  and  C_23
REMARK    9  A    between atoms: C_27  and  N_29
REMARK   10  A    between atoms: O_34  and  C_35
REMARK                            x       y       z     vdW  Elec       q    Type
REMARK                         _______ _______ _______ _____ _____    ______ ____
ROOT
ATOM      1  C   UNL     1       0.290  -2.227   1.365  0.00  0.00    +0.257 C 
ATOM      2  O   UNL     1      -0.321  -2.885   2.181  0.00  0.00    -0.272 OA
ATOM      3  N   UNL     1       0.835  -2.827   0.288  0.00  0.00    -0.297 N 
ATOM      4  C   UNL     1       1.708  -2.221  -0.744  0.00  0.00    +0.121 C 
ATOM      5  C   UNL     1       2.765  -3.306  -1.048  0.00  0.00    +0.100 C 
ATOM      6  C   UNL     1       2.094  -4.630  -0.645  0.00  0.00    -0.004 C 
ATOM      7  C   UNL     1       0.701  -4.244  -0.128  0.00  0.00    +0.115 C 
ATOM      8  C   UNL     1       2.892  -5.311   0.463  0.00  0.00    -0.010 C 
ATOM      9  C   UNL     1       2.237  -6.652   0.806  0.00  0.00    -0.082 C 
ATOM     10  N   UNL     1       2.200  -7.502  -0.391  0.00  0.00    +0.379 N 
ATOM     11  C   UNL     1       1.355  -6.882  -1.419  0.00  0.00    -0.082 C 
ATOM     12  C   UNL     1       1.972  -5.551  -1.856  0.00  0.00    -0.010 C 
ATOM     13  H   UNL     1       3.136  -7.614  -0.751  0.00  0.00    -0.086 HD
ATOM     14  H   UNL     1       1.825  -8.406  -0.149  0.00  0.00    -0.086 HD
ENDROOT
BRANCH   5  15
ATOM     15  C   UNL     1       4.007  -3.074  -0.227  0.00  0.00    +0.218 C 
ATOM     16  O   UNL     1       3.923  -2.558   0.868  0.00  0.00    -0.275 OA
ATOM     17  N   UNL     1       5.212  -3.439  -0.709  0.00  0.00    -0.311 N 
ATOM     18  H   UNL     1       5.279  -3.852  -1.584  0.00  0.00    +0.149 HD
BRANCH  17  19
ATOM     19  C   UNL     1       6.419  -3.213   0.089  0.00  0.00    +0.139 C 
BRANCH  19  20
ATOM     20  C   UNL     1       7.623  -3.707  -0.671  0.00  0.00    -0.028 A 
ATOM     21  C   UNL     1       8.044  -5.016  -0.524  0.00  0.00    +0.005 A 
ATOM     22  C   UNL     1       9.148  -5.473  -1.220  0.00  0.00    +0.002 A 
ATOM     23  C   UNL     1       9.834  -4.622  -2.064  0.00  0.00    +0.026 A 
ATOM     24  C   UNL     1       9.415  -3.307  -2.213  0.00  0.00    +0.046 A 
ATOM     25  C   UNL     1       8.302  -2.853  -1.518  0.00  0.00    +0.031 A 
BRANCH  24  26
ATOM     26  N   UNL     1      10.110  -2.441  -3.069  0.00  0.00    -0.323 N 
ATOM     27  C   UNL     1       9.802  -1.130  -3.297  0.00  0.00    +0.091 A 
ATOM     28  C   UNL     1      10.696  -0.634  -4.176  0.00  0.00    +0.019 A 
ATOM     29  C   UNL     1      11.589  -1.674  -4.503  0.00  0.00    +0.019 A 
ATOM     30  C   UNL     1      11.211  -2.767  -3.809  0.00  0.00    +0.091 A 
ENDBRANCH  24  26
ENDBRANCH  19  20
ENDBRANCH  17  19
ENDBRANCH   5  15
BRANCH   1  31
ATOM     31  C   UNL     1       0.438  -0.740   1.555  0.00  0.00    +0.261 C 
BRANCH  31  33
ATOM     32  C   UNL     1       1.802   1.049   2.643  0.00  0.00    +0.011 C 
ATOM     33  C   UNL     1       1.595  -0.461   2.517  0.00  0.00    +0.033 C 
ATOM     34  C   UNL     1       1.266  -1.047   3.892  0.00  0.00    +0.011 C 
ENDBRANCH  31  33
BRANCH  31  35
ATOM     35  O   UNL     1       0.709  -0.123   0.294  0.00  0.00    -0.479 OA
BRANCH  35  36
ATOM     36  C   UNL     1       0.124   1.081   0.058  0.00  0.00    +0.122 A 
ATOM     37  C   UNL     1       0.278   1.698  -1.175  0.00  0.00    +0.045 A 
ATOM     38  C   UNL     1      -0.318   2.921  -1.413  0.00  0.00    +0.004 A 
ATOM     39  C   UNL     1      -1.067   3.531  -0.423  0.00  0.00    +0.000 A 
ATOM     40  C   UNL     1      -1.222   2.918   0.807  0.00  0.00    +0.004 A 
ATOM     41  C   UNL     1      -0.633   1.692   1.048  0.00  0.00    +0.045 A 
ENDBRANCH  35  36
ENDBRANCH  31  35
ENDBRANCH   1  31
TORSDOF 8
