REMARK  Name = ZINC20154393
REMARK  6 active torsions:
REMARK  status: ('A' for Active; 'I' for Inactive)
REMARK    1  A    between atoms: C_3  and  N_28
REMARK    2  A    between atoms: C_4  and  N_25
REMARK    3  A    between atoms: C_6  and  N_7
REMARK    4  A    between atoms: C_8  and  C_10
REMARK    5  A    between atoms: C_11  and  C_12
REMARK    6  A    between atoms: C_15  and  C_17
REMARK                            x       y       z     vdW  Elec       q    Type
REMARK                         _______ _______ _______ _____ _____    ______ ____
ROOT
ATOM      1  N   UNL     1      -1.909  -4.437  -0.011  0.00  0.00    -0.282 N 
ATOM      2  C   UNL     1      -0.809  -4.816  -0.693  0.00  0.00    +0.241 C 
ATOM      3  O   UNL     1      -0.807  -5.867  -1.308  0.00  0.00    -0.270 OA
ATOM      4  H   UNL     1      -1.886  -3.527   0.606  0.00  0.00    +0.155 HD
ENDROOT
BRANCH   1  10
ATOM      5  C   UNL     1      -4.319  -4.577  -0.065  0.00  0.00    +0.025 A 
ATOM      6  C   UNL     1      -5.473  -5.330  -0.148  0.00  0.00    +0.027 A 
ATOM      7  C   UNL     1      -5.394  -6.713  -0.244  0.00  0.00    +0.060 A 
ATOM      8  C   UNL     1      -4.154  -7.339  -0.262  0.00  0.00    +0.149 A 
ATOM      9  C   UNL     1      -3.000  -6.585  -0.185  0.00  0.00    +0.058 A 
ATOM     10  C   UNL     1      -3.079  -5.201  -0.089  0.00  0.00    +0.036 A 
BRANCH   7  11
ATOM     11  N   UNL     1      -6.564  -7.477  -0.321  0.00  0.00    -0.332 N 
ATOM     12  C   UNL     1      -7.410  -7.266   0.861  0.00  0.00    +0.086 C 
ATOM     13  C   UNL     1      -8.638  -8.176   0.776  0.00  0.00    -0.063 C 
ATOM     14  N   UNL     1      -9.379  -7.881  -0.458  0.00  0.00    +0.381 N 
ATOM     15  C   UNL     1      -8.532  -8.093  -1.641  0.00  0.00    -0.063 C 
ATOM     16  C   UNL     1      -7.305  -7.182  -1.556  0.00  0.00    +0.086 C 
ATOM     17  H   UNL     1     -10.255  -8.543  -0.527  0.00  0.00    -0.086 HD
ATOM     18  H   UNL     1      -9.712  -6.833  -0.444  0.00  0.00    -0.086 HD
ENDBRANCH   7  11
BRANCH   8  19
ATOM     19  N   UNL     1      -4.069  -8.813  -0.365  0.00  0.00    +0.058 N 
ATOM     20  O   UNL     1      -2.988  -9.368  -0.285  0.00  0.00    -0.126 OA
ATOM     21  O   UNL     1      -5.081  -9.471  -0.529  0.00  0.00    -0.126 OA
ENDBRANCH   8  19
ENDBRANCH   1  10
BRANCH   2  22
ATOM     22  C   UNL     1       0.341  -3.993  -0.694  0.00  0.00    +0.071 C 
ATOM     23  C   UNL     1       1.448  -4.375  -1.380  0.00  0.00    +0.051 C 
BRANCH  23  24
ATOM     24  C   UNL     1       2.599  -3.553  -1.381  0.00  0.00    +0.129 A 
ATOM     25  C   UNL     1       3.787  -3.819  -2.034  0.00  0.00    +0.050 A 
ATOM     26  C   UNL     1       4.643  -2.747  -1.767  0.00  0.00    +0.050 A 
ATOM     27  C   UNL     1       3.957  -1.874  -0.971  0.00  0.00    +0.136 A 
ATOM     28  O   UNL     1       2.728  -2.370  -0.745  0.00  0.00    -0.455 OA
BRANCH  27  29
ATOM     29  C   UNL     1       4.480  -0.598  -0.445  0.00  0.00    +0.020 A 
ATOM     30  C   UNL     1       5.782  -0.195  -0.749  0.00  0.00    +0.031 A 
ATOM     31  C   UNL     1       6.264   1.002  -0.257  0.00  0.00    +0.043 A 
ATOM     32  C   UNL     1       5.462   1.798   0.543  0.00  0.00    +0.040 A 
ATOM     33  C   UNL     1       4.171   1.403   0.851  0.00  0.00    +0.043 A 
ATOM     34  C   UNL     1       3.676   0.210   0.363  0.00  0.00    +0.031 A 
ATOM     35 CL   UNL     1       3.174   2.408   1.855  0.00  0.00    -0.083 Cl
ATOM     36 CL   UNL     1       7.880   1.507  -0.638  0.00  0.00    -0.083 Cl
ENDBRANCH  27  29
ENDBRANCH  23  24
ENDBRANCH   2  22
TORSDOF 6
