REMARK  Name = ZINC63752565
REMARK  5 active torsions:
REMARK  status: ('A' for Active; 'I' for Inactive)
REMARK    1  A    between atoms: C_1  and  C_2
REMARK    2  A    between atoms: C_7  and  C_22
REMARK    3  A    between atoms: C_9  and  N_12
REMARK    4  A    between atoms: C_13  and  C_15
REMARK    5  A    between atoms: N_27  and  C_30
REMARK                            x       y       z     vdW  Elec       q    Type
REMARK                         _______ _______ _______ _____ _____    ______ ____
ROOT
ATOM      1  C   UNL     1      -2.287   1.101   0.529  0.00  0.00    +0.044 C 
ATOM      2  C   UNL     1      -1.614  -0.241   0.398  0.00  0.00    -0.050 A 
ATOM      3  C   UNL     1      -1.486  -0.819  -0.868  0.00  0.00    +0.005 A 
ATOM      4  C   UNL     1      -0.891  -2.023  -1.048  0.00  0.00    +0.026 A 
ATOM      5  C   UNL     1      -0.378  -2.731   0.069  0.00  0.00    +0.045 A 
ATOM      6  N   UNL     1       0.233  -3.896   0.157  0.00  0.00    -0.369 N 
ATOM      7  C   UNL     1       0.556  -4.162   1.563  0.00  0.00    +0.211 C 
ATOM      8  C   UNL     1       0.048  -2.969   2.341  0.00  0.00    +0.051 C 
ATOM      9  C   UNL     1      -0.514  -2.119   1.401  0.00  0.00    +0.018 A 
ATOM     10  C   UNL     1      -1.143  -0.856   1.511  0.00  0.00    +0.015 A 
ATOM     11  H   UNL     1       0.434  -4.484  -0.587  0.00  0.00    +0.161 HD
ENDROOT
BRANCH   7  12
ATOM     12  C   UNL     1       2.047  -4.298   1.735  0.00  0.00    +0.244 C 
ATOM     13  O   UNL     1       2.798  -3.865   0.886  0.00  0.00    -0.273 OA
ATOM     14  N   UNL     1       2.547  -4.901   2.832  0.00  0.00    -0.296 N 
ATOM     15  C   UNL     1       1.649  -5.435   3.866  0.00  0.00    +0.126 C 
ATOM     16  C   UNL     1       1.980  -6.917   4.083  0.00  0.00    +0.124 C 
ATOM     17  N   UNL     1       3.432  -7.052   4.267  0.00  0.00    -0.327 N 
ATOM     18  C   UNL     1       4.330  -6.517   3.234  0.00  0.00    +0.124 C 
ATOM     19  C   UNL     1       3.998  -5.040   3.013  0.00  0.00    +0.126 C 
BRANCH  17  20
ATOM     20  C   UNL     1       3.950  -7.676   5.404  0.00  0.00    +0.030 A 
ATOM     21  C   UNL     1       3.094  -8.283   6.315  0.00  0.00    +0.023 A 
ATOM     22  C   UNL     1       3.609  -8.900   7.438  0.00  0.00    +0.002 A 
ATOM     23  C   UNL     1       4.975  -8.914   7.657  0.00  0.00    +0.000 A 
ATOM     24  C   UNL     1       5.829  -8.311   6.752  0.00  0.00    +0.002 A 
ATOM     25  C   UNL     1       5.321  -7.697   5.624  0.00  0.00    +0.023 A 
ENDBRANCH  17  20
ENDBRANCH   7  12
BRANCH   8  26
ATOM     26  N   UNL     1       0.125  -2.771   3.685  0.00  0.00    -0.282 N 
ATOM     27  C   UNL     1       0.251  -1.522   4.176  0.00  0.00    +0.248 C 
ATOM     28  O   UNL     1       0.258  -0.570   3.421  0.00  0.00    -0.270 OA
ATOM     29  H   UNL     1       0.089  -3.529   4.289  0.00  0.00    +0.155 HD
BRANCH  27  30
ATOM     30  C   UNL     1       0.380  -1.311   5.632  0.00  0.00    +0.037 A 
ATOM     31  C   UNL     1       0.378  -2.404   6.502  0.00  0.00    +0.014 A 
ATOM     32  C   UNL     1       0.498  -2.200   7.860  0.00  0.00    +0.021 A 
ATOM     33  C   UNL     1       0.622  -0.915   8.362  0.00  0.00    +0.041 A 
ATOM     34  C   UNL     1       0.625   0.173   7.505  0.00  0.00    +0.021 A 
ATOM     35  C   UNL     1       0.511  -0.018   6.144  0.00  0.00    +0.014 A 
ATOM     36 CL   UNL     1       0.774  -0.667  10.074  0.00  0.00    -0.084 Cl
ENDBRANCH  27  30
ENDBRANCH   8  26
TORSDOF 4
