REMARK  Name = ZINC33019106
REMARK  9 active torsions:
REMARK  status: ('A' for Active; 'I' for Inactive)
REMARK    1  A    between atoms: C_1  and  C_2
REMARK    2  A    between atoms: C_5  and  N_8
REMARK    3  A    between atoms: N_11  and  C_12
REMARK    4  A    between atoms: C_19  and  S_21
REMARK    5  A    between atoms: S_21  and  C_22
REMARK    6  A    between atoms: C_22  and  C_23
REMARK    7  A    between atoms: N_25  and  C_26
REMARK    8  A    between atoms: C_29  and  C_33
REMARK    9  A    between atoms: C_30  and  C_32
REMARK                            x       y       z     vdW  Elec       q    Type
REMARK                         _______ _______ _______ _____ _____    ______ ____
ROOT
ATOM      1  C   UNL     1       3.149  -1.355  -5.996  0.00  0.00    +0.036 A 
ATOM      2  C   UNL     1       3.817  -1.510  -4.784  0.00  0.00    +0.025 A 
ATOM      3  C   UNL     1       3.274  -1.065  -3.608  0.00  0.00    +0.031 A 
ATOM      4  C   UNL     1       2.010  -0.431  -3.587  0.00  0.00    +0.080 A 
ATOM      5  C   UNL     1       1.359  -0.290  -4.834  0.00  0.00    +0.042 A 
ATOM      6  C   UNL     1       1.906  -0.737  -6.010  0.00  0.00    +0.040 A 
ATOM      7  S   UNL     1      -0.154   0.523  -4.382  0.00  0.00    -0.061 S 
ATOM      8  C   UNL     1       0.164   0.632  -2.627  0.00  0.00    +0.136 A 
ATOM      9  N   UNL     1       1.342   0.060  -2.519  0.00  0.00    -0.233 NA
ENDROOT
BRANCH   1  13
ATOM     10  N   UNL     1       3.501  -2.858  -9.266  0.00  0.00    -0.269 N 
ATOM     11  C   UNL     1       2.942  -2.327  -8.160  0.00  0.00    +0.308 C 
ATOM     12  O   UNL     1       1.732  -2.307  -8.041  0.00  0.00    -0.252 OA
ATOM     13  N   UNL     1       3.724  -1.819  -7.187  0.00  0.00    -0.269 N 
ATOM     14  H   UNL     1       4.595  -2.946  -9.341  0.00  0.00    +0.156 HD
ATOM     15  H   UNL     1       4.814  -1.768  -7.328  0.00  0.00    +0.156 HD
BRANCH  10  20
ATOM     16  C   UNL     1       0.212  -4.640 -13.531  0.00  0.00    +0.044 C 
ATOM     17  C   UNL     1       1.086  -4.167 -12.398  0.00  0.00    -0.050 A 
ATOM     18  C   UNL     1       2.312  -3.587 -12.668  0.00  0.00    +0.005 A 
ATOM     19  C   UNL     1       3.115  -3.152 -11.632  0.00  0.00    +0.023 A 
ATOM     20  C   UNL     1       2.690  -3.298 -10.318  0.00  0.00    +0.035 A 
ATOM     21  C   UNL     1       1.461  -3.885 -10.050  0.00  0.00    +0.023 A 
ATOM     22  C   UNL     1       0.660  -4.313 -11.091  0.00  0.00    +0.005 A 
ENDBRANCH  10  20
ENDBRANCH   1  13
BRANCH   8  23
ATOM     23  S   UNL     1      -0.848   1.324  -1.361  0.00  0.00    -0.089 S 
BRANCH  23  24
ATOM     24  C   UNL     1       0.199   1.015   0.083  0.00  0.00    +0.172 C 
BRANCH  24  25
ATOM     25  C   UNL     1      -0.484   1.539   1.320  0.00  0.00    +0.227 C 
ATOM     26  O   UNL     1      -1.572   2.068   1.234  0.00  0.00    -0.275 OA
ATOM     27  N   UNL     1       0.114   1.418   2.522  0.00  0.00    -0.285 N 
ATOM     28  H   UNL     1       1.131   1.006   2.591  0.00  0.00    +0.155 HD
BRANCH  27  29
ATOM     29  C   UNL     1      -0.560   1.817   3.681  0.00  0.00    +0.034 A 
ATOM     30  C   UNL     1      -1.397   2.925   3.653  0.00  0.00    +0.023 A 
ATOM     31  C   UNL     1      -2.066   3.312   4.798  0.00  0.00    +0.005 A 
ATOM     32  C   UNL     1      -1.893   2.606   5.974  0.00  0.00    -0.047 A 
ATOM     33  C   UNL     1      -1.055   1.507   6.007  0.00  0.00    -0.046 A 
ATOM     34  C   UNL     1      -0.388   1.110   4.864  0.00  0.00    +0.027 A 
ATOM     35  C   UNL     1      -0.869   0.740   7.291  0.00  0.00    +0.044 C 
ATOM     36  C   UNL     1      -2.619   3.035   7.223  0.00  0.00    +0.044 C 
ENDBRANCH  27  29
ENDBRANCH  24  25
ENDBRANCH  23  24
ENDBRANCH   8  23
TORSDOF 6
