REMARK  Name = ZINC39665262
REMARK  10 active torsions:
REMARK  status: ('A' for Active; 'I' for Inactive)
REMARK    1  A    between atoms: C_1  and  C_2
REMARK    2  A    between atoms: C_2  and  C_3
REMARK    3  A    between atoms: C_3  and  C_5
REMARK    4  A    between atoms: C_3  and  C_11
REMARK    5  A    between atoms: C_15  and  C_24
REMARK    6  A    between atoms: N_26  and  C_27
REMARK    7  A    between atoms: C_27  and  C_28
REMARK    8  A    between atoms: C_28  and  C_30
REMARK    9  A    between atoms: C_28  and  O_31
REMARK   10  A    between atoms: O_31  and  C_32
REMARK                            x       y       z     vdW  Elec       q    Type
REMARK                         _______ _______ _______ _____ _____    ______ ____
ROOT
ATOM      1  C   UNL     1       0.868  -2.031   1.190  0.00  0.00    +0.223 C 
ATOM      2  O   UNL     1       0.384  -2.717   2.066  0.00  0.00    -0.275 OA
ATOM      3  N   UNL     1       1.524  -2.610   0.165  0.00  0.00    -0.300 N 
ATOM      4  C   UNL     1       2.181  -1.945  -0.985  0.00  0.00    +0.121 C 
ATOM      5  C   UNL     1       3.477  -2.753  -1.215  0.00  0.00    +0.100 C 
ATOM      6  C   UNL     1       3.188  -4.138  -0.612  0.00  0.00    -0.004 C 
ATOM      7  C   UNL     1       1.756  -4.056  -0.064  0.00  0.00    +0.115 C 
ATOM      8  C   UNL     1       4.164  -4.436   0.522  0.00  0.00    -0.010 C 
ATOM      9  C   UNL     1       3.894  -5.841   1.067  0.00  0.00    -0.082 C 
ATOM     10  N   UNL     1       4.051  -6.824  -0.011  0.00  0.00    +0.379 N 
ATOM     11  C   UNL     1       3.047  -6.588  -1.056  0.00  0.00    -0.082 C 
ATOM     12  C   UNL     1       3.281  -5.214  -1.690  0.00  0.00    -0.010 C 
ATOM     13  H   UNL     1       4.974  -6.740  -0.409  0.00  0.00    -0.086 HD
ATOM     14  H   UNL     1       3.932  -7.754   0.363  0.00  0.00    -0.086 HD
ENDROOT
BRANCH   5  15
ATOM     15  C   UNL     1       4.635  -2.101  -0.504  0.00  0.00    +0.218 C 
ATOM     16  O   UNL     1       4.435  -1.399   0.464  0.00  0.00    -0.275 OA
ATOM     17  N   UNL     1       5.894  -2.297  -0.946  0.00  0.00    -0.312 N 
ATOM     18  H   UNL     1       6.054  -2.859  -1.720  0.00  0.00    +0.149 HD
BRANCH  17  19
ATOM     19  C   UNL     1       7.019  -1.663  -0.255  0.00  0.00    +0.148 C 
BRANCH  19  20
ATOM     20  C   UNL     1       8.326  -2.046  -0.952  0.00  0.00    +0.187 C 
ATOM     21  C   UNL     1       9.502  -1.383  -0.231  0.00  0.00    +0.053 C 
BRANCH  20  22
ATOM     22  O   UNL     1       8.486  -3.465  -0.919  0.00  0.00    -0.488 OA
BRANCH  22  23
ATOM     23  C   UNL     1       9.258  -4.022  -1.889  0.00  0.00    +0.121 A 
ATOM     24  C   UNL     1       9.360  -5.402  -1.990  0.00  0.00    +0.045 A 
ATOM     25  C   UNL     1      10.145  -5.965  -2.977  0.00  0.00    +0.004 A 
ATOM     26  C   UNL     1      10.829  -5.155  -3.865  0.00  0.00    +0.000 A 
ATOM     27  C   UNL     1      10.729  -3.780  -3.766  0.00  0.00    +0.004 A 
ATOM     28  C   UNL     1       9.941  -3.212  -2.785  0.00  0.00    +0.045 A 
ENDBRANCH  22  23
ENDBRANCH  20  22
ENDBRANCH  19  20
ENDBRANCH  17  19
ENDBRANCH   5  15
BRANCH   1  29
ATOM     29  C   UNL     1       0.734  -0.531   1.248  0.00  0.00    +0.105 C 
BRANCH  29  30
ATOM     30  C   UNL     1      -0.036  -0.142   2.483  0.00  0.00    -0.036 A 
ATOM     31  C   UNL     1      -1.326  -0.604   2.667  0.00  0.00    +0.004 A 
ATOM     32  C   UNL     1      -2.033  -0.248   3.800  0.00  0.00    +0.000 A 
ATOM     33  C   UNL     1      -1.449   0.570   4.750  0.00  0.00    +0.000 A 
ATOM     34  C   UNL     1      -0.159   1.031   4.566  0.00  0.00    +0.000 A 
ATOM     35  C   UNL     1       0.549   0.671   3.435  0.00  0.00    +0.004 A 
ENDBRANCH  29  30
BRANCH  29  37
ATOM     36  C   UNL     1      -0.037   1.493   0.002  0.00  0.00    +0.005 C 
ATOM     37  C   UNL     1      -0.010  -0.037   0.006  0.00  0.00    +0.014 C 
ENDBRANCH  29  37
ENDBRANCH   1  29
TORSDOF 8
