REMARK  Name = ZINC20764833
REMARK  7 active torsions:
REMARK  status: ('A' for Active; 'I' for Inactive)
REMARK    1  A    between atoms: C_1  and  C_2
REMARK    2  A    between atoms: C_5  and  C_8
REMARK    3  A    between atoms: C_10  and  C_23
REMARK    4  A    between atoms: C_13  and  C_16
REMARK    5  A    between atoms: C_21  and  O_22
REMARK    6  A    between atoms: C_26  and  O_30
REMARK    7  A    between atoms: O_30  and  C_31
REMARK                            x       y       z     vdW  Elec       q    Type
REMARK                         _______ _______ _______ _____ _____    ______ ____
ROOT
ATOM      1  C   UNL     1      -0.162   7.328   1.523  0.00  0.00    +0.040 C 
ATOM      2  N   UNL     1      -0.854   7.931   0.632  0.00  0.00    -0.299 NA
ATOM      3  C   UNL     1      -1.393   7.287  -0.560  0.00  0.00    +0.081 C 
ATOM      4  N   UNL     1      -1.407   5.828  -0.399  0.00  0.00    +0.401 N 
ATOM      5  C   UNL     1      -0.082   5.350   0.031  0.00  0.00    -0.028 C 
ATOM      6  C   UNL     1       0.174   5.864   1.451  0.00  0.00    +0.044 C 
ATOM      7  H   UNL     1      -2.154   5.550   0.360  0.00  0.00    -0.081 HD
ATOM      8  H   UNL     1      -1.666   5.356  -1.358  0.00  0.00    -0.081 HD
ENDROOT
BRANCH   1  13
ATOM      9  C   UNL     1       1.761  10.363   6.016  0.00  0.00    +0.044 C 
ATOM     10  C   UNL     1       1.257   9.568   4.839  0.00  0.00    -0.050 A 
ATOM     11  C   UNL     1       0.505  10.191   3.858  0.00  0.00    +0.004 A 
ATOM     12  C   UNL     1       0.041   9.469   2.778  0.00  0.00    +0.010 A 
ATOM     13  C   UNL     1       0.332   8.107   2.676  0.00  0.00    -0.004 A 
ATOM     14  C   UNL     1       1.086   7.484   3.672  0.00  0.00    +0.010 A 
ATOM     15  C   UNL     1       1.549   8.219   4.744  0.00  0.00    +0.004 A 
ENDBRANCH   1  13
BRANCH   3  16
ATOM     16  C   UNL     1      -2.800   7.774  -0.794  0.00  0.00    -0.039 A 
ATOM     17  C   UNL     1      -3.722   6.948  -1.411  0.00  0.00    +0.007 A 
ATOM     18  C   UNL     1      -5.014   7.390  -1.623  0.00  0.00    +0.047 A 
ATOM     19  C   UNL     1      -5.383   8.667  -1.226  0.00  0.00    +0.134 A 
ATOM     20  C   UNL     1      -4.454   9.495  -0.611  0.00  0.00    +0.060 A 
ATOM     21  C   UNL     1      -3.165   9.046  -0.397  0.00  0.00    +0.022 A 
ATOM     22 BR   UNL     1      -4.953  11.236  -0.067  0.00  0.00    -0.047 Br
BRANCH  19  23
ATOM     23  O   UNL     1      -6.652   9.106  -1.438  0.00  0.00    -0.494 OA
ATOM     24  C   UNL     1      -7.553   8.199  -2.076  0.00  0.00    +0.277 C 
ENDBRANCH  19  23
ENDBRANCH   3  16
BRANCH   5  25
ATOM     25  C   UNL     1      -0.057   3.844   0.023  0.00  0.00    -0.019 A 
ATOM     26  C   UNL     1      -1.242   3.132   0.031  0.00  0.00    +0.005 A 
ATOM     27  C   UNL     1      -1.220   1.750   0.017  0.00  0.00    +0.000 A 
ATOM     28  C   UNL     1      -0.013   1.076   0.008  0.00  0.00    +0.004 A 
ATOM     29  C   UNL     1       1.174   1.782   0.000  0.00  0.00    +0.045 A 
ATOM     30  C   UNL     1       1.155   3.169   0.008  0.00  0.00    +0.118 A 
BRANCH  30  31
ATOM     31  O   UNL     1       2.321   3.867   0.000  0.00  0.00    -0.507 OA
ATOM     32  H   UNL     1       3.282   3.331  -0.012  0.00  0.00    +0.292 HD
ENDBRANCH  30  31
ENDBRANCH   5  25
TORSDOF 5
