REMARK  Name = ZINC01427803
REMARK  5 active torsions:
REMARK  status: ('A' for Active; 'I' for Inactive)
REMARK    1  A    between atoms: C_1  and  C_2
REMARK    2  A    between atoms: C_3  and  C_29
REMARK    3  A    between atoms: C_4  and  C_20
REMARK    4  A    between atoms: C_10  and  C_15
REMARK    5  A    between atoms: N_31  and  C_32
REMARK                            x       y       z     vdW  Elec       q    Type
REMARK                         _______ _______ _______ _____ _____    ______ ____
ROOT
ATOM      1  C   UNL     1      -4.830   8.316  -3.689  0.00  0.00    +0.061 C 
ATOM      2  C   UNL     1      -4.656   7.596  -2.376  0.00  0.00    +0.014 C 
ATOM      3  C   UNL     1      -5.202   8.106  -1.259  0.00  0.00    +0.043 C 
ATOM      4  C   UNL     1      -5.058   7.413   0.064  0.00  0.00    +0.090 C 
ATOM      5  C   UNL     1      -3.932   6.411   0.031  0.00  0.00    +0.024 C 
ATOM      6  C   UNL     1      -3.436   5.970  -1.144  0.00  0.00    +0.016 C 
ATOM      7  N   UNL     1      -3.945   6.429  -2.329  0.00  0.00    -0.321 N 
ATOM      8  C   UNL     1      -2.311   4.965  -1.185  0.00  0.00    +0.060 C 
ATOM      9  C   UNL     1      -2.389   4.055   0.042  0.00  0.00    +0.039 C 
ATOM     10  C   UNL     1      -2.313   4.928   1.300  0.00  0.00    +0.088 C 
ATOM     11  C   UNL     1      -3.417   5.948   1.255  0.00  0.00    +0.162 C 
ATOM     12  O   UNL     1      -3.873   6.380   2.295  0.00  0.00    -0.292 OA
ATOM     13  H   UNL     1      -3.777   5.851  -3.249  0.00  0.00    +0.152 HD
ENDROOT
BRANCH   4  14
ATOM     14  C   UNL     1      -6.345   6.700   0.392  0.00  0.00    -0.032 A 
ATOM     15  C   UNL     1      -6.811   5.700  -0.441  0.00  0.00    +0.008 A 
ATOM     16  C   UNL     1      -7.989   5.040  -0.142  0.00  0.00    +0.050 A 
ATOM     17  C   UNL     1      -8.710   5.388   0.989  0.00  0.00    +0.166 A 
ATOM     18  C   UNL     1      -8.243   6.399   1.825  0.00  0.00    +0.167 A 
ATOM     19  C   UNL     1      -7.059   7.052   1.522  0.00  0.00    +0.054 A 
ATOM     20  O   UNL     1      -9.122   6.551   2.858  0.00  0.00    -0.453 OA
ATOM     21  C   UNL     1      -9.916   5.350   2.868  0.00  0.00    +0.466 C 
ATOM     22  O   UNL     1      -9.881   4.906   1.498  0.00  0.00    -0.453 OA
ENDBRANCH   4  14
BRANCH   9  23
ATOM     23  C   UNL     1      -1.236   3.085   0.028  0.00  0.00    -0.006 A 
ATOM     24  C   UNL     1      -1.260   1.730   0.010  0.00  0.00    +0.011 A 
ATOM     25  C   UNL     1      -0.064   1.038   0.003  0.00  0.00    +0.008 A 
ATOM     26  C   UNL     1       1.099   1.735   0.003  0.00  0.00    +0.045 A 
ATOM     27  S   UNL     1       0.517   3.423   0.022  0.00  0.00    -0.101 S 
ENDBRANCH   9  23
BRANCH   3  28
ATOM     28  C   UNL     1      -5.927   9.320  -1.332  0.00  0.00    +0.247 C 
ATOM     29  O   UNL     1      -6.051   9.892  -2.400  0.00  0.00    -0.270 OA
ATOM     30  N   UNL     1      -6.480   9.843  -0.219  0.00  0.00    -0.282 N 
ATOM     31  H   UNL     1      -6.433   9.290   0.730  0.00  0.00    +0.155 HD
BRANCH  30  32
ATOM     32  C   UNL     1      -7.113  11.089  -0.272  0.00  0.00    +0.034 A 
ATOM     33  C   UNL     1      -7.043  11.951   0.814  0.00  0.00    +0.023 A 
ATOM     34  C   UNL     1      -7.665  13.183   0.757  0.00  0.00    +0.002 A 
ATOM     35  C   UNL     1      -8.366  13.553  -0.376  0.00  0.00    +0.000 A 
ATOM     36  C   UNL     1      -8.442  12.695  -1.457  0.00  0.00    +0.002 A 
ATOM     37  C   UNL     1      -7.818  11.464  -1.409  0.00  0.00    +0.023 A 
ENDBRANCH  30  32
ENDBRANCH   3  28
TORSDOF 4
