REMARK  Name = ZINC36312028
REMARK  9 active torsions:
REMARK  status: ('A' for Active; 'I' for Inactive)
REMARK    1  A    between atoms: C_1  and  C_2
REMARK    2  A    between atoms: C_2  and  C_3
REMARK    3  A    between atoms: C_2  and  C_4
REMARK    4  A    between atoms: C_2  and  C_5
REMARK    5  A    between atoms: C_8  and  C_11
REMARK    6  A    between atoms: N_16  and  C_19
REMARK    7  A    between atoms: C_19  and  C_21
REMARK    8  A    between atoms: C_19  and  C_26
REMARK    9  A    between atoms: N_28  and  C_29
REMARK                            x       y       z     vdW  Elec       q    Type
REMARK                         _______ _______ _______ _____ _____    ______ ____
ROOT
ATOM      1  C   UNL     1       2.779  -1.319  -5.520  0.00  0.00    +0.246 C 
ATOM      2  O   UNL     1       2.280  -2.134  -6.271  0.00  0.00    -0.270 OA
ATOM      3  N   UNL     1       4.098  -1.051  -5.596  0.00  0.00    -0.301 N 
ATOM      4  C   UNL     1       4.744  -0.152  -4.628  0.00  0.00    +0.089 C 
ATOM      5  C   UNL     1       5.985  -0.853  -4.067  0.00  0.00    -0.058 C 
ATOM      6  N   UNL     1       6.852  -1.274  -5.175  0.00  0.00    +0.390 N 
ATOM      7  C   UNL     1       6.164  -2.282  -5.992  0.00  0.00    -0.058 C 
ATOM      8  C   UNL     1       4.933  -1.655  -6.646  0.00  0.00    +0.089 C 
ATOM      9  H   UNL     1       7.076  -0.474  -5.748  0.00  0.00    -0.081 HD
ENDROOT
BRANCH   1  13
ATOM     10  C   UNL     1       0.367   0.685  -2.654  0.00  0.00    -0.042 A 
ATOM     11  C   UNL     1       0.119  -0.642  -2.957  0.00  0.00    +0.005 A 
ATOM     12  C   UNL     1       0.898  -1.299  -3.886  0.00  0.00    +0.013 A 
ATOM     13  C   UNL     1       1.939  -0.621  -4.523  0.00  0.00    +0.037 A 
ATOM     14  C   UNL     1       2.185   0.717  -4.213  0.00  0.00    +0.013 A 
ATOM     15  C   UNL     1       1.395   1.364  -3.285  0.00  0.00    +0.005 A 
BRANCH  10  17
ATOM     16  C   UNL     1      -1.182   2.588  -2.299  0.00  0.00    +0.015 C 
ATOM     17  C   UNL     1      -0.488   1.396  -1.637  0.00  0.00    -0.013 C 
ATOM     18  C   UNL     1       0.392   1.891  -0.488  0.00  0.00    +0.015 C 
ATOM     19  C   UNL     1      -1.542   0.430  -1.093  0.00  0.00    +0.015 C 
ENDBRANCH  10  17
ENDBRANCH   1  13
BRANCH   6  20
ATOM     20  C   UNL     1       8.091  -1.847  -4.635  0.00  0.00    +0.023 C 
BRANCH  20  21
ATOM     21  C   UNL     1       8.728  -0.857  -3.658  0.00  0.00    -0.016 C 
ATOM     22  C   UNL     1       8.957   0.500  -4.356  0.00  0.00    +0.002 C 
ATOM     23  C   UNL     1      10.303   1.003  -3.777  0.00  0.00    +0.000 C 
ATOM     24  C   UNL     1      11.135  -0.299  -3.667  0.00  0.00    +0.000 C 
ATOM     25  C   UNL     1      10.113  -1.365  -3.220  0.00  0.00    +0.002 C 
ENDBRANCH  20  21
BRANCH  20  26
ATOM     26  C   UNL     1       7.778  -3.133  -3.913  0.00  0.00    +0.204 C 
ATOM     27  O   UNL     1       6.627  -3.421  -3.660  0.00  0.00    -0.277 OA
ATOM     28  N   UNL     1       8.776  -3.962  -3.548  0.00  0.00    -0.285 N 
ATOM     29  H   UNL     1       9.699  -3.698  -3.684  0.00  0.00    +0.155 HD
BRANCH  28  30
ATOM     30  C   UNL     1       8.479  -5.205  -2.973  0.00  0.00    +0.069 A 
ATOM     31  C   UNL     1       7.206  -5.742  -3.098  0.00  0.00    +0.029 A 
ATOM     32  C   UNL     1       6.915  -6.968  -2.531  0.00  0.00    +0.040 A 
ATOM     33  C   UNL     1       7.893  -7.661  -1.837  0.00  0.00    +0.126 A 
ATOM     34  C   UNL     1       9.164  -7.128  -1.710  0.00  0.00    +0.078 A 
ATOM     35  C   UNL     1       9.462  -5.904  -2.282  0.00  0.00    +0.147 A 
ATOM     36  F   UNL     1      10.704  -5.386  -2.163  0.00  0.00    -0.203 F 
ATOM     37  F   UNL     1       7.606  -8.860  -1.284  0.00  0.00    -0.205 F 
ENDBRANCH  28  30
ENDBRANCH  20  26
ENDBRANCH   6  20
TORSDOF 6
