REMARK  Name = ZINC10246272
REMARK  4 active torsions:
REMARK  status: ('A' for Active; 'I' for Inactive)
REMARK    1  A    between atoms: C_7  and  N_21
REMARK    2  A    between atoms: C_8  and  C_10
REMARK    3  A    between atoms: N_12  and  C_13
REMARK    4  A    between atoms: C_22  and  C_24
REMARK                            x       y       z     vdW  Elec       q    Type
REMARK                         _______ _______ _______ _____ _____    ______ ____
ROOT
ATOM      1  C   UNL     1      -0.061   1.200   0.841  0.00  0.00    +0.001 A 
ATOM      2  C   UNL     1       1.139   1.880   0.687  0.00  0.00    +0.004 A 
ATOM      3  C   UNL     1       1.151   3.215   0.344  0.00  0.00    +0.047 A 
ATOM      4  C   UNL     1      -0.048   3.891   0.147  0.00  0.00    +0.138 A 
ATOM      5  C   UNL     1      -1.259   3.196   0.304  0.00  0.00    +0.042 A 
ATOM      6  C   UNL     1      -1.251   1.843   0.648  0.00  0.00    +0.013 A 
ATOM      7  C   UNL     1      -2.319   4.174   0.033  0.00  0.00    +0.092 A 
ATOM      8  C   UNL     1      -1.680   5.348  -0.258  0.00  0.00    +0.212 A 
ATOM      9  O   UNL     1      -0.342   5.163  -0.185  0.00  0.00    -0.448 OA
ENDROOT
BRANCH   8  10
ATOM     10  C   UNL     1      -2.340   6.607  -0.594  0.00  0.00    +0.285 C 
ATOM     11  O   UNL     1      -3.554   6.691  -0.542  0.00  0.00    -0.266 OA
ATOM     12  N   UNL     1      -1.606   7.676  -0.962  0.00  0.00    -0.279 N 
ATOM     13  H   UNL     1      -0.646   7.591  -1.069  0.00  0.00    +0.155 HD
BRANCH  12  14
ATOM     14  C   UNL     1      -2.229   8.909  -1.188  0.00  0.00    +0.037 A 
ATOM     15  C   UNL     1      -1.581  10.088  -0.845  0.00  0.00    +0.026 A 
ATOM     16  C   UNL     1      -2.195  11.305  -1.074  0.00  0.00    +0.043 A 
ATOM     17  C   UNL     1      -3.460  11.349  -1.635  0.00  0.00    +0.159 A 
ATOM     18  C   UNL     1      -4.112  10.173  -1.972  0.00  0.00    +0.160 A 
ATOM     19  C   UNL     1      -3.498   8.953  -1.750  0.00  0.00    +0.064 A 
ATOM     20  F   UNL     1      -5.346  10.218  -2.519  0.00  0.00    -0.202 F 
ATOM     21  F   UNL     1      -4.060  12.540  -1.853  0.00  0.00    -0.202 F 
ENDBRANCH  12  14
ENDBRANCH   8  10
BRANCH   7  22
ATOM     22  N   UNL     1      -3.691   3.953   0.065  0.00  0.00    -0.281 N 
ATOM     23  C   UNL     1      -4.192   2.767  -0.334  0.00  0.00    +0.229 C 
ATOM     24  O   UNL     1      -3.443   1.860  -0.627  0.00  0.00    -0.274 OA
ATOM     25  H   UNL     1      -4.288   4.653   0.374  0.00  0.00    +0.155 HD
BRANCH  23  26
ATOM     26  C   UNL     1      -5.684   2.568  -0.415  0.00  0.00    +0.142 C 
ATOM     27  C   UNL     1      -6.289   2.795   0.944  0.00  0.00    +0.011 A 
ATOM     28  C   UNL     1      -6.463   4.091   1.401  0.00  0.00    +0.008 A 
ATOM     29  C   UNL     1      -7.018   4.321   2.645  0.00  0.00    +0.001 A 
ATOM     30  C   UNL     1      -7.401   3.256   3.439  0.00  0.00    +0.004 A 
ATOM     31  C   UNL     1      -7.230   1.963   2.989  0.00  0.00    +0.046 A 
ATOM     32  C   UNL     1      -6.673   1.727   1.737  0.00  0.00    +0.133 A 
ATOM     33  O   UNL     1      -6.513   0.451   1.314  0.00  0.00    -0.455 OA
ATOM     34  C   UNL     1      -6.372   0.186  -0.007  0.00  0.00    +0.133 A 
ATOM     35  C   UNL     1      -5.973   1.172  -0.894  0.00  0.00    +0.011 A 
ATOM     36  C   UNL     1      -5.836   0.875  -2.239  0.00  0.00    +0.008 A 
ATOM     37  C   UNL     1      -6.097  -0.402  -2.699  0.00  0.00    +0.001 A 
ATOM     38  C   UNL     1      -6.495  -1.388  -1.816  0.00  0.00    +0.004 A 
ATOM     39  C   UNL     1      -6.632  -1.098  -0.474  0.00  0.00    +0.046 A 
ENDBRANCH  23  26
ENDBRANCH   7  22
TORSDOF 4
