REMARK  Name = ZINC59566518
REMARK  9 active torsions:
REMARK  status: ('A' for Active; 'I' for Inactive)
REMARK    1  A    between atoms: C_1  and  C_2
REMARK    2  A    between atoms: C_4  and  C_14
REMARK    3  A    between atoms: C_5  and  C_13
REMARK    4  A    between atoms: N_6  and  C_7
REMARK    5  A    between atoms: N_15  and  N_16
REMARK    6  A    between atoms: C_17  and  C_19
REMARK    7  A    between atoms: N_21  and  C_22
REMARK    8  A    between atoms: C_25  and  O_28
REMARK    9  A    between atoms: O_28  and  C_29
REMARK                            x       y       z     vdW  Elec       q    Type
REMARK                         _______ _______ _______ _____ _____    ______ ____
ROOT
ATOM      1  N   UNL     1       0.370  -5.950  -1.124  0.00  0.00    -0.199 N 
ATOM      2  C   UNL     1       0.838  -7.172  -0.800  0.00  0.00    +0.318 C 
ATOM      3  O   UNL     1       1.431  -7.337   0.248  0.00  0.00    -0.263 OA
ATOM      4  H   UNL     1      -0.103  -5.818  -1.961  0.00  0.00    +0.178 HD
ENDROOT
BRANCH   2   5
ATOM      5  C   UNL     1       0.628  -8.320  -1.726  0.00  0.00    +0.305 C 
ATOM      6  O   UNL     1       0.036  -8.155  -2.773  0.00  0.00    -0.265 OA
ATOM      7  N   UNL     1       1.096  -9.542  -1.402  0.00  0.00    -0.278 N 
ATOM      8  H   UNL     1       1.669  -9.652  -0.627  0.00  0.00    +0.155 HD
BRANCH   7   9
ATOM      9  C   UNL     1       0.755 -10.651  -2.183  0.00  0.00    +0.034 A 
ATOM     10  C   UNL     1       0.730 -11.919  -1.615  0.00  0.00    +0.027 A 
ATOM     11  C   UNL     1       0.394 -13.013  -2.387  0.00  0.00    +0.048 A 
ATOM     12  C   UNL     1       0.081 -12.847  -3.728  0.00  0.00    +0.129 A 
ATOM     13  C   UNL     1       0.106 -11.581  -4.296  0.00  0.00    +0.048 A 
ATOM     14  C   UNL     1       0.436 -10.485  -3.525  0.00  0.00    +0.027 A 
BRANCH  12  15
ATOM     15  O   UNL     1      -0.250 -13.925  -4.487  0.00  0.00    -0.456 OA
BRANCH  15  16
ATOM     16  C   UNL     1      -0.441 -15.114  -3.858  0.00  0.00    +0.128 A 
ATOM     17  C   UNL     1      -1.619 -15.351  -3.163  0.00  0.00    +0.046 A 
ATOM     18  C   UNL     1      -1.810 -16.561  -2.524  0.00  0.00    +0.004 A 
ATOM     19  C   UNL     1      -0.830 -17.535  -2.576  0.00  0.00    +0.000 A 
ATOM     20  C   UNL     1       0.344 -17.301  -3.268  0.00  0.00    +0.004 A 
ATOM     21  C   UNL     1       0.538 -16.096  -3.913  0.00  0.00    +0.046 A 
ENDBRANCH  15  16
ENDBRANCH  12  15
ENDBRANCH   7   9
ENDBRANCH   2   5
BRANCH   1  23
ATOM     22  C   UNL     1       0.116  -3.692  -0.566  0.00  0.00    +0.140 C 
ATOM     23  N   UNL     1       0.567  -4.871  -0.253  0.00  0.00    -0.187 NA
BRANCH  22  27
ATOM     24  C   UNL     1       0.051   0.988   1.468  0.00  0.00    +0.064 C 
ATOM     25  C   UNL     1       0.283  -0.482   1.231  0.00  0.00    +0.022 A 
ATOM     26  C   UNL     1      -0.118  -1.174   0.150  0.00  0.00    +0.032 A 
ATOM     27  C   UNL     1       0.324  -2.558   0.349  0.00  0.00    +0.016 A 
ATOM     28  C   UNL     1       0.966  -2.584   1.556  0.00  0.00    +0.030 A 
ATOM     29  N   UNL     1       0.942  -1.328   2.078  0.00  0.00    -0.317 N 
ATOM     30  C   UNL     1       1.596  -3.794   2.195  0.00  0.00    +0.064 C 
BRANCH  29  31
ATOM     31  C   UNL     1       1.508  -0.958   3.305  0.00  0.00    +0.047 A 
ATOM     32  C   UNL     1       2.884  -1.017   3.483  0.00  0.00    +0.026 A 
ATOM     33  C   UNL     1       3.438  -0.651   4.694  0.00  0.00    +0.002 A 
ATOM     34  C   UNL     1       2.625  -0.226   5.728  0.00  0.00    +0.000 A 
ATOM     35  C   UNL     1       1.255  -0.166   5.554  0.00  0.00    +0.002 A 
ATOM     36  C   UNL     1       0.695  -0.525   4.344  0.00  0.00    +0.026 A 
ENDBRANCH  29  31
ENDBRANCH  22  27
ENDBRANCH   1  23
TORSDOF 7
