REMARK  Name = ZINC20021216
REMARK  5 active torsions:
REMARK  status: ('A' for Active; 'I' for Inactive)
REMARK    1  A    between atoms: C_1  and  C_2
REMARK    2  A    between atoms: C_3  and  N_22
REMARK    3  A    between atoms: C_7  and  S_8
REMARK    4  A    between atoms: S_8  and  N_11
REMARK    5  A    between atoms: C_19  and  C_21
REMARK                            x       y       z     vdW  Elec       q    Type
REMARK                         _______ _______ _______ _____ _____    ______ ____
ROOT
ATOM      1  S   UNL     1       5.081  -0.361  -0.048  0.00  0.00    +0.075 S 
ATOM      2  O   UNL     1       5.927  -1.388  -0.546  0.00  0.00    -0.150 OA
ATOM      3  O   UNL     1       4.992   0.917  -0.663  0.00  0.00    -0.150 OA
ENDROOT
BRANCH   1   4
ATOM      4  N   UNL     1       3.546  -0.983  -0.025  0.00  0.00    -0.200 N 
ATOM      5  C   UNL     1       2.377  -0.225   0.065  0.00  0.00    +0.055 A 
ATOM      6  C   UNL     1       2.226   1.161   0.151  0.00  0.00    +0.025 A 
ATOM      7  C   UNL     1       0.968   1.719   0.231  0.00  0.00    +0.002 A 
ATOM      8  C   UNL     1      -0.154   0.910   0.228  0.00  0.00    +0.000 A 
ATOM      9  C   UNL     1      -0.012  -0.462   0.143  0.00  0.00    +0.005 A 
ATOM     10  C   UNL     1       1.246  -1.026   0.062  0.00  0.00    -0.023 A 
ATOM     11  C   UNL     1       1.681  -2.471  -0.039  0.00  0.00    +0.061 C 
ATOM     12  C   UNL     1       3.217  -2.409  -0.095  0.00  0.00    +0.099 C 
ATOM     13  C   UNL     1       3.727  -3.007  -1.407  0.00  0.00    +0.030 C 
ENDBRANCH   1   4
BRANCH   1  20
ATOM     14  C   UNL     1       7.446   1.326   0.788  0.00  0.00    +0.048 C 
ATOM     15  C   UNL     1       6.654   0.704   1.909  0.00  0.00    -0.003 A 
ATOM     16  C   UNL     1       7.028   0.923   3.229  0.00  0.00    +0.029 A 
ATOM     17  C   UNL     1       6.295   0.348   4.260  0.00  0.00    +0.023 A 
ATOM     18  C   UNL     1       5.197  -0.439   3.969  0.00  0.00    +0.004 A 
ATOM     19  C   UNL     1       4.824  -0.649   2.654  0.00  0.00    +0.029 A 
ATOM     20  C   UNL     1       5.556  -0.083   1.626  0.00  0.00    +0.113 A 
BRANCH  16  21
ATOM     21  N   UNL     1       8.138   1.718   3.520  0.00  0.00    -0.358 N 
ATOM     22  H   UNL     1       8.433   1.890   4.566  0.00  0.00    +0.142 HD
ATOM     23  H   UNL     1       8.718   2.172   2.703  0.00  0.00    +0.142 HD
ENDBRANCH  16  21
ENDBRANCH   1  20
TORSDOF 3
