REMARK  Name = ZINC09113433
REMARK  10 active torsions:
REMARK  status: ('A' for Active; 'I' for Inactive)
REMARK    1  A    between atoms: C_1  and  C_2
REMARK    2  A    between atoms: C_2  and  C_3
REMARK    3  A    between atoms: C_2  and  C_4
REMARK    4  A    between atoms: C_2  and  O_5
REMARK    5  A    between atoms: O_5  and  C_6
REMARK    6  A    between atoms: C_15  and  C_27
REMARK    7  A    between atoms: C_17  and  C_23
REMARK    8  A    between atoms: C_17  and  C_25
REMARK    9  A    between atoms: C_18  and  N_22
REMARK   10  A    between atoms: C_19  and  C_20
REMARK                            x       y       z     vdW  Elec       q    Type
REMARK                         _______ _______ _______ _____ _____    ______ ____
ROOT
ATOM      1  C   UNL     1       2.091   0.666  -3.555  0.00  0.00    +0.404 C 
ATOM      2  O   UNL     1       2.507  -0.335  -3.006  0.00  0.00    -0.226 OA
ATOM      3  N   UNL     1       0.833   1.089  -3.321  0.00  0.00    -0.263 N 
ATOM      4  C   UNL     1       0.297   2.300  -3.971  0.00  0.00    +0.138 C 
ATOM      5  C   UNL     1      -0.172   3.223  -2.872  0.00  0.00    -0.003 C 
ATOM      6  C   UNL     1      -0.573   2.751  -1.708  0.00  0.00    -0.026 C 
ATOM      7  C   UNL     1      -0.646   1.292  -1.369  0.00  0.00    +0.048 C 
ATOM      8  C   UNL     1      -0.060   0.367  -2.409  0.00  0.00    +0.120 C 
ATOM      9  C   UNL     1      -0.013   1.086   0.008  0.00  0.00    +0.071 C 
ATOM     10  C   UNL     1      -0.833   1.846   1.051  0.00  0.00    +0.188 C 
ATOM     11  C   UNL     1      -1.075   3.266   0.639  0.00  0.00    +0.054 C 
ATOM     12  C   UNL     1      -0.971   3.707  -0.640  0.00  0.00    +0.074 C 
ENDROOT
BRANCH   9  13
ATOM     13  C   UNL     1       1.400   1.610  -0.003  0.00  0.00    -0.005 A 
ATOM     14  C   UNL     1       1.633   2.968  -0.107  0.00  0.00    +0.022 A 
ATOM     15  C   UNL     1       2.929   3.450  -0.111  0.00  0.00    +0.018 A 
ATOM     16  C   UNL     1       3.994   2.572  -0.022  0.00  0.00    +0.018 A 
ATOM     17  C   UNL     1       3.764   1.213   0.077  0.00  0.00    +0.040 A 
ATOM     18  C   UNL     1       2.466   0.731   0.087  0.00  0.00    +0.127 A 
ATOM     19  F   UNL     1       2.239  -0.598   0.184  0.00  0.00    -0.205 F 
ATOM     20 BR   UNL     1       3.246   5.310  -0.246  0.00  0.00    -0.050 Br
ENDBRANCH   9  13
BRANCH  11  21
ATOM     21  N   UNL     1      -1.419   4.169   1.606  0.00  0.00    -0.358 N 
ATOM     22  H   UNL     1      -1.604   5.219   1.337  0.00  0.00    +0.142 HD
ATOM     23  H   UNL     1      -1.513   3.844   2.653  0.00  0.00    +0.142 HD
ENDBRANCH  11  21
BRANCH  12  24
ATOM     24  C   UNL     1      -1.242   5.076  -0.959  0.00  0.00    +0.101 C 
ATOM     25  N   UNL     1      -1.457   6.163  -1.211  0.00  0.00    -0.191 NA
ENDBRANCH  12  24
BRANCH  10  26
ATOM     26  C   UNL     1      -2.129   1.170   1.227  0.00  0.00    +0.091 C 
ATOM     27  N   UNL     1      -3.129   0.649   1.364  0.00  0.00    -0.194 NA
ENDBRANCH  10  26
BRANCH  10  28
ATOM     28  C   UNL     1      -0.109   1.836   2.332  0.00  0.00    +0.091 C 
ATOM     29  N   UNL     1       0.450   1.828   3.321  0.00  0.00    -0.194 NA
ENDBRANCH  10  28
BRANCH   1  30
ATOM     30  O   UNL     1       2.887   1.351  -4.398  0.00  0.00    -0.445 OA
BRANCH  30  32
ATOM     31  C   UNL     1       4.151  -0.581  -5.173  0.00  0.00    +0.055 C 
ATOM     32  C   UNL     1       4.229   0.836  -4.603  0.00  0.00    +0.107 C 
ATOM     33  C   UNL     1       4.978   1.740  -5.584  0.00  0.00    +0.055 C 
ATOM     34  C   UNL     1       4.973   0.808  -3.266  0.00  0.00    +0.055 C 
ENDBRANCH  30  32
ENDBRANCH   1  30
TORSDOF 7
