REMARK  Name = ZINC21323622
REMARK  8 active torsions:
REMARK  status: ('A' for Active; 'I' for Inactive)
REMARK    1  A    between atoms: C_1  and  C_2
REMARK    2  A    between atoms: C_2  and  C_22
REMARK    3  A    between atoms: N_3  and  N_4
REMARK    4  A    between atoms: C_8  and  S_11
REMARK    5  A    between atoms: N_9  and  N_10
REMARK    6  A    between atoms: S_11  and  C_12
REMARK    7  A    between atoms: C_12  and  C_13
REMARK    8  A    between atoms: C_13  and  C_15
REMARK                            x       y       z     vdW  Elec       q    Type
REMARK                         _______ _______ _______ _____ _____    ______ ____
ROOT
ATOM      1  N   UNL     1      -2.730   1.534   0.056  0.00  0.00    -0.204 N 
ATOM      2  C   UNL     1      -4.101   1.747   0.036  0.00  0.00    +0.254 A 
ATOM      3  N   UNL     1      -4.830   2.167   1.041  0.00  0.00    -0.109 NA
ATOM      4  N   UNL     1      -6.160   2.249   0.607  0.00  0.00    -0.119 NA
ATOM      5  C   UNL     1      -6.199   1.876  -0.651  0.00  0.00    +0.210 A 
ATOM      6  N   UNL     1      -4.927   1.561  -1.037  0.00  0.00    -0.211 N 
ATOM      7  H   UNL     1      -2.215   1.179  -0.849  0.00  0.00    +0.178 HD
ENDROOT
BRANCH   1  10
ATOM      8  C   UNL     1      -0.013   1.086   0.008  0.00  0.00    +0.068 C 
ATOM      9  C   UNL     1      -0.718   1.572   1.248  0.00  0.00    +0.063 C 
ATOM     10  N   UNL     1      -2.002   1.771   1.229  0.00  0.00    -0.184 NA
BRANCH   9  11
ATOM     11  C   UNL     1       0.048   1.821   2.482  0.00  0.00    -0.002 A 
ATOM     12  C   UNL     1       1.439   1.603   2.497  0.00  0.00    +0.010 A 
ATOM     13  C   UNL     1       2.166   1.827   3.620  0.00  0.00    +0.009 A 
ATOM     14  C   UNL     1       1.531   2.281   4.791  0.00  0.00    -0.018 A 
ATOM     15  C   UNL     1       2.264   2.520   5.966  0.00  0.00    +0.008 A 
ATOM     16  C   UNL     1       1.622   2.960   7.084  0.00  0.00    +0.001 A 
ATOM     17  C   UNL     1       0.246   3.179   7.083  0.00  0.00    +0.001 A 
ATOM     18  C   UNL     1      -0.497   2.959   5.964  0.00  0.00    +0.008 A 
ATOM     19  C   UNL     1       0.131   2.504   4.790  0.00  0.00    -0.017 A 
ATOM     20  C   UNL     1      -0.605   2.274   3.618  0.00  0.00    +0.018 A 
ENDBRANCH   9  11
ENDBRANCH   1  10
BRANCH   6  21
ATOM     21  N   UNL     1      -4.548   1.134  -2.278  0.00  0.00    -0.294 N 
ATOM     22  H   UNL     1      -5.299   1.018  -3.073  0.00  0.00    +0.163 HD
ATOM     23  H   UNL     1      -3.492   0.905  -2.482  0.00  0.00    +0.163 HD
ENDBRANCH   6  21
BRANCH   5  24
ATOM     24  S   UNL     1      -7.638   1.801  -1.664  0.00  0.00    -0.076 S 
BRANCH  24  25
ATOM     25  C   UNL     1      -8.976   2.347  -0.568  0.00  0.00    +0.157 C 
BRANCH  25  26
ATOM     26  C   UNL     1     -10.281   2.329  -1.321  0.00  0.00    +0.173 C 
ATOM     27  O   UNL     1     -10.307   1.983  -2.482  0.00  0.00    -0.291 OA
BRANCH  26  28
ATOM     28  C   UNL     1     -11.525   2.732  -0.646  0.00  0.00    +0.018 A 
ATOM     29  C   UNL     1     -11.501   3.127   0.696  0.00  0.00    +0.012 A 
ATOM     30  C   UNL     1     -12.669   3.510   1.319  0.00  0.00    +0.016 A 
ATOM     31  C   UNL     1     -13.867   3.492   0.624  0.00  0.00    +0.018 A 
ATOM     32  C   UNL     1     -13.900   3.096  -0.703  0.00  0.00    +0.016 A 
ATOM     33  C   UNL     1     -12.739   2.717  -1.342  0.00  0.00    +0.012 A 
ATOM     34 BR   UNL     1     -15.466   4.011   1.491  0.00  0.00    -0.050 Br
ENDBRANCH  26  28
ENDBRANCH  25  26
ENDBRANCH  24  25
ENDBRANCH   5  24
TORSDOF 7
