REMARK  Name = ZINC40828883
REMARK  5 active torsions:
REMARK  status: ('A' for Active; 'I' for Inactive)
REMARK    1  A    between atoms: C_1  and  C_2
REMARK    2  A    between atoms: C_7  and  N_8
REMARK    3  A    between atoms: C_9  and  C_11
REMARK    4  A    between atoms: C_12  and  C_18
REMARK    5  A    between atoms: C_16  and  C_17
REMARK                            x       y       z     vdW  Elec       q    Type
REMARK                         _______ _______ _______ _____ _____    ______ ____
ROOT
ATOM      1  N   UNL     1       0.025  -0.015   2.417  0.00  0.00    -0.281 N 
ATOM      2  C   UNL     1      -0.056  -0.694   3.578  0.00  0.00    +0.252 C 
ATOM      3  O   UNL     1      -0.040  -1.910   3.573  0.00  0.00    -0.270 OA
ATOM      4  H   UNL     1       0.078   0.954   2.424  0.00  0.00    +0.155 HD
ENDROOT
BRANCH   1  11
ATOM      5  C   UNL     1      -1.264   1.183   0.181  0.00  0.00    +0.046 C 
ATOM      6  C   UNL     1      -0.584  -0.158   0.084  0.00  0.00    -0.028 A 
ATOM      7  C   UNL     1      -0.569  -0.840  -1.117  0.00  0.00    +0.019 A 
ATOM      8  C   UNL     1       0.055  -2.071  -1.206  0.00  0.00    +0.014 A 
ATOM      9  C   UNL     1       0.667  -2.622  -0.094  0.00  0.00    +0.016 A 
ATOM     10  C   UNL     1       0.655  -1.945   1.109  0.00  0.00    +0.024 A 
ATOM     11  C   UNL     1       0.034  -0.706   1.201  0.00  0.00    +0.037 A 
ATOM     12  I   UNL     1       0.074  -3.103  -3.029  0.00  0.00    -0.044 I 
ENDBRANCH   1  11
BRANCH   2  13
ATOM     13  C   UNL     1      -0.165   0.036   4.853  0.00  0.00    +0.080 A 
ATOM     14  C   UNL     1      -1.334   0.423   5.479  0.00  0.00    +0.045 A 
ATOM     15  N   UNL     1      -0.992   1.059   6.611  0.00  0.00    -0.281 N 
ATOM     16  H   UNL     1      -1.608   1.442   7.255  0.00  0.00    +0.189 HD
ATOM     17  N   UNL     1       0.405   1.077   6.706  0.00  0.00    -0.178 NA
ATOM     18  C   UNL     1       0.906   0.467   5.668  0.00  0.00    +0.072 A 
ATOM     19  C   UNL     1       2.372   0.259   5.385  0.00  0.00    +0.068 C 
ATOM     20  C   UNL     1      -2.735   0.177   4.983  0.00  0.00    +0.066 C 
ENDBRANCH   2  13
TORSDOF 2
