REMARK  Name = ZINC12604180
REMARK  7 active torsions:
REMARK  status: ('A' for Active; 'I' for Inactive)
REMARK    1  A    between atoms: C_4  and  N_7
REMARK    2  A    between atoms: C_9  and  C_17
REMARK    3  A    between atoms: C_10  and  C_12
REMARK    4  A    between atoms: C_18  and  C_19
REMARK    5  A    between atoms: C_18  and  C_28
REMARK    6  A    between atoms: N_21  and  C_22
REMARK    7  A    between atoms: N_30  and  C_31
REMARK                            x       y       z     vdW  Elec       q    Type
REMARK                         _______ _______ _______ _____ _____    ______ ____
ROOT
ATOM      1  C   UNL     1      -3.673   1.723  -0.619  0.00  0.00    +0.029 C 
ATOM      2  C   UNL     1      -2.813   0.907   0.092  0.00  0.00    +0.099 C 
ENDROOT
BRANCH   1   5
ATOM      3  N   UNL     1      -6.475  -0.189  -1.768  0.00  0.00    -0.239 N 
ATOM      4  C   UNL     1      -5.415  -0.050  -0.956  0.00  0.00    +0.123 A 
ATOM      5  C   UNL     1      -4.820   1.171  -1.240  0.00  0.00    +0.022 A 
ATOM      6  C   UNL     1      -5.624   1.780  -2.311  0.00  0.00    +0.107 A 
ATOM      7  N   UNL     1      -6.590   0.933  -2.594  0.00  0.00    -0.165 NA
BRANCH   3  11
ATOM      8  C   UNL     1      -9.037  -3.474  -1.821  0.00  0.00    +0.000 A 
ATOM      9  C   UNL     1      -9.252  -2.418  -2.688  0.00  0.00    +0.002 A 
ATOM     10  C   UNL     1      -8.404  -1.328  -2.673  0.00  0.00    +0.028 A 
ATOM     11  C   UNL     1      -7.336  -1.292  -1.786  0.00  0.00    +0.065 A 
ATOM     12  C   UNL     1      -7.121  -2.357  -0.920  0.00  0.00    +0.028 A 
ATOM     13  C   UNL     1      -7.975  -3.442  -0.937  0.00  0.00    +0.002 A 
ENDBRANCH   3  11
BRANCH   6  14
ATOM     14  C   UNL     1      -5.389   3.089  -2.950  0.00  0.00    +0.040 A 
ATOM     15  C   UNL     1      -5.587   3.462  -4.255  0.00  0.00    +0.018 A 
ATOM     16  C   UNL     1      -5.298   4.756  -4.624  0.00  0.00    +0.008 A 
ATOM     17  C   UNL     1      -4.815   5.619  -3.691  0.00  0.00    +0.046 A 
ATOM     18  S   UNL     1      -4.765   4.598  -2.228  0.00  0.00    -0.095 S 
ENDBRANCH   6  14
ENDBRANCH   1   5
BRANCH   2  19
ATOM     19  C   UNL     1      -1.597   1.470   0.694  0.00  0.00    +0.249 C 
ATOM     20  O   UNL     1      -1.396   2.670   0.652  0.00  0.00    -0.270 OA
ATOM     21  N   UNL     1      -0.702   0.658   1.291  0.00  0.00    -0.308 N 
ATOM     22  H   UNL     1      -0.884  -0.292   1.366  0.00  0.00    +0.149 HD
BRANCH  21  23
ATOM     23  C   UNL     1       0.547   1.209   1.822  0.00  0.00    +0.073 C 
ATOM     24  C   UNL     1       1.585   1.294   0.701  0.00  0.00    +0.022 C 
ATOM     25  C   UNL     1       2.889   1.869   1.256  0.00  0.00    +0.002 C 
ATOM     26  C   UNL     1       3.415   0.961   2.369  0.00  0.00    +0.000 C 
ATOM     27  C   UNL     1       2.377   0.876   3.490  0.00  0.00    +0.002 C 
ATOM     28  C   UNL     1       1.072   0.301   2.936  0.00  0.00    +0.022 C 
ENDBRANCH  21  23
ENDBRANCH   2  19
BRANCH   2  29
ATOM     29  C   UNL     1      -3.115  -0.521   0.247  0.00  0.00    +0.249 C 
ATOM     30  O   UNL     1      -3.409  -0.966   1.341  0.00  0.00    -0.270 OA
ATOM     31  N   UNL     1      -3.066  -1.341  -0.822  0.00  0.00    -0.308 N 
ATOM     32  H   UNL     1      -2.763  -1.002  -1.679  0.00  0.00    +0.149 HD
BRANCH  31  33
ATOM     33  C   UNL     1      -3.470  -2.742  -0.690  0.00  0.00    +0.073 C 
ATOM     34  C   UNL     1      -2.286  -3.570  -0.186  0.00  0.00    +0.022 C 
ATOM     35  C   UNL     1      -2.708  -5.034  -0.049  0.00  0.00    +0.002 C 
ATOM     36  C   UNL     1      -3.159  -5.565  -1.411  0.00  0.00    +0.000 C 
ATOM     37  C   UNL     1      -4.343  -4.737  -1.915  0.00  0.00    +0.002 C 
ATOM     38  C   UNL     1      -3.921  -3.273  -2.053  0.00  0.00    +0.022 C 
ENDBRANCH  31  33
ENDBRANCH   2  29
TORSDOF 7
