REMARK  Name = ZINC21228572
REMARK  10 active torsions:
REMARK  status: ('A' for Active; 'I' for Inactive)
REMARK    1  A    between atoms: C_1  and  C_2
REMARK    2  A    between atoms: C_11  and  N_32
REMARK    3  A    between atoms: C_13  and  S_15
REMARK    4  A    between atoms: S_15  and  C_16
REMARK    5  A    between atoms: C_16  and  C_17
REMARK    6  A    between atoms: N_19  and  C_20
REMARK    7  A    between atoms: N_19  and  C_24
REMARK    8  A    between atoms: C_20  and  C_21
REMARK    9  A    between atoms: C_21  and  C_22
REMARK   10  A    between atoms: C_21  and  C_23
REMARK                            x       y       z     vdW  Elec       q    Type
REMARK                         _______ _______ _______ _____ _____    ______ ____
ROOT
ATOM      1  C   UNL     1      -8.551  11.383  10.843  0.00  0.00    +0.008 C 
ATOM      2  C   UNL     1      -7.642  10.537   9.950  0.00  0.00    -0.009 C 
ATOM      3  C   UNL     1      -8.476   9.475   9.228  0.00  0.00    +0.008 C 
ATOM      4  C   UNL     1      -7.552   8.476   8.530  0.00  0.00    +0.037 C 
ATOM      5  C   UNL     1      -6.565   9.244   7.656  0.00  0.00    -0.025 A 
ATOM      6  C   UNL     1      -6.342  10.558   7.860  0.00  0.00    -0.004 A 
ATOM      7  S   UNL     1      -5.146  11.020   6.636  0.00  0.00    -0.073 S 
ATOM      8  C   UNL     1      -4.947   9.443   5.849  0.00  0.00    +0.115 A 
ATOM      9  C   UNL     1      -5.821   8.605   6.568  0.00  0.00    +0.051 A 
ATOM     10  C   UNL     1      -5.864   7.249   6.139  0.00  0.00    +0.129 A 
ATOM     11  N   UNL     1      -5.111   6.869   5.121  0.00  0.00    -0.207 NA
ATOM     12  C   UNL     1      -4.302   7.712   4.489  0.00  0.00    +0.191 A 
ATOM     13  N   UNL     1      -4.221   8.987   4.846  0.00  0.00    -0.214 NA
ATOM     14  C   UNL     1      -6.972  11.434   8.900  0.00  0.00    +0.046 C 
ENDROOT
BRANCH  10  15
ATOM     15  N   UNL     1      -6.689   6.340   6.776  0.00  0.00    -0.343 N 
ATOM     16  H   UNL     1      -6.717   5.293   6.439  0.00  0.00    +0.144 HD
ATOM     17  H   UNL     1      -7.317   6.663   7.619  0.00  0.00    +0.144 HD
ENDBRANCH  10  15
BRANCH  12  18
ATOM     18  S   UNL     1      -3.323   7.126   3.146  0.00  0.00    -0.077 S 
BRANCH  18  19
ATOM     19  C   UNL     1      -3.830   5.389   3.121  0.00  0.00    +0.173 C 
BRANCH  19  20
ATOM     20  C   UNL     1      -3.099   4.668   2.018  0.00  0.00    +0.226 C 
ATOM     21  O   UNL     1      -2.313   5.270   1.317  0.00  0.00    -0.275 OA
ATOM     22  N   UNL     1      -3.319   3.355   1.809  0.00  0.00    -0.296 N 
BRANCH  22  23
ATOM     23  C   UNL     1      -2.609   2.654   0.737  0.00  0.00    +0.098 C 
ATOM     24  C   UNL     1      -1.093   2.846   0.920  0.00  0.00    +0.046 C 
ATOM     25  C   UNL     1      -0.385   2.372  -0.381  0.00  0.00    +0.168 C 
ATOM     26  S   UNL     1      -1.535   3.044  -1.655  0.00  0.00    -0.029 S 
ATOM     27  O   UNL     1      -1.086   4.333  -2.049  0.00  0.00    -0.174 OA
ATOM     28  O   UNL     1      -1.760   2.049  -2.645  0.00  0.00    -0.174 OA
ATOM     29  C   UNL     1      -3.052   3.225  -0.632  0.00  0.00    +0.188 C 
ENDBRANCH  22  23
BRANCH  22  30
ATOM     30  C   UNL     1      -4.269   2.628   2.655  0.00  0.00    +0.111 C 
BRANCH  30  31
ATOM     31  C   UNL     1      -3.570   2.182   3.941  0.00  0.00    +0.000 C 
ATOM     32  C   UNL     1      -4.596   1.561   4.891  0.00  0.00    +0.009 C 
ATOM     33  C   UNL     1      -2.495   1.147   3.604  0.00  0.00    +0.009 C 
ENDBRANCH  30  31
ENDBRANCH  22  30
ENDBRANCH  19  20
ENDBRANCH  18  19
ENDBRANCH  12  18
TORSDOF 7
