REMARK  Name = ZINC11293270
REMARK  5 active torsions:
REMARK  status: ('A' for Active; 'I' for Inactive)
REMARK    1  A    between atoms: C_2  and  N_13
REMARK    2  A    between atoms: C_14  and  C_16
REMARK    3  A    between atoms: C_16  and  S_17
REMARK    4  A    between atoms: S_17  and  C_18
REMARK    5  A    between atoms: N_23  and  C_24
REMARK                            x       y       z     vdW  Elec       q    Type
REMARK                         _______ _______ _______ _____ _____    ______ ____
ROOT
ATOM      1  N   UNL     1       1.169   3.485   0.009  0.00  0.00    -0.284 N 
ATOM      2  C   UNL     1      -0.000   4.150  -0.078  0.00  0.00    +0.227 C 
ATOM      3  O   UNL     1      -1.048   3.538  -0.071  0.00  0.00    -0.275 OA
ATOM      4  H   UNL     1       2.003   3.977   0.070  0.00  0.00    +0.155 HD
ENDROOT
BRANCH   1   6
ATOM      5  C   UNL     1       0.148   1.383   0.625  0.00  0.00    +0.074 A 
ATOM      6  C   UNL     1       1.180   2.084   0.013  0.00  0.00    +0.056 A 
ATOM      7  C   UNL     1       2.222   1.397  -0.595  0.00  0.00    +0.066 A 
ATOM      8  C   UNL     1       2.236   0.013  -0.594  0.00  0.00    +0.071 A 
ATOM      9  C   UNL     1       1.208  -0.685   0.017  0.00  0.00    +0.163 A 
ATOM     10  C   UNL     1       0.165  -0.000   0.625  0.00  0.00    +0.164 A 
ATOM     11  O   UNL     1      -0.842  -0.700   1.224  0.00  0.00    -0.488 OA
ATOM     12  C   UNL     1      -1.698  -1.437   0.348  0.00  0.00    +0.232 C 
ATOM     13  C   UNL     1      -1.098  -2.796   0.025  0.00  0.00    +0.082 C 
ATOM     14  C   UNL     1       0.200  -2.684  -0.760  0.00  0.00    +0.232 C 
ATOM     15  O   UNL     1       1.213  -2.050   0.024  0.00  0.00    -0.488 OA
ATOM     16 CL   UNL     1       3.510   2.275  -1.360  0.00  0.00    -0.082 Cl
ENDBRANCH   1   6
BRANCH   2  17
ATOM     17  C   UNL     1      -0.007   5.653  -0.183  0.00  0.00    +0.172 C 
BRANCH  17  18
ATOM     18  S   UNL     1      -1.719   6.245  -0.284  0.00  0.00    -0.088 S 
BRANCH  18  19
ATOM     19  C   UNL     1      -1.558   7.996  -0.401  0.00  0.00    +0.160 A 
ATOM     20  N   UNL     1      -0.466   8.736  -0.421  0.00  0.00    -0.133 NA
ATOM     21  N   UNL     1      -0.569  10.104  -0.520  0.00  0.00    -0.125 NA
ATOM     22  C   UNL     1      -1.757  10.669  -0.594  0.00  0.00    +0.183 A 
ATOM     23  S   UNL     1      -2.830   9.243  -0.533  0.00  0.00    -0.025 S 
ATOM     24  N   UNL     1      -2.087  12.016  -0.698  0.00  0.00    -0.319 N 
ATOM     25  H   UNL     1      -3.018  12.285  -0.743  0.00  0.00    +0.148 HD
BRANCH  24  26
ATOM     26  C   UNL     1      -1.029  13.028  -0.738  0.00  0.00    +0.072 C 
ATOM     27  C   UNL     1      -0.615  13.390   0.690  0.00  0.00    +0.022 C 
ATOM     28  C   UNL     1       0.490  14.448   0.648  0.00  0.00    +0.002 C 
ATOM     29  C   UNL     1      -0.028  15.698  -0.066  0.00  0.00    +0.000 C 
ATOM     30  C   UNL     1      -0.442  15.336  -1.494  0.00  0.00    +0.002 C 
ATOM     31  C   UNL     1      -1.547  14.279  -1.452  0.00  0.00    +0.022 C 
ENDBRANCH  24  26
ENDBRANCH  18  19
ENDBRANCH  17  18
ENDBRANCH   2  17
TORSDOF 5
