REMARK  Name = ZINC40415941
REMARK  12 active torsions:
REMARK  status: ('A' for Active; 'I' for Inactive)
REMARK    1  A    between atoms: C_1  and  C_2
REMARK    2  A    between atoms: C_2  and  C_3
REMARK    3  A    between atoms: C_2  and  C_4
REMARK    4  A    between atoms: C_4  and  C_6
REMARK    5  A    between atoms: C_4  and  O_33
REMARK    6  A    between atoms: C_6  and  N_7
REMARK    7  A    between atoms: C_17  and  N_20
REMARK    8  A    between atoms: C_21  and  C_23
REMARK    9  A    between atoms: C_26  and  C_29
REMARK   10  A    between atoms: C_29  and  C_30
REMARK   11  A    between atoms: C_29  and  C_31
REMARK   12  A    between atoms: C_29  and  C_32
REMARK                            x       y       z     vdW  Elec       q    Type
REMARK                         _______ _______ _______ _____ _____    ______ ____
ROOT
ATOM      1  N   UNL     1      -3.546  -0.531  -1.171  0.00  0.00    +0.382 N 
ATOM      2  C   UNL     1      -4.082  -0.331  -2.516  0.00  0.00    -0.077 C 
ATOM      3  C   UNL     1      -5.108  -1.403  -2.809  0.00  0.00    +0.000 C 
ATOM      4  C   UNL     1      -6.511  -0.883  -2.447  0.00  0.00    +0.104 C 
ATOM      5  N   UNL     1      -6.479  -0.097  -1.196  0.00  0.00    -0.317 N 
ATOM      6  C   UNL     1      -5.698  -0.502  -0.046  0.00  0.00    +0.088 C 
ATOM      7  C   UNL     1      -4.276   0.099  -0.139  0.00  0.00    -0.060 C 
ATOM      8  C   UNL     1      -7.226   1.075  -1.121  0.00  0.00    +0.121 A 
ATOM      9  C   UNL     1      -8.145   1.370  -2.124  0.00  0.00    +0.045 A 
ATOM     10  C   UNL     1      -8.882   2.537  -2.040  0.00  0.00    +0.028 A 
ATOM     11  C   UNL     1      -8.674   3.377  -0.946  0.00  0.00    +0.052 A 
ATOM     12  C   UNL     1      -7.741   3.018   0.014  0.00  0.00    +0.136 A 
ATOM     13  N   UNL     1      -7.059   1.893  -0.095  0.00  0.00    -0.238 NA
ATOM     14  H   UNL     1      -3.523  -1.523  -0.985  0.00  0.00    -0.082 HD
ENDROOT
BRANCH  11  15
ATOM     15  N   UNL     1      -9.398   4.570  -0.821  0.00  0.00    -0.280 N 
ATOM     16  C   UNL     1     -10.614   4.683  -1.390  0.00  0.00    +0.248 C 
ATOM     17  O   UNL     1     -11.124   3.721  -1.930  0.00  0.00    -0.270 OA
ATOM     18  H   UNL     1      -9.024   5.314  -0.324  0.00  0.00    +0.155 HD
BRANCH  16  19
ATOM     19  C   UNL     1     -11.328   5.977  -1.357  0.00  0.00    +0.037 A 
ATOM     20  C   UNL     1     -10.743   7.085  -0.742  0.00  0.00    +0.013 A 
ATOM     21  C   UNL     1     -11.415   8.290  -0.715  0.00  0.00    +0.005 A 
ATOM     22  C   UNL     1     -12.666   8.401  -1.296  0.00  0.00    -0.042 A 
ATOM     23  C   UNL     1     -13.252   7.306  -1.906  0.00  0.00    +0.005 A 
ATOM     24  C   UNL     1     -12.588   6.097  -1.945  0.00  0.00    +0.013 A 
BRANCH  22  25
ATOM     25  C   UNL     1     -13.393   9.720  -1.262  0.00  0.00    -0.013 C 
ATOM     26  C   UNL     1     -12.556  10.783  -1.977  0.00  0.00    +0.015 C 
ATOM     27  C   UNL     1     -14.743   9.576  -1.968  0.00  0.00    +0.015 C 
ATOM     28  C   UNL     1     -13.620  10.141   0.191  0.00  0.00    +0.015 C 
ENDBRANCH  22  25
ENDBRANCH  16  19
ENDBRANCH  11  15
BRANCH   1  29
ATOM     29  C   UNL     1      -2.168  -0.023  -1.141  0.00  0.00    -0.047 C 
BRANCH  29  30
ATOM     30  C   UNL     1      -1.488  -0.470   0.155  0.00  0.00    +0.101 C 
BRANCH  30  32
ATOM     31  C   UNL     1      -0.068   1.585   0.118  0.00  0.00    +0.010 C 
ATOM     32  C   UNL     1      -0.052   0.056   0.185  0.00  0.00    +0.010 C 
ATOM     33  C   UNL     1       0.628  -0.391   1.481  0.00  0.00    +0.010 C 
ENDBRANCH  30  32
BRANCH  30  34
ATOM     34  O   UNL     1      -1.474  -1.898   0.217  0.00  0.00    -0.393 OA
ATOM     35  H   UNL     1      -1.000  -2.319  -0.513  0.00  0.00    +0.210 HD
ENDBRANCH  30  34
ENDBRANCH  29  30
ENDBRANCH   1  29
TORSDOF 7
