REMARK  Name = ZINC20504575
REMARK  11 active torsions:
REMARK  status: ('A' for Active; 'I' for Inactive)
REMARK    1  A    between atoms: C_1  and  C_2
REMARK    2  A    between atoms: N_9  and  C_10
REMARK    3  A    between atoms: C_10  and  C_12
REMARK    4  A    between atoms: C_12  and  N_13
REMARK    5  A    between atoms: N_13  and  C_14
REMARK    6  A    between atoms: N_13  and  C_15
REMARK    7  A    between atoms: C_17  and  C_38
REMARK    8  A    between atoms: C_20  and  O_37
REMARK    9  A    between atoms: C_22  and  C_26
REMARK   10  A    between atoms: C_26  and  C_28
REMARK   11  A    between atoms: C_26  and  C_29
REMARK                            x       y       z     vdW  Elec       q    Type
REMARK                         _______ _______ _______ _____ _____    ______ ____
ROOT
ATOM      1  C   UNL     1       4.619  -4.918  -2.057  0.00  0.00    +0.014 C 
ATOM      2  C   UNL     1       5.981  -4.252  -2.261  0.00  0.00    +0.039 C 
ATOM      3  C   UNL     1       6.987  -5.291  -2.730  0.00  0.00    +0.031 A 
ATOM      4  C   UNL     1       8.251  -5.290  -2.232  0.00  0.00    +0.013 A 
ATOM      5  S   UNL     1       9.003  -6.655  -3.077  0.00  0.00    -0.057 S 
ATOM      6  C   UNL     1       7.613  -7.120  -4.011  0.00  0.00    +0.163 A 
ATOM      7  N   UNL     1       6.715  -6.237  -3.626  0.00  0.00    -0.339 N 
ATOM      8  N   UNL     1       7.482  -8.156  -4.928  0.00  0.00    -0.158 NA
ATOM      9  C   UNL     1       8.831  -4.361  -1.225  0.00  0.00    +0.051 C 
ATOM     10  C   UNL     1       7.896  -3.145  -1.067  0.00  0.00    -0.022 C 
ATOM     11  C   UNL     1       6.455  -3.640  -0.935  0.00  0.00    +0.033 C 
ATOM     12  C   UNL     1       5.522  -2.468  -0.612  0.00  0.00    +0.123 C 
ATOM     13  C   UNL     1       5.965  -1.776   0.676  0.00  0.00    +0.029 C 
ATOM     14  C   UNL     1       7.385  -1.236   0.482  0.00  0.00    +0.007 C 
ATOM     15  C   UNL     1       8.323  -2.410   0.207  0.00  0.00    +0.008 C 
ATOM     16  C   UNL     1       8.024  -2.226  -2.284  0.00  0.00    +0.012 C 
ATOM     17  H   UNL     1       5.711  -6.299  -4.072  0.00  0.00    +0.167 HD
ENDROOT
BRANCH   8  18
ATOM     18  C   UNL     1       8.532  -8.961  -5.189  0.00  0.00    +0.222 C 
ATOM     19  O   UNL     1       9.589  -8.781  -4.624  0.00  0.00    -0.276 OA
BRANCH  18  20
ATOM     20  C   UNL     1       8.390 -10.085  -6.183  0.00  0.00    +0.020 C 
BRANCH  20  21
ATOM     21  N   UNL     1       9.664 -10.808  -6.288  0.00  0.00    +0.382 N 
ATOM     22  C   UNL     1       9.504 -12.047  -7.062  0.00  0.00    -0.096 C 
ATOM     23  C   UNL     1      10.708  -9.955  -6.871  0.00  0.00    -0.096 C 
ATOM     24  H   UNL     1       9.982 -11.084  -5.271  0.00  0.00    -0.082 HD
ENDBRANCH  20  21
ENDBRANCH  18  20
ENDBRANCH   8  18
BRANCH  13  25
ATOM     25  C   UNL     1       5.014  -0.619   0.989  0.00  0.00    +0.078 C 
ATOM     26  C   UNL     1       5.127   0.444  -0.106  0.00  0.00    +0.017 C 
BRANCH  25  27
ATOM     27  C   UNL     1       5.382  -0.012   2.318  0.00  0.00    +0.219 C 
ATOM     28  O   UNL     1       6.075   0.982   2.360  0.00  0.00    -0.275 OA
ATOM     29  N   UNL     1       4.941  -0.575   3.461  0.00  0.00    -0.300 N 
ATOM     30  C   UNL     1       5.391  -0.044   4.749  0.00  0.00    +0.118 C 
ATOM     31  C   UNL     1       6.245  -1.097   5.465  0.00  0.00    +0.088 C 
ATOM     32  S   UNL     1       5.263  -2.615   5.651  0.00  0.00    -0.158 S 
ATOM     33  C   UNL     1       4.710  -2.961   3.954  0.00  0.00    +0.088 C 
ATOM     34  C   UNL     1       4.019  -1.710   3.399  0.00  0.00    +0.118 C 
ENDBRANCH  25  27
ENDBRANCH  13  25
BRANCH  12  35
ATOM     35  O   UNL     1       4.188  -2.955  -0.453  0.00  0.00    -0.391 OA
ATOM     36  H   UNL     1       3.372  -2.256  -0.216  0.00  0.00    +0.210 HD
ENDBRANCH  12  35
TORSDOF 6
