REMARK  Name = ZINC39683933
REMARK  11 active torsions:
REMARK  status: ('A' for Active; 'I' for Inactive)
REMARK    1  A    between atoms: C_1  and  C_2
REMARK    2  A    between atoms: C_2  and  C_3
REMARK    3  A    between atoms: C_3  and  C_4
REMARK    4  A    between atoms: C_4  and  C_5
REMARK    5  A    between atoms: C_5  and  C_6
REMARK    6  A    between atoms: C_6  and  C_7
REMARK    7  A    between atoms: C_11  and  C_20
REMARK    8  A    between atoms: N_22  and  C_23
REMARK    9  A    between atoms: C_23  and  C_25
REMARK   10  A    between atoms: C_23  and  C_26
REMARK   11  A    between atoms: N_28  and  C_29
REMARK                            x       y       z     vdW  Elec       q    Type
REMARK                         _______ _______ _______ _____ _____    ______ ____
ROOT
ATOM      1  C   UNL     1       2.290  -4.554  -3.894  0.00  0.00    +0.216 C 
ATOM      2  O   UNL     1       2.694  -3.779  -4.735  0.00  0.00    -0.276 OA
ATOM      3  N   UNL     1       2.381  -5.882  -4.101  0.00  0.00    -0.300 N 
ATOM      4  C   UNL     1       1.940  -6.974  -3.202  0.00  0.00    +0.121 C 
ATOM      5  C   UNL     1       1.337  -8.038  -4.147  0.00  0.00    +0.100 C 
ATOM      6  C   UNL     1       2.002  -7.776  -5.508  0.00  0.00    -0.004 C 
ATOM      7  C   UNL     1       2.939  -6.581  -5.284  0.00  0.00    +0.115 C 
ATOM      8  C   UNL     1       0.947  -7.422  -6.552  0.00  0.00    -0.010 C 
ATOM      9  C   UNL     1       1.626  -7.222  -7.910  0.00  0.00    -0.082 C 
ATOM     10  N   UNL     1       2.329  -8.452  -8.293  0.00  0.00    +0.379 N 
ATOM     11  C   UNL     1       3.404  -8.735  -7.334  0.00  0.00    -0.082 C 
ATOM     12  C   UNL     1       2.799  -8.999  -5.952  0.00  0.00    -0.010 C 
ATOM     13  H   UNL     1       1.677  -9.222  -8.303  0.00  0.00    -0.086 HD
ATOM     14  H   UNL     1       2.725  -8.338  -9.215  0.00  0.00    -0.086 HD
ENDROOT
BRANCH   5  15
ATOM     15  C   UNL     1       1.668  -9.424  -3.656  0.00  0.00    +0.219 C 
ATOM     16  O   UNL     1       2.701  -9.622  -3.052  0.00  0.00    -0.275 OA
ATOM     17  N   UNL     1       0.818 -10.443  -3.889  0.00  0.00    -0.304 N 
ATOM     18  H   UNL     1      -0.008 -10.284  -4.373  0.00  0.00    +0.149 HD
BRANCH  17  19
ATOM     19  C   UNL     1       1.140 -11.790  -3.413  0.00  0.00    +0.156 C 
ATOM     20  C   UNL     1       0.688 -11.938  -1.959  0.00  0.00    +0.038 C 
BRANCH  19  21
ATOM     21  C   UNL     1       0.429 -12.809  -4.266  0.00  0.00    +0.233 C 
ATOM     22  O   UNL     1      -0.277 -12.445  -5.183  0.00  0.00    -0.274 OA
ATOM     23  N   UNL     1       0.579 -14.123  -4.011  0.00  0.00    -0.317 N 
ATOM     24  C   UNL     1      -0.112 -15.114  -4.841  0.00  0.00    +0.128 C 
ATOM     25  H   UNL     1       1.144 -14.414  -3.278  0.00  0.00    +0.148 HD
ENDBRANCH  19  21
ENDBRANCH  17  19
ENDBRANCH   5  15
BRANCH   1  26
ATOM     26  C   UNL     1       1.685  -4.030  -2.616  0.00  0.00    +0.096 C 
BRANCH  26  27
ATOM     27  C   UNL     1       1.702  -2.500  -2.634  0.00  0.00    +0.009 C 
BRANCH  27  28
ATOM     28  C   UNL     1       1.088  -1.969  -1.337  0.00  0.00    +0.000 C 
BRANCH  28  29
ATOM     29  C   UNL     1       1.105  -0.439  -1.354  0.00  0.00    -0.000 C 
BRANCH  29  31
ATOM     30  C   UNL     1       0.508   1.622  -0.074  0.00  0.00    +0.004 C 
ATOM     31  C   UNL     1       0.491   0.092  -0.057  0.00  0.00    -0.003 C 
ENDBRANCH  29  31
ENDBRANCH  28  29
ENDBRANCH  27  28
ENDBRANCH  26  27
ENDBRANCH   1  26
TORSDOF 8
