REMARK  Name = ZINC25339827
REMARK  12 active torsions:
REMARK  status: ('A' for Active; 'I' for Inactive)
REMARK    1  A    between atoms: C_1  and  C_2
REMARK    2  A    between atoms: C_5  and  C_21
REMARK    3  A    between atoms: C_7  and  N_8
REMARK    4  A    between atoms: N_8  and  S_9
REMARK    5  A    between atoms: S_9  and  C_12
REMARK    6  A    between atoms: C_13  and  C_20
REMARK    7  A    between atoms: C_15  and  C_19
REMARK    8  A    between atoms: C_17  and  C_18
REMARK    9  A    between atoms: N_23  and  C_24
REMARK   10  A    between atoms: C_24  and  C_25
REMARK   11  A    between atoms: C_28  and  N_31
REMARK   12  A    between atoms: C_32  and  C_34
REMARK                            x       y       z     vdW  Elec       q    Type
REMARK                         _______ _______ _______ _____ _____    ______ ____
ROOT
ATOM      1  C   UNL     1       4.513  -1.702  -4.519  0.00  0.00    +0.046 C 
ATOM      2  C   UNL     1       4.960  -0.306  -4.168  0.00  0.00    -0.028 A 
ATOM      3  C   UNL     1       5.216   0.608  -5.173  0.00  0.00    +0.006 A 
ATOM      4  C   UNL     1       5.633   1.886  -4.859  0.00  0.00    +0.013 A 
ATOM      5  C   UNL     1       5.790   2.261  -3.524  0.00  0.00    +0.039 A 
ATOM      6  C   UNL     1       5.526   1.341  -2.510  0.00  0.00    +0.037 A 
ATOM      7  C   UNL     1       5.109   0.059  -2.835  0.00  0.00    +0.052 A 
ENDROOT
BRANCH   5   8
ATOM      8  C   UNL     1       6.236   3.630  -3.185  0.00  0.00    +0.244 C 
ATOM      9  O   UNL     1       6.372   3.954  -2.022  0.00  0.00    -0.270 OA
ATOM     10  N   UNL     1       6.490   4.518  -4.167  0.00  0.00    -0.307 N 
ATOM     11  H   UNL     1       6.366   4.224  -5.220  0.00  0.00    +0.149 HD
BRANCH  10  12
ATOM     12  C   UNL     1       6.932   5.874  -3.832  0.00  0.00    +0.139 C 
BRANCH  12  13
ATOM     13  C   UNL     1       7.146   6.660  -5.099  0.00  0.00    -0.030 A 
ATOM     14  C   UNL     1       8.387   6.661  -5.709  0.00  0.00    +0.007 A 
ATOM     15  C   UNL     1       8.585   7.377  -6.873  0.00  0.00    +0.023 A 
ATOM     16  C   UNL     1       7.539   8.104  -7.426  0.00  0.00    +0.033 A 
ATOM     17  C   UNL     1       6.295   8.105  -6.808  0.00  0.00    +0.023 A 
ATOM     18  C   UNL     1       6.102   7.384  -5.647  0.00  0.00    +0.007 A 
BRANCH  16  19
ATOM     19  N   UNL     1       7.738   8.834  -8.603  0.00  0.00    -0.286 N 
ATOM     20  C   UNL     1       7.075   9.991  -8.799  0.00  0.00    +0.214 C 
ATOM     21  O   UNL     1       6.366  10.440  -7.923  0.00  0.00    -0.276 OA
ATOM     22  C   UNL     1       7.214  10.727 -10.107  0.00  0.00    +0.109 C 
ATOM     23  H   UNL     1       8.435   8.463  -9.369  0.00  0.00    +0.155 HD
ENDBRANCH  16  19
ENDBRANCH  12  13
ENDBRANCH  10  12
ENDBRANCH   5   8
BRANCH   7  24
ATOM     24  N   UNL     1       4.843  -0.867  -1.823  0.00  0.00    -0.216 N 
ATOM     25  H   UNL     1       3.813  -1.009  -1.464  0.00  0.00    +0.174 HD
BRANCH  24  26
ATOM     26  S   UNL     1       6.079  -1.752  -1.165  0.00  0.00    +0.073 S 
ATOM     27  O   UNL     1       6.812  -2.297  -2.254  0.00  0.00    -0.150 OA
ATOM     28  O   UNL     1       5.502  -2.564  -0.152  0.00  0.00    -0.150 OA
BRANCH  26  29
ATOM     29  C   UNL     1       7.155  -0.619  -0.351  0.00  0.00    +0.114 A 
ATOM     30  C   UNL     1       8.230  -0.076  -1.030  0.00  0.00    -0.023 A 
ATOM     31  C   UNL     1       9.074   0.812  -0.391  0.00  0.00    +0.008 A 
ATOM     32  C   UNL     1       8.843   1.159   0.927  0.00  0.00    -0.050 A 
ATOM     33  C   UNL     1       7.767   0.617   1.606  0.00  0.00    +0.008 A 
ATOM     34  C   UNL     1       6.923  -0.272   0.967  0.00  0.00    -0.023 A 
ATOM     35  C   UNL     1       5.751  -0.862   1.707  0.00  0.00    +0.046 C 
ATOM     36  C   UNL     1       9.767   2.123   1.625  0.00  0.00    +0.044 C 
ATOM     37  C   UNL     1       8.482  -0.455  -2.467  0.00  0.00    +0.046 C 
ENDBRANCH  26  29
ENDBRANCH  24  26
ENDBRANCH   7  24
TORSDOF 7
