REMARK  Name = ZINC39633674
REMARK  8 active torsions:
REMARK  status: ('A' for Active; 'I' for Inactive)
REMARK    1  A    between atoms: C_1  and  C_2
REMARK    2  A    between atoms: C_4  and  C_11
REMARK    3  A    between atoms: N_5  and  C_7
REMARK    4  A    between atoms: C_7  and  C_8
REMARK    5  A    between atoms: C_7  and  C_9
REMARK    6  A    between atoms: C_7  and  C_10
REMARK    7  A    between atoms: C_15  and  C_24
REMARK    8  A    between atoms: N_26  and  C_27
REMARK                            x       y       z     vdW  Elec       q    Type
REMARK                         _______ _______ _______ _____ _____    ______ ____
ROOT
ATOM      1  C   UNL     1      -0.596  -4.127  -1.251  0.00  0.00    +0.265 C 
ATOM      2  O   UNL     1      -0.870  -3.986  -2.428  0.00  0.00    -0.268 OA
ATOM      3  N   UNL     1      -0.731  -5.334  -0.667  0.00  0.00    -0.295 N 
ATOM      4  C   UNL     1      -0.577  -5.671   0.768  0.00  0.00    +0.121 C 
ATOM      5  C   UNL     1      -1.698  -6.697   1.050  0.00  0.00    +0.100 C 
ATOM      6  C   UNL     1      -2.014  -7.320  -0.320  0.00  0.00    -0.004 C 
ATOM      7  C   UNL     1      -1.074  -6.623  -1.314  0.00  0.00    +0.115 C 
ATOM      8  C   UNL     1      -3.467  -7.051  -0.700  0.00  0.00    -0.010 C 
ATOM      9  C   UNL     1      -3.773  -7.728  -2.039  0.00  0.00    -0.082 C 
ATOM     10  N   UNL     1      -3.536  -9.172  -1.924  0.00  0.00    +0.379 N 
ATOM     11  C   UNL     1      -2.116  -9.426  -1.649  0.00  0.00    -0.082 C 
ATOM     12  C   UNL     1      -1.740  -8.820  -0.294  0.00  0.00    -0.010 C 
ATOM     13  H   UNL     1      -4.094  -9.545  -1.171  0.00  0.00    -0.086 HD
ATOM     14  H   UNL     1      -3.796  -9.625  -2.788  0.00  0.00    -0.086 HD
ENDROOT
BRANCH   1  18
ATOM     15  C   UNL     1       1.277  -1.179   2.427  0.00  0.00    +0.067 C 
ATOM     16  C   UNL     1       0.699  -1.680   1.128  0.00  0.00    +0.061 A 
ATOM     17  C   UNL     1       0.379  -3.006   0.827  0.00  0.00    +0.057 A 
ATOM     18  C   UNL     1      -0.116  -2.979  -0.465  0.00  0.00    +0.124 A 
ATOM     19  N   UNL     1      -0.070  -1.673  -0.865  0.00  0.00    -0.254 N 
ATOM     20  N   UNL     1       0.403  -0.948   0.084  0.00  0.00    -0.175 NA
BRANCH  19  21
ATOM     21  C   UNL     1      -0.499  -1.176  -2.174  0.00  0.00    +0.056 C 
ATOM     22  C   UNL     1      -1.946  -1.601  -2.432  0.00  0.00    +0.036 C 
ATOM     23  C   UNL     1      -0.404   0.351  -2.195  0.00  0.00    +0.036 C 
ATOM     24  C   UNL     1       0.405  -1.758  -3.263  0.00  0.00    +0.036 C 
ENDBRANCH  19  21
ENDBRANCH   1  18
BRANCH   5  25
ATOM     25  C   UNL     1      -1.214  -7.752   2.010  0.00  0.00    +0.218 C 
ATOM     26  O   UNL     1      -0.032  -8.015   2.076  0.00  0.00    -0.275 OA
ATOM     27  N   UNL     1      -2.094  -8.404   2.795  0.00  0.00    -0.312 N 
ATOM     28  H   UNL     1      -3.046  -8.249   2.690  0.00  0.00    +0.149 HD
BRANCH  27  29
ATOM     29  C   UNL     1      -1.614  -9.347   3.808  0.00  0.00    +0.073 C 
ATOM     30  C   UNL     1      -1.329 -10.704   3.133  0.00  0.00    +0.022 C 
ATOM     31  C   UNL     1      -0.387 -11.485   4.008  0.00  0.00    +0.002 C 
ATOM     32  C   UNL     1      -1.126 -12.441   4.964  0.00  0.00    +0.000 C 
ATOM     33  C   UNL     1      -2.381 -11.805   5.592  0.00  0.00    +0.000 C 
ATOM     34  C   UNL     1      -2.155 -10.378   6.011  0.00  0.00    +0.002 C 
ATOM     35  C   UNL     1      -2.610  -9.452   4.865  0.00  0.00    +0.022 C 
ENDBRANCH  27  29
ENDBRANCH   5  25
TORSDOF 4
