REMARK  Name = ZINC63280103
REMARK  6 active torsions:
REMARK  status: ('A' for Active; 'I' for Inactive)
REMARK    1  A    between atoms: C_1  and  C_2
REMARK    2  A    between atoms: C_4  and  C_13
REMARK    3  A    between atoms: C_13  and  C_14
REMARK    4  A    between atoms: C_14  and  N_15
REMARK    5  A    between atoms: C_16  and  C_18
REMARK    6  A    between atoms: C_24  and  C_26
REMARK                            x       y       z     vdW  Elec       q    Type
REMARK                         _______ _______ _______ _____ _____    ______ ____
ROOT
ATOM      1  N   UNL     1       0.977  -0.647  -5.003  0.00  0.00    -0.315 N 
ATOM      2  C   UNL     1       1.733  -1.180  -5.982  0.00  0.00    +0.216 C 
ATOM      3  O   UNL     1       2.714  -1.836  -5.702  0.00  0.00    -0.276 OA
ATOM      4  H   UNL     1       0.192  -0.122  -5.227  0.00  0.00    +0.149 HD
ENDROOT
BRANCH   2   5
ATOM      5  C   UNL     1       1.361  -0.960  -7.426  0.00  0.00    +0.078 C 
ATOM      6  C   UNL     1      -0.036  -1.529  -7.685  0.00  0.00    +0.032 C 
ATOM      7  C   UNL     1      -0.425  -1.273  -9.144  0.00  0.00    +0.109 C 
ATOM      8  N   UNL     1       0.622  -1.823 -10.016  0.00  0.00    -0.297 N 
ATOM      9  C   UNL     1       2.014  -1.411  -9.794  0.00  0.00    +0.109 C 
ATOM     10  C   UNL     1       2.376  -1.666  -8.328  0.00  0.00    +0.032 C 
ATOM     11  C   UNL     1       0.310  -2.689 -11.000  0.00  0.00    +0.248 C 
ATOM     12  O   UNL     1      -0.828  -3.103 -11.109  0.00  0.00    -0.270 OA
BRANCH  11  13
ATOM     13  C   UNL     1       1.352  -3.137 -11.948  0.00  0.00    +0.051 A 
ATOM     14  C   UNL     1       2.107  -2.198 -12.654  0.00  0.00    +0.014 A 
ATOM     15  C   UNL     1       3.079  -2.622 -13.537  0.00  0.00    +0.001 A 
ATOM     16  C   UNL     1       3.306  -3.975 -13.725  0.00  0.00    +0.001 A 
ATOM     17  C   UNL     1       2.561  -4.910 -13.030  0.00  0.00    +0.016 A 
ATOM     18  C   UNL     1       1.590  -4.500 -12.138  0.00  0.00    +0.030 A 
ATOM     19 BR   UNL     1       0.579  -5.780 -11.182  0.00  0.00    -0.050 Br
ENDBRANCH  11  13
ENDBRANCH   2   5
BRANCH   1  20
ATOM     20  C   UNL     1       1.339  -0.861  -3.599  0.00  0.00    +0.108 C 
BRANCH  20  21
ATOM     21  C   UNL     1       0.324  -0.155  -2.697  0.00  0.00    +0.052 C 
BRANCH  21  24
ATOM     22  C   UNL     1      -0.057   1.676  -0.049  0.00  0.00    +0.035 C 
ATOM     23  C   UNL     1      -0.035   0.146  -0.037  0.00  0.00    +0.103 C 
ATOM     24  C   UNL     1       0.696  -0.375  -1.254  0.00  0.00    -0.037 C 
ATOM     25  C   UNL     1       1.751  -1.079  -0.784  0.00  0.00    +0.002 A 
ATOM     26  C   UNL     1       2.827  -1.821  -1.452  0.00  0.00    +0.048 A 
ATOM     27  C   UNL     1       3.765  -2.439  -0.697  0.00  0.00    +0.124 A 
ATOM     28  C   UNL     1       3.733  -2.388   0.706  0.00  0.00    +0.040 A 
ATOM     29  C   UNL     1       2.776  -1.725   1.389  0.00  0.00    +0.029 A 
ATOM     30  C   UNL     1       1.741  -1.040   0.696  0.00  0.00    +0.043 A 
ATOM     31  N   UNL     1       0.718  -0.339   1.125  0.00  0.00    -0.378 N 
ATOM     32  F   UNL     1       4.757  -3.123  -1.308  0.00  0.00    -0.205 F 
ATOM     33  H   UNL     1       0.496  -0.170   2.054  0.00  0.00    +0.160 HD
ENDBRANCH  21  24
ENDBRANCH  20  21
ENDBRANCH   1  20
TORSDOF 5
