REMARK  Name = ZINC19852091
REMARK  8 active torsions:
REMARK  status: ('A' for Active; 'I' for Inactive)
REMARK    1  A    between atoms: C_3  and  C_6
REMARK    2  A    between atoms: C_7  and  C_30
REMARK    3  A    between atoms: C_8  and  N_29
REMARK    4  A    between atoms: C_10  and  S_14
REMARK    5  A    between atoms: C_11  and  C_12
REMARK    6  A    between atoms: S_14  and  C_15
REMARK    7  A    between atoms: C_15  and  C_16
REMARK    8  A    between atoms: N_18  and  C_19
REMARK                            x       y       z     vdW  Elec       q    Type
REMARK                         _______ _______ _______ _____ _____    ______ ____
ROOT
ATOM      1  C   UNL     1      -1.071   5.058   0.040  0.00  0.00    +0.029 A 
ATOM      2  C   UNL     1      -0.864   5.917   1.143  0.00  0.00    +0.101 A 
ATOM      3  C   UNL     1      -1.405   7.214   1.106  0.00  0.00    +0.136 A 
ATOM      4  N   UNL     1      -2.109   7.630   0.065  0.00  0.00    -0.224 NA
ATOM      5  C   UNL     1      -2.334   6.859  -0.989  0.00  0.00    +0.118 A 
ATOM      6  C   UNL     1      -1.829   5.548  -1.048  0.00  0.00    +0.093 A 
ENDROOT
BRANCH   1   9
ATOM      7  C   UNL     1       1.039   1.933   0.003  0.00  0.00    +0.008 A 
ATOM      8  C   UNL     1       0.801   3.288   0.012  0.00  0.00    +0.016 A 
ATOM      9  C   UNL     1      -0.522   3.695   0.027  0.00  0.00    +0.022 A 
ATOM     10  S   UNL     1      -1.386   2.134   0.019  0.00  0.00    -0.097 S 
ATOM     11  C   UNL     1      -0.013   1.076   0.008  0.00  0.00    +0.046 A 
ENDBRANCH   1   9
BRANCH   3  12
ATOM     12  N   UNL     1      -1.205   8.065   2.175  0.00  0.00    -0.342 N 
ATOM     13  H   UNL     1      -1.625   9.082   2.155  0.00  0.00    +0.144 HD
ATOM     14  H   UNL     1      -0.625   7.726   3.046  0.00  0.00    +0.144 HD
ENDBRANCH   3  12
BRANCH   6  15
ATOM     15  C   UNL     1      -2.078   4.722  -2.191  0.00  0.00    +0.102 C 
ATOM     16  N   UNL     1      -2.276   4.067  -3.098  0.00  0.00    -0.191 NA
ENDBRANCH   6  15
BRANCH   2  17
ATOM     17  C   UNL     1      -0.109   5.475   2.276  0.00  0.00    +0.103 C 
ATOM     18  N   UNL     1       0.490   5.125   3.176  0.00  0.00    -0.191 NA
ENDBRANCH   2  17
BRANCH   5  19
ATOM     19  S   UNL     1      -3.281   7.487  -2.337  0.00  0.00    -0.095 S 
BRANCH  19  20
ATOM     20  C   UNL     1      -3.643   9.149  -1.719  0.00  0.00    +0.171 C 
BRANCH  20  21
ATOM     21  C   UNL     1      -4.469   9.894  -2.736  0.00  0.00    +0.224 C 
ATOM     22  O   UNL     1      -4.782   9.354  -3.776  0.00  0.00    -0.275 OA
ATOM     23  N   UNL     1      -4.860  11.160  -2.490  0.00  0.00    -0.309 N 
ATOM     24  H   UNL     1      -4.577  11.649  -1.547  0.00  0.00    +0.149 HD
BRANCH  23  25
ATOM     25  C   UNL     1      -5.663  11.884  -3.479  0.00  0.00    +0.035 C 
ATOM     26  C   UNL     1      -4.884  11.986  -4.792  0.00  0.00    +0.029 C 
ATOM     27  C   UNL     1      -5.722  12.742  -5.825  0.00  0.00    -0.008 C 
ATOM     28  C   UNL     1      -6.028  14.147  -5.303  0.00  0.00    +0.007 C 
ATOM     29  C   UNL     1      -6.807  14.045  -3.990  0.00  0.00    -0.008 C 
ATOM     30  C   UNL     1      -5.969  13.289  -2.958  0.00  0.00    +0.029 C 
ATOM     31  C   UNL     1      -8.118  13.294  -4.232  0.00  0.00    +0.007 C 
ATOM     32  C   UNL     1      -7.811  11.888  -4.754  0.00  0.00    -0.008 C 
ATOM     33  C   UNL     1      -7.032  11.991  -6.067  0.00  0.00    +0.007 C 
ATOM     34  C   UNL     1      -6.973  11.132  -3.721  0.00  0.00    +0.029 C 
ENDBRANCH  23  25
ENDBRANCH  20  21
ENDBRANCH  19  20
ENDBRANCH   5  19
TORSDOF 8
