REMARK  Name = ZINC35701875
REMARK  12 active torsions:
REMARK  status: ('A' for Active; 'I' for Inactive)
REMARK    1  A    between atoms: C_1  and  C_2
REMARK    2  A    between atoms: C_3  and  C_33
REMARK    3  A    between atoms: C_4  and  C_23
REMARK    4  A    between atoms: C_7  and  C_12
REMARK    5  A    between atoms: C_13  and  N_15
REMARK    6  A    between atoms: N_15  and  C_16
REMARK    7  A    between atoms: C_16  and  C_17
REMARK    8  A    between atoms: C_26  and  C_29
REMARK    9  A    between atoms: C_33  and  O_35
REMARK   10  A    between atoms: O_35  and  C_36
REMARK   11  A    between atoms: C_36  and  C_37
REMARK   12  A    between atoms: C_36  and  C_38
REMARK                            x       y       z     vdW  Elec       q    Type
REMARK                         _______ _______ _______ _____ _____    ______ ____
ROOT
ATOM      1  C   UNL     1       0.338   1.165   0.881  0.00  0.00    +0.066 C 
ATOM      2  C   UNL     1       0.265  -0.292   0.504  0.00  0.00    +0.053 C 
ATOM      3  C   UNL     1      -0.962  -0.925   0.442  0.00  0.00    +0.082 C 
ATOM      4  C   UNL     1      -0.982  -2.387   0.058  0.00  0.00    +0.150 C 
ATOM      5  N   UNL     1       0.329  -3.031  -0.223  0.00  0.00    -0.267 N 
ATOM      6  C   UNL     1       0.548  -4.345  -0.588  0.00  0.00    +0.048 C 
ATOM      7  C   UNL     1       1.825  -4.732  -0.800  0.00  0.00    +0.072 C 
ATOM      8  S   UNL     1       2.724  -3.227  -0.480  0.00  0.00    -0.060 S 
ATOM      9  C   UNL     1       1.428  -2.228  -0.105  0.00  0.00    +0.166 C 
ATOM     10  N   UNL     1       1.376  -0.955   0.229  0.00  0.00    -0.230 NA
ENDROOT
BRANCH   4  11
ATOM     11  C   UNL     1      -1.642  -3.151   1.177  0.00  0.00    -0.022 A 
ATOM     12  C   UNL     1      -0.963  -3.369   2.361  0.00  0.00    +0.006 A 
ATOM     13  C   UNL     1      -1.569  -4.070   3.387  0.00  0.00    +0.013 A 
ATOM     14  C   UNL     1      -2.854  -4.552   3.229  0.00  0.00    +0.055 A 
ATOM     15  C   UNL     1      -3.535  -4.333   2.046  0.00  0.00    +0.013 A 
ATOM     16  C   UNL     1      -2.930  -3.629   1.021  0.00  0.00    +0.006 A 
BRANCH  14  17
ATOM     17  C   UNL     1      -3.515  -5.317   4.348  0.00  0.00    +0.417 C 
ATOM     18  F   UNL     1      -4.201  -4.426   5.180  0.00  0.00    -0.166 F 
ATOM     19  F   UNL     1      -4.416  -6.243   3.811  0.00  0.00    -0.166 F 
ATOM     20  F   UNL     1      -2.540  -5.991   5.090  0.00  0.00    -0.166 F 
ENDBRANCH  14  17
ENDBRANCH   4  11
BRANCH   6  21
ATOM     21  C   UNL     1      -0.569  -5.289  -0.741  0.00  0.00    +0.091 C 
ATOM     22  C   UNL     1      -0.321  -6.593  -0.971  0.00  0.00    +0.239 C 
ATOM     23  O   UNL     1       0.951  -7.057  -0.938  0.00  0.00    -0.271 OA
BRANCH  22  24
ATOM     24  N   UNL     1      -1.368  -7.458  -1.240  0.00  0.00    -0.309 N 
ATOM     25  H   UNL     1      -2.284  -7.143  -1.191  0.00  0.00    +0.149 HD
BRANCH  24  26
ATOM     26  C   UNL     1      -1.091  -8.851  -1.600  0.00  0.00    +0.136 C 
BRANCH  26  27
ATOM     27  C   UNL     1      -2.401  -9.554  -1.964  0.00  0.00    +0.135 C 
ATOM     28  C   UNL     1      -2.136 -11.039  -2.315  0.00  0.00    +0.035 C 
ATOM     29  C   UNL     1      -3.522 -11.667  -2.007  0.00  0.00    +0.031 C 
ATOM     30  C   UNL     1      -4.006 -10.823  -0.808  0.00  0.00    +0.160 C 
ATOM     31  O   UNL     1      -3.282  -9.585  -0.830  0.00  0.00    -0.375 OA
ENDBRANCH  26  27
ENDBRANCH  24  26
ENDBRANCH  22  24
ENDBRANCH   6  21
BRANCH   3  32
ATOM     32  C   UNL     1      -2.146  -0.235   0.725  0.00  0.00    +0.339 C 
ATOM     33  O   UNL     1      -2.107   0.944   1.033  0.00  0.00    -0.245 OA
BRANCH  32  34
ATOM     34  O   UNL     1      -3.334  -0.875   0.658  0.00  0.00    -0.459 OA
BRANCH  34  35
ATOM     35  C   UNL     1      -4.503  -0.110   0.960  0.00  0.00    +0.171 C 
ATOM     36  C   UNL     1      -5.691  -0.659   0.168  0.00  0.00    +0.052 C 
ATOM     37  C   UNL     1      -4.801  -0.203   2.458  0.00  0.00    +0.052 C 
ENDBRANCH  34  35
ENDBRANCH  32  34
ENDBRANCH   3  32
TORSDOF 9
