REMARK  Name = ZINC36311047
REMARK  6 active torsions:
REMARK  status: ('A' for Active; 'I' for Inactive)
REMARK    1  A    between atoms: C_1  and  C_2
REMARK    2  A    between atoms: C_5  and  N_8
REMARK    3  A    between atoms: C_9  and  C_11
REMARK    4  A    between atoms: C_11  and  C_13
REMARK    5  A    between atoms: C_11  and  N_18
REMARK    6  A    between atoms: N_26  and  C_27
REMARK                            x       y       z     vdW  Elec       q    Type
REMARK                         _______ _______ _______ _____ _____    ______ ____
ROOT
ATOM      1  N   UNL     1       0.234  -6.062   3.384  0.00  0.00    +0.390 N 
ATOM      2  C   UNL     1      -0.415  -5.738   4.660  0.00  0.00    -0.058 C 
ATOM      3  C   UNL     1       0.153  -6.636   5.764  0.00  0.00    +0.091 C 
ATOM      4  N   UNL     1       0.004  -8.039   5.347  0.00  0.00    -0.289 N 
ATOM      5  C   UNL     1       0.483  -8.418   4.008  0.00  0.00    +0.091 C 
ATOM      6  C   UNL     1      -0.101  -7.436   2.987  0.00  0.00    -0.058 C 
ATOM      7  C   UNL     1      -0.554  -8.951   6.167  0.00  0.00    +0.306 C 
ATOM      8  O   UNL     1      -1.045  -8.599   7.223  0.00  0.00    -0.252 OA
ATOM      9  N   UNL     1      -0.568 -10.252   5.818  0.00  0.00    -0.269 N 
ATOM     10  H   UNL     1      -0.072 -10.551   5.040  0.00  0.00    +0.156 HD
ATOM     11  H   UNL     1       1.234  -5.978   3.487  0.00  0.00    -0.081 HD
ENDROOT
BRANCH   9  12
ATOM     12  C   UNL     1      -1.300 -11.174   6.578  0.00  0.00    +0.035 A 
ATOM     13  C   UNL     1      -2.578 -10.854   7.017  0.00  0.00    +0.026 A 
ATOM     14  C   UNL     1      -3.298 -11.764   7.766  0.00  0.00    +0.040 A 
ATOM     15  C   UNL     1      -2.745 -12.994   8.080  0.00  0.00    +0.124 A 
ATOM     16  C   UNL     1      -1.471 -13.315   7.644  0.00  0.00    +0.040 A 
ATOM     17  C   UNL     1      -0.750 -12.410   6.890  0.00  0.00    +0.026 A 
ATOM     18  F   UNL     1      -3.451 -13.883   8.813  0.00  0.00    -0.205 F 
ENDBRANCH   9  12
BRANCH   1  19
ATOM     19  C   UNL     1      -0.230  -5.129   2.349  0.00  0.00    +0.023 C 
BRANCH  19  20
ATOM     20  C   UNL     1       0.465  -5.449   1.024  0.00  0.00    -0.016 C 
ATOM     21  C   UNL     1       1.992  -5.286   1.176  0.00  0.00    +0.002 C 
ATOM     22  C   UNL     1       2.446  -4.690  -0.179  0.00  0.00    +0.000 C 
ATOM     23  C   UNL     1       1.294  -3.715  -0.527  0.00  0.00    +0.000 C 
ATOM     24  C   UNL     1       0.022  -4.450  -0.059  0.00  0.00    +0.002 C 
ENDBRANCH  19  20
BRANCH  19  26
ATOM     25  N   UNL     1      -0.675  -2.696   2.347  0.00  0.00    -0.287 N 
ATOM     26  C   UNL     1       0.100  -3.717   2.761  0.00  0.00    +0.204 C 
ATOM     27  O   UNL     1       1.063  -3.501   3.466  0.00  0.00    -0.277 OA
ATOM     28  H   UNL     1      -1.487  -2.874   1.848  0.00  0.00    +0.155 HD
BRANCH  25  33
ATOM     29  C   UNL     1       0.811   2.651   3.525  0.00  0.00    +0.044 C 
ATOM     30  C   UNL     1       0.416   1.231   3.212  0.00  0.00    -0.050 A 
ATOM     31  C   UNL     1      -0.263   0.945   2.042  0.00  0.00    +0.005 A 
ATOM     32  C   UNL     1      -0.626  -0.355   1.752  0.00  0.00    +0.023 A 
ATOM     33  C   UNL     1      -0.308  -1.377   2.638  0.00  0.00    +0.033 A 
ATOM     34  C   UNL     1       0.374  -1.087   3.812  0.00  0.00    +0.023 A 
ATOM     35  C   UNL     1       0.739   0.215   4.093  0.00  0.00    +0.005 A 
ENDBRANCH  25  33
ENDBRANCH  19  26
ENDBRANCH   1  19
TORSDOF 5
