REMARK  Name = ZINC16699506
REMARK  4 active torsions:
REMARK  status: ('A' for Active; 'I' for Inactive)
REMARK    1  A    between atoms: C_1  and  C_2
REMARK    2  A    between atoms: C_10  and  N_22
REMARK    3  A    between atoms: C_11  and  C_13
REMARK    4  A    between atoms: C_13  and  C_15
REMARK                            x       y       z     vdW  Elec       q    Type
REMARK                         _______ _______ _______ _____ _____    ______ ____
ROOT
ATOM      1  C   UNL     1       0.261   1.247   0.184  0.00  0.00    +0.044 C 
ATOM      2  C   UNL     1       0.315  -0.255   0.297  0.00  0.00    -0.034 A 
ATOM      3  C   UNL     1       0.315  -1.019  -0.821  0.00  0.00    +0.074 A 
ATOM      4  C   UNL     1       0.366  -2.421  -0.730  0.00  0.00    +0.250 A 
ATOM      5  O   UNL     1       0.365  -3.098  -1.745  0.00  0.00    -0.268 OA
ATOM      6  N   UNL     1       0.415  -3.016   0.477  0.00  0.00    -0.317 N 
ATOM      7  H   UNL     1       0.451  -3.983   0.535  0.00  0.00    +0.169 HD
ATOM      8  C   UNL     1       0.417  -2.272   1.616  0.00  0.00    +0.090 A 
ATOM      9  C   UNL     1       0.373  -0.872   1.584  0.00  0.00    +0.030 A 
ATOM     10  C   UNL     1       0.388  -0.225   2.887  0.00  0.00    +0.052 A 
ATOM     11  C   UNL     1       0.448  -1.075   3.979  0.00  0.00    +0.083 A 
ATOM     12  S   UNL     1       0.470  -2.691   3.234  0.00  0.00    -0.065 S 
ENDROOT
BRANCH  10  13
ATOM     13  N   UNL     1       0.345   1.153   3.027  0.00  0.00    -0.356 N 
ATOM     14  H   UNL     1       0.199   1.715   2.249  0.00  0.00    +0.142 HD
ATOM     15  H   UNL     1       0.461   1.556   3.901  0.00  0.00    +0.142 HD
ENDBRANCH  10  13
BRANCH  11  16
ATOM     16  C   UNL     1       0.476  -0.742   5.350  0.00  0.00    +0.202 C 
ATOM     17  O   UNL     1       0.323   0.416   5.699  0.00  0.00    -0.286 OA
BRANCH  16  18
ATOM     18  C   UNL     1       0.691  -1.797   6.364  0.00  0.00    +0.023 A 
ATOM     19  C   UNL     1       1.331  -2.987   6.013  0.00  0.00    +0.013 A 
ATOM     20  C   UNL     1       1.529  -3.967   6.962  0.00  0.00    +0.016 A 
ATOM     21  C   UNL     1       1.094  -3.773   8.263  0.00  0.00    +0.018 A 
ATOM     22  C   UNL     1       0.459  -2.595   8.618  0.00  0.00    +0.016 A 
ATOM     23  C   UNL     1       0.260  -1.605   7.678  0.00  0.00    +0.013 A 
ATOM     24 BR   UNL     1       1.368  -5.123   9.559  0.00  0.00    -0.050 Br
ENDBRANCH  16  18
ENDBRANCH  11  16
TORSDOF 3
