REMARK  Name = ZINC36053751
REMARK  15 active torsions:
REMARK  status: ('A' for Active; 'I' for Inactive)
REMARK    1  A    between atoms: C_1  and  C_2
REMARK    2  A    between atoms: C_2  and  N_3
REMARK    3  A    between atoms: N_3  and  C_4
REMARK    4  A    between atoms: C_4  and  C_5
REMARK    5  A    between atoms: C_6  and  C_8
REMARK    6  A    between atoms: C_9  and  C_34
REMARK    7  A    between atoms: C_13  and  C_15
REMARK    8  A    between atoms: C_20  and  O_21
REMARK    9  A    between atoms: O_21  and  C_22
REMARK   10  A    between atoms: C_23  and  C_26
REMARK   11  A    between atoms: C_27  and  N_29
REMARK   12  A    between atoms: N_29  and  C_30
REMARK   13  A    between atoms: C_30  and  C_31
REMARK   14  A    between atoms: C_31  and  C_32
REMARK   15  A    between atoms: C_31  and  C_33
REMARK                            x       y       z     vdW  Elec       q    Type
REMARK                         _______ _______ _______ _____ _____    ______ ____
ROOT
ATOM      1  C   UNL     1       0.405  -0.720  -3.872  0.00  0.00    +0.061 C 
ATOM      2  C   UNL     1      -0.093  -1.217  -5.060  0.00  0.00    +0.051 C 
ATOM      3  N   UNL     1       0.724  -1.511  -6.059  0.00  0.00    -0.230 NA
ATOM      4  C   UNL     1       2.032  -1.367  -6.027  0.00  0.00    +0.166 C 
ATOM      5  N   UNL     1       2.721  -0.891  -4.947  0.00  0.00    -0.267 N 
ATOM      6  C   UNL     1       1.900  -0.522  -3.762  0.00  0.00    +0.151 C 
ATOM      7  C   UNL     1       4.093  -0.797  -5.069  0.00  0.00    +0.048 C 
ATOM      8  C   UNL     1       4.645  -1.182  -6.241  0.00  0.00    +0.072 C 
ATOM      9  S   UNL     1       3.214  -1.681  -7.177  0.00  0.00    -0.060 S 
ATOM     10  C   UNL     1      -1.577  -1.427  -5.219  0.00  0.00    +0.066 C 
ENDROOT
BRANCH   6  11
ATOM     11  C   UNL     1       2.154   0.930  -3.451  0.00  0.00    +0.020 A 
ATOM     12  C   UNL     1       2.344   1.835  -4.478  0.00  0.00    +0.009 A 
ATOM     13  C   UNL     1       2.577   3.167  -4.193  0.00  0.00    +0.001 A 
ATOM     14  C   UNL     1       2.620   3.599  -2.879  0.00  0.00    +0.004 A 
ATOM     15  C   UNL     1       2.431   2.699  -1.849  0.00  0.00    +0.046 A 
ATOM     16  C   UNL     1       2.191   1.362  -2.133  0.00  0.00    +0.125 A 
BRANCH  16  17
ATOM     17  O   UNL     1       1.998   0.475  -1.121  0.00  0.00    -0.495 OA
ATOM     18  C   UNL     1       1.949   1.005   0.205  0.00  0.00    +0.277 C 
ENDBRANCH  16  17
ENDBRANCH   6  11
BRANCH   1  20
ATOM     19  N   UNL     1      -0.851  -1.371  -1.955  0.00  0.00    -0.298 N 
ATOM     20  C   UNL     1      -0.448  -0.405  -2.804  0.00  0.00    +0.246 C 
ATOM     21  O   UNL     1      -0.825   0.744  -2.644  0.00  0.00    -0.270 OA
BRANCH  19  23
ATOM     22  C   UNL     1      -1.073  -0.619   0.362  0.00  0.00    +0.024 C 
ATOM     23  C   UNL     1      -1.819  -1.061  -0.899  0.00  0.00    +0.104 C 
ENDBRANCH  19  23
BRANCH  19  24
ATOM     24  C   UNL     1      -0.322  -2.730  -2.088  0.00  0.00    +0.104 C 
ATOM     25  C   UNL     1      -1.284  -3.572  -2.928  0.00  0.00    +0.024 C 
ENDBRANCH  19  24
ENDBRANCH   1  20
BRANCH   7  26
ATOM     26  C   UNL     1       4.924  -0.297  -3.964  0.00  0.00    +0.091 C 
ATOM     27  C   UNL     1       6.239  -0.078  -4.156  0.00  0.00    +0.239 C 
ATOM     28  O   UNL     1       6.770  -0.187  -5.398  0.00  0.00    -0.271 OA
BRANCH  27  29
ATOM     29  N   UNL     1       7.048   0.259  -3.084  0.00  0.00    -0.312 N 
ATOM     30  H   UNL     1       6.684   0.266  -2.185  0.00  0.00    +0.149 HD
BRANCH  29  31
ATOM     31  C   UNL     1       8.454   0.606  -3.308  0.00  0.00    +0.107 C 
BRANCH  31  32
ATOM     32  C   UNL     1       9.085   1.053  -1.989  0.00  0.00    -0.000 C 
ATOM     33  C   UNL     1       9.109  -0.122  -1.010  0.00  0.00    +0.009 C 
ATOM     34  C   UNL     1      10.515   1.533  -2.244  0.00  0.00    +0.009 C 
ENDBRANCH  31  32
ENDBRANCH  29  31
ENDBRANCH  27  29
ENDBRANCH   7  26
TORSDOF 9
