REMARK  Name = ZINC40010058
REMARK  7 active torsions:
REMARK  status: ('A' for Active; 'I' for Inactive)
REMARK    1  A    between atoms: C_1  and  C_2
REMARK    2  A    between atoms: C_10  and  S_14
REMARK    3  A    between atoms: S_14  and  C_15
REMARK    4  A    between atoms: C_15  and  C_16
REMARK    5  A    between atoms: N_18  and  C_19
REMARK    6  A    between atoms: C_23  and  N_25
REMARK    7  A    between atoms: C_26  and  C_28
REMARK                            x       y       z     vdW  Elec       q    Type
REMARK                         _______ _______ _______ _____ _____    ______ ____
ROOT
ATOM      1  S   UNL     1      -2.954  -3.442   7.100  0.00  0.00    -0.079 S 
ENDROOT
BRANCH   1  10
ATOM      2  C   UNL     1      -0.058   1.524  -0.006  0.00  0.00    +0.007 C 
ATOM      3  C   UNL     1      -0.048  -0.006  -0.023  0.00  0.00    -0.012 C 
ATOM      4  C   UNL     1      -1.486  -0.517  -0.022  0.00  0.00    +0.008 C 
ATOM      5  C   UNL     1      -2.243   0.018   1.201  0.00  0.00    +0.033 C 
ATOM      6  C   UNL     1      -1.403  -0.341   2.425  0.00  0.00    -0.042 C 
ATOM      7  C   UNL     1      -1.850  -1.019   3.480  0.00  0.00    +0.071 C 
ATOM      8  C   UNL     1      -0.864  -1.456   4.506  0.00  0.00    +0.112 C 
ATOM      9  N   UNL     1      -1.205  -2.164   5.552  0.00  0.00    -0.217 NA
ATOM     10  C   UNL     1      -2.500  -2.493   5.686  0.00  0.00    +0.182 C 
ATOM     11  N   UNL     1      -3.457  -2.163   4.842  0.00  0.00    -0.151 NA
ATOM     12  C   UNL     1      -3.270  -1.446   3.724  0.00  0.00    +0.272 C 
ATOM     13  O   UNL     1      -4.181  -1.163   2.965  0.00  0.00    -0.268 OA
ATOM     14  S   UNL     1       0.680  -0.806   3.950  0.00  0.00    -0.097 S 
ATOM     15  C   UNL     1       0.070   0.069   2.458  0.00  0.00    +0.080 C 
ATOM     16  C   UNL     1       0.716  -0.518   1.202  0.00  0.00    +0.022 C 
ENDBRANCH   1  10
BRANCH   1  17
ATOM     17  C   UNL     1      -4.744  -3.673   6.917  0.00  0.00    +0.173 C 
BRANCH  17  18
ATOM     18  C   UNL     1      -5.268  -4.480   8.076  0.00  0.00    +0.227 C 
ATOM     19  O   UNL     1      -4.508  -4.861   8.942  0.00  0.00    -0.275 OA
ATOM     20  N   UNL     1      -6.580  -4.777   8.152  0.00  0.00    -0.285 N 
ATOM     21  H   UNL     1      -7.198  -4.417   7.497  0.00  0.00    +0.155 HD
BRANCH  20  22
ATOM     22  C   UNL     1      -7.051  -5.607   9.176  0.00  0.00    +0.035 A 
ATOM     23  C   UNL     1      -8.094  -6.491   8.930  0.00  0.00    +0.023 A 
ATOM     24  C   UNL     1      -8.560  -7.311   9.940  0.00  0.00    +0.004 A 
ATOM     25  C   UNL     1      -7.990  -7.254  11.197  0.00  0.00    +0.023 A 
ATOM     26  C   UNL     1      -6.947  -6.372  11.450  0.00  0.00    +0.035 A 
ATOM     27  C   UNL     1      -6.473  -5.552  10.436  0.00  0.00    +0.046 A 
BRANCH  26  28
ATOM     28  N   UNL     1      -6.371  -6.315  12.724  0.00  0.00    -0.286 N 
ATOM     29  C   UNL     1      -6.252  -7.438  13.460  0.00  0.00    +0.214 C 
ATOM     30  O   UNL     1      -6.720  -8.481  13.056  0.00  0.00    -0.276 OA
ATOM     31  C   UNL     1      -5.539  -7.396  14.787  0.00  0.00    +0.109 C 
ATOM     32  H   UNL     1      -6.057  -5.468  13.076  0.00  0.00    +0.155 HD
ENDBRANCH  26  28
ENDBRANCH  20  22
ENDBRANCH  17  18
ENDBRANCH   1  17
TORSDOF 5
