REMARK  Name = ZINC20232798
REMARK  4 active torsions:
REMARK  status: ('A' for Active; 'I' for Inactive)
REMARK    1  A    between atoms: C_2  and  C_25
REMARK    2  A    between atoms: N_5  and  C_6
REMARK    3  A    between atoms: C_6  and  C_7
REMARK    4  A    between atoms: C_13  and  C_15
REMARK                            x       y       z     vdW  Elec       q    Type
REMARK                         _______ _______ _______ _____ _____    ______ ____
ROOT
ATOM      1  C   UNL     1       0.665   7.411   0.718  0.00  0.00    +0.013 C 
ATOM      2  C   UNL     1      -0.760   7.969   0.705  0.00  0.00    +0.024 C 
ATOM      3  C   UNL     1      -1.477   7.497  -0.564  0.00  0.00    +0.108 C 
ATOM      4  N   UNL     1      -1.402   6.032  -0.632  0.00  0.00    -0.301 N 
ATOM      5  C   UNL     1      -0.086   5.386  -0.532  0.00  0.00    +0.108 C 
ATOM      6  C   UNL     1       0.616   5.882   0.731  0.00  0.00    +0.024 C 
ATOM      7  C   UNL     1      -2.519   5.293  -0.779  0.00  0.00    +0.220 C 
ATOM      8  O   UNL     1      -2.437   4.093  -0.938  0.00  0.00    -0.275 OA
ENDROOT
BRANCH   7   9
ATOM      9  C   UNL     1      -3.872   5.957  -0.746  0.00  0.00    +0.093 C 
ATOM     10  C   UNL     1      -4.960   4.894  -0.581  0.00  0.00    +0.016 C 
ATOM     11  C   UNL     1      -6.331   5.570  -0.514  0.00  0.00    +0.020 C 
ATOM     12  C   UNL     1      -6.587   6.325  -1.822  0.00  0.00    +0.109 C 
ATOM     13  N   UNL     1      -5.470   7.249  -2.062  0.00  0.00    -0.285 N 
ATOM     14  C   UNL     1      -4.101   6.716  -2.062  0.00  0.00    +0.122 C 
ATOM     15  C   UNL     1      -5.697   8.559  -2.284  0.00  0.00    +0.300 C 
ATOM     16  O   UNL     1      -4.774   9.296  -2.571  0.00  0.00    -0.253 OA
ATOM     17  N   UNL     1      -6.947   9.053  -2.181  0.00  0.00    -0.313 N 
ATOM     18  H   UNL     1      -7.132  10.122  -2.362  0.00  0.00    +0.146 HD
ATOM     19  H   UNL     1      -7.782   8.386  -1.917  0.00  0.00    +0.146 HD
ENDBRANCH   7   9
BRANCH   1  20
ATOM     20  C   UNL     1       1.396   7.909   1.967  0.00  0.00    +0.148 C 
BRANCH  20  25
ATOM     21  C   UNL     1       3.878   8.278   2.016  0.00  0.00    +0.133 A 
ATOM     22  C   UNL     1       4.958   7.468   1.925  0.00  0.00    +0.086 A 
ATOM     23  N   UNL     1       4.489   6.224   1.780  0.00  0.00    -0.134 NA
ATOM     24  N   UNL     1       3.203   6.261   1.787  0.00  0.00    -0.065 NA
ATOM     25  N   UNL     1       2.794   7.474   1.920  0.00  0.00    -0.251 N 
BRANCH  22  26
ATOM     26  C   UNL     1       6.405   7.886   1.977  0.00  0.00    +0.041 C 
ATOM     27  C   UNL     1       6.572   9.102   2.910  0.00  0.00    +0.010 C 
ATOM     28  C   UNL     1       7.654   9.967   2.217  0.00  0.00    +0.001 C 
ATOM     29  C   UNL     1       7.310   9.807   0.715  0.00  0.00    +0.001 C 
ATOM     30  C   UNL     1       6.875   8.333   0.582  0.00  0.00    +0.010 C 
ENDBRANCH  22  26
ENDBRANCH  20  25
ENDBRANCH   1  20
TORSDOF 4
