REMARK  Name = ZINC39638850
REMARK  7 active torsions:
REMARK  status: ('A' for Active; 'I' for Inactive)
REMARK    1  A    between atoms: C_5  and  C_7
REMARK    2  A    between atoms: C_7  and  C_8
REMARK    3  A    between atoms: C_8  and  N_9
REMARK    4  A    between atoms: C_10  and  C_12
REMARK    5  A    between atoms: C_23  and  C_25
REMARK    6  A    between atoms: C_28  and  O_31
REMARK    7  A    between atoms: O_31  and  C_32
REMARK                            x       y       z     vdW  Elec       q    Type
REMARK                         _______ _______ _______ _____ _____    ______ ____
ROOT
ATOM      1  C   UNL     1       1.502  -6.987   2.293  0.00  0.00    +0.100 C 
ATOM      2  C   UNL     1       2.787  -7.175   1.455  0.00  0.00    +0.121 C 
ATOM      3  N   UNL     1       3.865  -7.351   2.457  0.00  0.00    -0.296 N 
ATOM      4  C   UNL     1       3.251  -8.189   3.515  0.00  0.00    +0.115 C 
ATOM      5  C   UNL     1       1.810  -7.656   3.643  0.00  0.00    -0.004 C 
ATOM      6  C   UNL     1       1.724  -6.634   4.771  0.00  0.00    -0.010 C 
ATOM      7  C   UNL     1       1.977  -7.335   6.109  0.00  0.00    -0.082 C 
ATOM      8  N   UNL     1       0.980  -8.394   6.305  0.00  0.00    +0.379 N 
ATOM      9  C   UNL     1       1.131  -9.421   5.267  0.00  0.00    -0.082 C 
ATOM     10  C   UNL     1       0.842  -8.809   3.894  0.00  0.00    -0.010 C 
ATOM     11  C   UNL     1       5.119  -6.861   2.415  0.00  0.00    +0.247 C 
ATOM     12  O   UNL     1       5.439  -6.082   1.538  0.00  0.00    -0.270 OA
ATOM     13  H   UNL     1       1.111  -8.814   7.213  0.00  0.00    -0.086 HD
ATOM     14  H   UNL     1       0.054  -7.997   6.252  0.00  0.00    -0.086 HD
ENDROOT
BRANCH  11  15
ATOM     15  C   UNL     1       6.106  -7.270   3.434  0.00  0.00    +0.037 A 
ATOM     16  C   UNL     1       5.917  -8.451   4.157  0.00  0.00    +0.016 A 
ATOM     17  C   UNL     1       6.840  -8.829   5.107  0.00  0.00    +0.047 A 
ATOM     18  C   UNL     1       7.957  -8.038   5.347  0.00  0.00    +0.130 A 
ATOM     19  C   UNL     1       8.148  -6.863   4.630  0.00  0.00    +0.047 A 
ATOM     20  C   UNL     1       7.233  -6.481   3.675  0.00  0.00    +0.016 A 
BRANCH  18  21
ATOM     21  O   UNL     1       8.864  -8.414   6.285  0.00  0.00    -0.406 OA
BRANCH  21  22
ATOM     22  C   UNL     1       9.988  -7.554   6.481  0.00  0.00    +0.575 C 
ATOM     23  F   UNL     1       9.544  -6.287   6.874  0.00  0.00    -0.133 F 
ATOM     24  F   UNL     1      10.815  -8.088   7.475  0.00  0.00    -0.133 F 
ATOM     25  F   UNL     1      10.707  -7.447   5.285  0.00  0.00    -0.133 F 
ENDBRANCH  21  22
ENDBRANCH  18  21
ENDBRANCH  11  15
BRANCH   1  27
ATOM     26  N   UNL     1      -0.044  -5.111   2.749  0.00  0.00    -0.315 N 
ATOM     27  C   UNL     1       1.213  -5.521   2.488  0.00  0.00    +0.218 C 
ATOM     28  O   UNL     1       2.111  -4.710   2.410  0.00  0.00    -0.275 OA
ATOM     29  H   UNL     1      -0.763  -5.760   2.811  0.00  0.00    +0.149 HD
BRANCH  26  30
ATOM     30  C   UNL     1      -0.325  -3.686   2.939  0.00  0.00    +0.109 C 
BRANCH  30  31
ATOM     31  C   UNL     1      -1.817  -3.493   3.220  0.00  0.00    +0.056 C 
BRANCH  31  36
ATOM     32  C   UNL     1      -2.401  -0.147   4.868  0.00  0.00    +0.000 A 
ATOM     33  C   UNL     1      -2.638   0.664   3.774  0.00  0.00    +0.003 A 
ATOM     34  C   UNL     1      -2.610   0.131   2.499  0.00  0.00    +0.038 A 
ATOM     35  C   UNL     1      -2.344  -1.216   2.318  0.00  0.00    +0.127 A 
ATOM     36  C   UNL     1      -2.106  -2.027   3.415  0.00  0.00    -0.011 A 
ATOM     37  C   UNL     1      -2.135  -1.492   4.689  0.00  0.00    +0.006 A 
ATOM     38  F   UNL     1      -2.316  -1.738   1.073  0.00  0.00    -0.205 F 
ENDBRANCH  31  36
ENDBRANCH  30  31
ENDBRANCH  26  30
ENDBRANCH   1  27
TORSDOF 7
