REMARK  Name = ZINC39548332
REMARK  7 active torsions:
REMARK  status: ('A' for Active; 'I' for Inactive)
REMARK    1  A    between atoms: C_1  and  C_2
REMARK    2  A    between atoms: C_2  and  C_30
REMARK    3  A    between atoms: N_5  and  C_9
REMARK    4  A    between atoms: C_9  and  C_10
REMARK    5  A    between atoms: N_12  and  C_13
REMARK    6  A    between atoms: C_13  and  C_15
REMARK    7  A    between atoms: C_13  and  C_21
REMARK                            x       y       z     vdW  Elec       q    Type
REMARK                         _______ _______ _______ _____ _____    ______ ____
ROOT
ATOM      1  C   UNL     1       4.020  -0.950  -1.644  0.00  0.00    +0.232 C 
ATOM      2  O   UNL     1       3.975   0.180  -1.206  0.00  0.00    -0.274 OA
ATOM      3  N   UNL     1       5.097  -1.360  -2.343  0.00  0.00    -0.300 N 
ATOM      4  H   UNL     1       5.133  -2.264  -2.693  0.00  0.00    +0.150 HD
ENDROOT
BRANCH   1   5
ATOM      5  C   UNL     1       2.871  -1.896  -1.406  0.00  0.00    +0.213 C 
BRANCH   5  10
ATOM      6  C   UNL     1      -0.019   1.526   0.010  0.00  0.00    +0.047 C 
ATOM      7  C   UNL     1       0.002  -0.004   0.002  0.00  0.00    +0.135 C 
ATOM      8  C   UNL     1       0.815  -0.520  -1.169  0.00  0.00    +0.251 C 
ATOM      9  O   UNL     1       0.595  -0.342  -2.348  0.00  0.00    -0.272 OA
ATOM     10  N   UNL     1       1.833  -1.217  -0.627  0.00  0.00    -0.215 N 
ATOM     11  C   UNL     1       1.777  -1.214   0.710  0.00  0.00    +0.310 C 
ATOM     12  O   UNL     1       2.586  -1.776   1.421  0.00  0.00    -0.252 OA
ATOM     13  N   UNL     1       0.724  -0.519   1.178  0.00  0.00    -0.281 N 
ATOM     14  H   UNL     1       0.487  -0.383   2.109  0.00  0.00    +0.152 HD
BRANCH   7  15
ATOM     15  C   UNL     1      -1.401  -0.551  -0.040  0.00  0.00    -0.015 A 
ATOM     16  C   UNL     1      -2.004  -0.815  -1.256  0.00  0.00    +0.009 A 
ATOM     17  C   UNL     1      -3.291  -1.317  -1.296  0.00  0.00    +0.039 A 
ATOM     18  C   UNL     1      -3.976  -1.557  -0.117  0.00  0.00    +0.123 A 
ATOM     19  C   UNL     1      -3.372  -1.293   1.100  0.00  0.00    +0.039 A 
ATOM     20  C   UNL     1      -2.083  -0.796   1.138  0.00  0.00    +0.009 A 
ATOM     21  F   UNL     1      -5.234  -2.048  -0.155  0.00  0.00    -0.205 F 
ENDBRANCH   7  15
ENDBRANCH   5  10
ENDBRANCH   1   5
BRANCH   3  22
ATOM     22  C   UNL     1       6.213  -0.440  -2.574  0.00  0.00    +0.169 C 
BRANCH  22  23
ATOM     23  C   UNL     1       6.959  -0.857  -3.816  0.00  0.00    +0.131 A 
ATOM     24  C   UNL     1       7.456  -0.014  -4.731  0.00  0.00    +0.055 A 
ATOM     25  C   UNL     1       8.093  -0.851  -5.755  0.00  0.00    +0.020 A 
ATOM     26  C   UNL     1       8.775  -0.589  -6.942  0.00  0.00    +0.011 A 
ATOM     27  C   UNL     1       9.259  -1.627  -7.688  0.00  0.00    +0.001 A 
ATOM     28  C   UNL     1       9.075  -2.938  -7.272  0.00  0.00    +0.004 A 
ATOM     29  C   UNL     1       8.403  -3.216  -6.101  0.00  0.00    +0.047 A 
ATOM     30  C   UNL     1       7.904  -2.175  -5.327  0.00  0.00    +0.135 A 
ATOM     31  O   UNL     1       7.226  -2.128  -4.163  0.00  0.00    -0.457 OA
ENDBRANCH  22  23
BRANCH  22  32
ATOM     32  C   UNL     1       7.147  -0.476  -1.392  0.00  0.00    -0.020 A 
ATOM     33  C   UNL     1       7.438  -1.680  -0.778  0.00  0.00    +0.006 A 
ATOM     34  C   UNL     1       8.295  -1.713   0.307  0.00  0.00    +0.000 A 
ATOM     35  C   UNL     1       8.861  -0.543   0.777  0.00  0.00    +0.000 A 
ATOM     36  C   UNL     1       8.570   0.661   0.162  0.00  0.00    +0.000 A 
ATOM     37  C   UNL     1       7.717   0.694  -0.925  0.00  0.00    +0.006 A 
ENDBRANCH  22  32
ENDBRANCH   3  22
TORSDOF 6
