REMARK  Name = ZINC35693552
REMARK  12 active torsions:
REMARK  status: ('A' for Active; 'I' for Inactive)
REMARK    1  A    between atoms: C_1  and  C_2
REMARK    2  A    between atoms: C_2  and  O_3
REMARK    3  A    between atoms: O_3  and  C_4
REMARK    4  A    between atoms: C_4  and  C_6
REMARK    5  A    between atoms: C_7  and  C_35
REMARK    6  A    between atoms: C_11  and  C_13
REMARK    7  A    between atoms: C_15  and  C_20
REMARK    8  A    between atoms: C_18  and  C_19
REMARK    9  A    between atoms: C_21  and  C_24
REMARK   10  A    between atoms: C_25  and  N_27
REMARK   11  A    between atoms: N_27  and  C_28
REMARK   12  A    between atoms: C_28  and  C_29
REMARK                            x       y       z     vdW  Elec       q    Type
REMARK                         _______ _______ _______ _____ _____    ______ ____
ROOT
ATOM      1  C   UNL     1       1.390  -2.164  -2.550  0.00  0.00    +0.082 C 
ATOM      2  C   UNL     1       1.600  -3.515  -2.748  0.00  0.00    +0.053 C 
ATOM      3  N   UNL     1       2.276  -3.941  -3.803  0.00  0.00    -0.230 NA
ATOM      4  C   UNL     1       2.794  -3.160  -4.729  0.00  0.00    +0.166 C 
ATOM      5  N   UNL     1       2.697  -1.797  -4.718  0.00  0.00    -0.267 N 
ATOM      6  C   UNL     1       1.950  -1.205  -3.576  0.00  0.00    +0.150 C 
ATOM      7  C   UNL     1       3.294  -1.118  -5.762  0.00  0.00    +0.048 C 
ATOM      8  C   UNL     1       3.923  -1.850  -6.708  0.00  0.00    +0.072 C 
ATOM      9  S   UNL     1       3.670  -3.512  -6.117  0.00  0.00    -0.060 S 
ATOM     10  C   UNL     1       1.056  -4.511  -1.757  0.00  0.00    +0.066 C 
ENDROOT
BRANCH   6  11
ATOM     11  C   UNL     1       0.805  -0.399  -4.133  0.00  0.00    -0.019 A 
ATOM     12  C   UNL     1       0.124  -0.846  -5.250  0.00  0.00    +0.009 A 
ATOM     13  C   UNL     1      -0.926  -0.107  -5.761  0.00  0.00    -0.050 A 
ATOM     14  C   UNL     1      -1.296   1.079  -5.154  0.00  0.00    +0.003 A 
ATOM     15  C   UNL     1      -0.617   1.525  -4.037  0.00  0.00    +0.004 A 
ATOM     16  C   UNL     1       0.431   0.783  -3.523  0.00  0.00    -0.045 A 
ATOM     17  C   UNL     1       1.169   1.267  -2.301  0.00  0.00    +0.044 C 
ATOM     18  C   UNL     1      -1.667  -0.594  -6.980  0.00  0.00    +0.044 C 
ENDBRANCH   6  11
BRANCH   7  19
ATOM     19  C   UNL     1       3.246   0.349  -5.842  0.00  0.00    +0.091 C 
ATOM     20  C   UNL     1       3.704   0.979  -6.941  0.00  0.00    +0.239 C 
ATOM     21  O   UNL     1       4.082   0.260  -8.026  0.00  0.00    -0.271 OA
BRANCH  20  22
ATOM     22  N   UNL     1       3.789   2.361  -6.962  0.00  0.00    -0.308 N 
ATOM     23  H   UNL     1       3.589   2.871  -6.162  0.00  0.00    +0.149 HD
BRANCH  22  24
ATOM     24  C   UNL     1       4.182   3.052  -8.193  0.00  0.00    +0.141 C 
BRANCH  24  25
ATOM     25  C   UNL     1       4.317   4.527  -7.919  0.00  0.00    -0.012 A 
ATOM     26  C   UNL     1       3.226   5.371  -8.065  0.00  0.00    +0.008 A 
ATOM     27  C   UNL     1       3.397   6.722  -7.803  0.00  0.00    +0.020 A 
ATOM     28  C   UNL     1       4.639   7.179  -7.406  0.00  0.00    +0.111 A 
ATOM     29  N   UNL     1       5.655   6.348  -7.278  0.00  0.00    -0.263 NA
ATOM     30  C   UNL     1       5.528   5.056  -7.513  0.00  0.00    +0.115 A 
ENDBRANCH  24  25
ENDBRANCH  22  24
ENDBRANCH  20  22
ENDBRANCH   7  19
BRANCH   1  31
ATOM     31  C   UNL     1       0.676  -1.698  -1.439  0.00  0.00    +0.339 C 
ATOM     32  O   UNL     1      -0.470  -1.307  -1.571  0.00  0.00    -0.245 OA
BRANCH  31  33
ATOM     33  O   UNL     1       1.259  -1.683  -0.220  0.00  0.00    -0.462 OA
BRANCH  33  35
ATOM     34  C   UNL     1       1.294  -1.223   2.152  0.00  0.00    +0.048 C 
ATOM     35  C   UNL     1       0.439  -1.301   0.886  0.00  0.00    +0.229 C 
ENDBRANCH  33  35
ENDBRANCH  31  33
ENDBRANCH   1  31
TORSDOF 8
