REMARK  Name = ZINC02441272
REMARK  9 active torsions:
REMARK  status: ('A' for Active; 'I' for Inactive)
REMARK    1  A    between atoms: C_1  and  C_2
REMARK    2  A    between atoms: C_2  and  O_3
REMARK    3  A    between atoms: O_3  and  C_4
REMARK    4  A    between atoms: C_4  and  C_6
REMARK    5  A    between atoms: C_7  and  N_38
REMARK    6  A    between atoms: C_21  and  C_31
REMARK    7  A    between atoms: C_21  and  C_32
REMARK    8  A    between atoms: C_23  and  C_24
REMARK    9  A    between atoms: C_23  and  C_25
REMARK                            x       y       z     vdW  Elec       q    Type
REMARK                         _______ _______ _______ _____ _____    ______ ____
ROOT
ATOM      1  C   UNL     1      -0.597   4.146  -1.691  0.00  0.00    +0.117 C 
ATOM      2  C   UNL     1      -1.599   5.065  -1.672  0.00  0.00    +0.195 C 
ATOM      3  O   UNL     1      -2.453   5.143  -0.641  0.00  0.00    -0.446 OA
ATOM      4  C   UNL     1      -2.112   4.638   0.559  0.00  0.00    +0.115 C 
ATOM      5  C   UNL     1      -1.155   3.698   0.677  0.00  0.00    +0.057 C 
ATOM      6  C   UNL     1      -0.424   3.197  -0.541  0.00  0.00    +0.141 C 
ATOM      7  C   UNL     1      -0.874   1.820  -0.911  0.00  0.00    -0.001 A 
ATOM      8  C   UNL     1      -2.074   1.268  -1.302  0.00  0.00    +0.007 A 
ATOM      9  C   UNL     1      -2.087  -0.100  -1.563  0.00  0.00    +0.001 A 
ATOM     10  C   UNL     1      -0.956  -0.893  -1.437  0.00  0.00    +0.006 A 
ATOM     11  C   UNL     1       0.244  -0.346  -1.051  0.00  0.00    -0.015 A 
ATOM     12  C   UNL     1       0.257   1.024  -0.790  0.00  0.00    +0.046 A 
ATOM     13  N   UNL     1       1.374   1.753  -0.392  0.00  0.00    -0.264 N 
ATOM     14  C   UNL     1       1.054   3.045  -0.218  0.00  0.00    +0.240 C 
ATOM     15  O   UNL     1       1.806   3.929   0.132  0.00  0.00    -0.274 OA
ATOM     16  C   UNL     1       2.675   1.083  -0.221  0.00  0.00    +0.038 C 
ATOM     17  C   UNL     1       2.713  -0.140  -1.145  0.00  0.00    +0.041 C 
ATOM     18  C   UNL     1       1.538  -1.088  -0.884  0.00  0.00    +0.022 C 
ATOM     19  C   UNL     1       1.631  -1.634   0.542  0.00  0.00    +0.021 C 
ATOM     20  C   UNL     1       2.838   0.636   1.233  0.00  0.00    +0.032 C 
ATOM     21  C   UNL     1       3.804   2.046  -0.595  0.00  0.00    +0.032 C 
ATOM     22  C   UNL     1      -0.812   3.157   1.932  0.00  0.00    +0.164 C 
ATOM     23  O   UNL     1       0.066   2.321   2.000  0.00  0.00    -0.292 OA
ATOM     24  C   UNL     1      -1.514   3.595   3.188  0.00  0.00    +0.080 C 
ATOM     25  C   UNL     1      -2.933   4.048   2.830  0.00  0.00    +0.016 C 
ATOM     26  C   UNL     1      -2.838   5.155   1.778  0.00  0.00    +0.075 C 
ENDROOT
BRANCH  18  27
ATOM     27  C   UNL     1       1.590  -2.233  -1.863  0.00  0.00    -0.037 A 
ATOM     28  C   UNL     1       1.850  -3.514  -1.414  0.00  0.00    +0.004 A 
ATOM     29  C   UNL     1       1.892  -4.565  -2.311  0.00  0.00    +0.000 A 
ATOM     30  C   UNL     1       1.686  -4.333  -3.658  0.00  0.00    +0.000 A 
ATOM     31  C   UNL     1       1.431  -3.050  -4.107  0.00  0.00    +0.000 A 
ATOM     32  C   UNL     1       1.383  -2.001  -3.209  0.00  0.00    +0.004 A 
ENDBRANCH  18  27
BRANCH   2  33
ATOM     33  N   UNL     1      -1.738   5.928  -2.725  0.00  0.00    -0.329 N 
ATOM     34  H   UNL     1      -2.399   6.637  -2.687  0.00  0.00    +0.145 HD
ATOM     35  H   UNL     1      -1.176   5.830  -3.510  0.00  0.00    +0.145 HD
ENDBRANCH   2  33
BRANCH   1  36
ATOM     36  C   UNL     1       0.278   4.085  -2.787  0.00  0.00    +0.342 C 
ATOM     37  O   UNL     1       0.132   3.223  -3.635  0.00  0.00    -0.245 OA
BRANCH  36  38
ATOM     38  O   UNL     1       1.280   4.983  -2.902  0.00  0.00    -0.462 OA
BRANCH  38  40
ATOM     39  C   UNL     1       3.213   5.936  -3.995  0.00  0.00    +0.048 C 
ATOM     40  C   UNL     1       2.066   4.928  -4.094  0.00  0.00    +0.229 C 
ENDBRANCH  38  40
ENDBRANCH  36  38
ENDBRANCH   1  36
TORSDOF 5
