REMARK  Name = ZINC44882327
REMARK  8 active torsions:
REMARK  status: ('A' for Active; 'I' for Inactive)
REMARK    1  A    between atoms: C_1  and  O_2
REMARK    2  A    between atoms: O_2  and  C_3
REMARK    3  A    between atoms: C_6  and  S_27
REMARK    4  A    between atoms: C_8  and  N_9
REMARK    5  A    between atoms: C_10  and  C_12
REMARK    6  A    between atoms: N_17  and  C_19
REMARK    7  A    between atoms: C_19  and  C_20
REMARK    8  A    between atoms: S_27  and  N_30
REMARK                            x       y       z     vdW  Elec       q    Type
REMARK                         _______ _______ _______ _____ _____    ______ ____
ROOT
ATOM      1  N   UNL     1       0.095  -2.777  -0.112  0.00  0.00    -0.282 N 
ATOM      2  C   UNL     1       0.060  -4.119  -0.233  0.00  0.00    +0.219 C 
ATOM      3  O   UNL     1       0.599  -4.658  -1.176  0.00  0.00    -0.275 OA
ATOM      4  H   UNL     1      -0.279  -2.351   0.674  0.00  0.00    +0.155 HD
ENDROOT
BRANCH   2   5
ATOM      5  C   UNL     1      -0.648  -4.951   0.806  0.00  0.00    +0.059 C 
ATOM      6  C   UNL     1      -0.001  -4.721   2.174  0.00  0.00    +0.009 C 
ATOM      7  C   UNL     1      -0.676  -5.628   3.207  0.00  0.00    -0.018 C 
ATOM      8  C   UNL     1      -0.564  -7.084   2.749  0.00  0.00    -0.078 C 
ATOM      9  N   UNL     1      -1.225  -7.244   1.448  0.00  0.00    +0.383 N 
ATOM     10  C   UNL     1      -0.538  -6.432   0.436  0.00  0.00    -0.066 C 
ATOM     11  H   UNL     1      -2.186  -6.946   1.521  0.00  0.00    -0.081 HD
BRANCH   9  12
ATOM     12  C   UNL     1      -1.183  -8.657   1.050  0.00  0.00    -0.040 C 
BRANCH  12  13
ATOM     13  C   UNL     1      -2.000  -9.476   2.016  0.00  0.00    -0.029 A 
ATOM     14  C   UNL     1      -1.373 -10.180   3.027  0.00  0.00    +0.004 A 
ATOM     15  C   UNL     1      -2.123 -10.931   3.914  0.00  0.00    +0.000 A 
ATOM     16  C   UNL     1      -3.499 -10.979   3.790  0.00  0.00    +0.003 A 
ATOM     17  C   UNL     1      -4.127 -10.276   2.780  0.00  0.00    +0.038 A 
ATOM     18  C   UNL     1      -3.378  -9.519   1.894  0.00  0.00    +0.125 A 
ATOM     19  F   UNL     1      -3.992  -8.827   0.909  0.00  0.00    -0.205 F 
ENDBRANCH  12  13
ENDBRANCH   9  12
ENDBRANCH   2   5
BRANCH   1  25
ATOM     20  C   UNL     1       0.143  -0.746  -1.429  0.00  0.00    +0.141 A 
ATOM     21  C   UNL     1       0.721   0.022  -2.427  0.00  0.00    +0.049 A 
ATOM     22  C   UNL     1       1.817  -0.456  -3.120  0.00  0.00    +0.032 A 
ATOM     23  C   UNL     1       2.340  -1.701  -2.821  0.00  0.00    +0.107 A 
ATOM     24  C   UNL     1       1.769  -2.473  -1.827  0.00  0.00    +0.055 A 
ATOM     25  C   UNL     1       0.672  -1.998  -1.124  0.00  0.00    +0.077 A 
BRANCH  23  26
ATOM     26  S   UNL     1       3.736  -2.304  -3.710  0.00  0.00    +0.061 S 
ATOM     27  O   UNL     1       3.698  -3.721  -3.614  0.00  0.00    -0.153 OA
ATOM     28  O   UNL     1       3.748  -1.625  -4.958  0.00  0.00    -0.153 OA
BRANCH  26  29
ATOM     29  N   UNL     1       5.088  -1.810  -2.891  0.00  0.00    -0.177 NA
ATOM     30  C   UNL     1       5.721  -0.520  -3.199  0.00  0.00    +0.109 C 
ATOM     31  C   UNL     1       5.856   0.284  -1.903  0.00  0.00    +0.017 C 
ATOM     32  C   UNL     1       6.607  -0.552  -0.864  0.00  0.00    +0.003 C 
ATOM     33  C   UNL     1       5.814  -1.825  -0.561  0.00  0.00    +0.017 C 
ATOM     34  C   UNL     1       5.675  -2.651  -1.839  0.00  0.00    +0.109 C 
ENDBRANCH  26  29
ENDBRANCH  23  26
BRANCH  20  36
ATOM     35  C   UNL     1      -1.424   1.014  -1.113  0.00  0.00    +0.277 C 
ATOM     36  O   UNL     1      -0.935  -0.278  -0.746  0.00  0.00    -0.493 OA
ENDBRANCH  20  36
ENDBRANCH   1  25
TORSDOF 7
