REMARK  Name = ZINC28947619
REMARK  7 active torsions:
REMARK  status: ('A' for Active; 'I' for Inactive)
REMARK    1  A    between atoms: C_1  and  N_2
REMARK    2  A    between atoms: C_6  and  C_7
REMARK    3  A    between atoms: C_7  and  C_9
REMARK    4  A    between atoms: C_7  and  N_16
REMARK    5  A    between atoms: C_17  and  C_19
REMARK    6  A    between atoms: C_19  and  N_20
REMARK    7  A    between atoms: C_21  and  C_26
REMARK                            x       y       z     vdW  Elec       q    Type
REMARK                         _______ _______ _______ _____ _____    ______ ____
ROOT
ATOM      1  N   UNL     1      -2.486   3.583   1.571  0.00  0.00    -0.300 N 
ATOM      2  C   UNL     1      -1.487   2.706   1.353  0.00  0.00    +0.234 C 
ATOM      3  O   UNL     1      -0.972   2.128   2.286  0.00  0.00    -0.274 OA
ATOM      4  H   UNL     1      -2.953   4.107   0.724  0.00  0.00    +0.150 HD
ENDROOT
BRANCH   1   5
ATOM      5  C   UNL     1      -2.950   3.839   2.937  0.00  0.00    +0.169 C 
BRANCH   5   6
ATOM      6  C   UNL     1      -4.378   4.322   2.900  0.00  0.00    -0.020 A 
ATOM      7  C   UNL     1      -4.782   5.208   1.919  0.00  0.00    +0.007 A 
ATOM      8  C   UNL     1      -6.093   5.646   1.882  0.00  0.00    +0.020 A 
ATOM      9  C   UNL     1      -6.997   5.206   2.833  0.00  0.00    +0.041 A 
ATOM     10  C   UNL     1      -6.589   4.324   3.817  0.00  0.00    +0.020 A 
ATOM     11  C   UNL     1      -5.280   3.882   3.850  0.00  0.00    +0.007 A 
ATOM     12 CL   UNL     1      -8.641   5.762   2.791  0.00  0.00    -0.084 Cl
ENDBRANCH   5   6
BRANCH   5  18
ATOM     13  C   UNL     1      -1.761   3.763   5.797  0.00  0.00    +0.150 C 
ATOM     14  N   UNL     1      -1.570   4.841   4.823  0.00  0.00    -0.336 N 
ATOM     15  C   UNL     1      -0.843   5.986   5.010  0.00  0.00    +0.106 A 
ATOM     16  C   UNL     1      -0.933   6.696   3.870  0.00  0.00    +0.130 A 
ATOM     17  N   UNL     1      -1.691   6.002   3.008  0.00  0.00    -0.238 NA
ATOM     18  C   UNL     1      -2.081   4.892   3.574  0.00  0.00    +0.134 A 
ENDBRANCH   5  18
ENDBRANCH   1   5
BRANCH   2  19
ATOM     19  C   UNL     1      -1.009   2.443  -0.052  0.00  0.00    +0.221 C 
BRANCH  19  20
ATOM     20  N   UNL     1       0.076   1.458  -0.023  0.00  0.00    -0.293 N 
ATOM     21  C   UNL     1       1.425   1.744   0.047  0.00  0.00    +0.165 A 
ATOM     22  N   UNL     1       2.086   0.620   0.048  0.00  0.00    -0.128 NA
ATOM     23  N   UNL     1       1.160  -0.429  -0.023  0.00  0.00    -0.121 NA
ATOM     24  C   UNL     1      -0.072   0.119  -0.065  0.00  0.00    +0.203 A 
ATOM     25  S   UNL     1      -1.554  -0.732  -0.157  0.00  0.00    -0.009 SA
BRANCH  21  26
ATOM     26  C   UNL     1       2.020   3.097   0.110  0.00  0.00    +0.019 A 
ATOM     27  C   UNL     1       1.250   4.182   0.530  0.00  0.00    +0.013 A 
ATOM     28  C   UNL     1       1.812   5.440   0.592  0.00  0.00    +0.021 A 
ATOM     29  C   UNL     1       3.134   5.629   0.228  0.00  0.00    +0.041 A 
ATOM     30  C   UNL     1       3.902   4.557  -0.194  0.00  0.00    +0.021 A 
ATOM     31  C   UNL     1       3.352   3.293  -0.255  0.00  0.00    +0.013 A 
ATOM     32 CL   UNL     1       3.832   7.217   0.302  0.00  0.00    -0.084 Cl
ENDBRANCH  21  26
ENDBRANCH  19  20
ENDBRANCH   2  19
TORSDOF 6
