REMARK  Name = ZINC64182193
REMARK  6 active torsions:
REMARK  status: ('A' for Active; 'I' for Inactive)
REMARK    1  A    between atoms: C_1  and  C_2
REMARK    2  A    between atoms: C_4  and  C_13
REMARK    3  A    between atoms: C_6  and  S_9
REMARK    4  A    between atoms: C_7  and  C_8
REMARK    5  A    between atoms: S_9  and  N_12
REMARK    6  A    between atoms: C_18  and  C_21
REMARK                            x       y       z     vdW  Elec       q    Type
REMARK                         _______ _______ _______ _____ _____    ______ ____
ROOT
ATOM      1  C   UNL     1       0.027  -2.835  -2.494  0.00  0.00    +0.247 C 
ATOM      2  O   UNL     1       0.135  -4.046  -2.512  0.00  0.00    -0.270 OA
ATOM      3  N   UNL     1      -0.089  -2.152  -3.650  0.00  0.00    -0.293 N 
ATOM      4  C   UNL     1      -0.188  -2.848  -4.944  0.00  0.00    +0.113 C 
ATOM      5  C   UNL     1      -1.549  -2.513  -5.559  0.00  0.00    +0.054 C 
ATOM      6  C   UNL     1      -1.822  -1.042  -5.455  0.00  0.00    -0.043 C 
ATOM      7  C   UNL     1      -1.199  -0.225  -4.614  0.00  0.00    -0.004 C 
ATOM      8  C   UNL     1      -0.129  -0.683  -3.667  0.00  0.00    +0.135 C 
ENDROOT
BRANCH   6   9
ATOM      9  C   UNL     1      -2.803  -0.490  -6.305  0.00  0.00    -0.016 C 
ATOM     10  C   UNL     1      -3.647  -1.177  -7.169  0.00  0.00    +0.003 A 
ATOM     11  C   UNL     1      -3.798  -2.551  -7.466  0.00  0.00    +0.010 A 
ATOM     12  C   UNL     1      -4.725  -2.945  -8.374  0.00  0.00    +0.001 A 
ATOM     13  C   UNL     1      -5.545  -2.022  -9.032  0.00  0.00    +0.002 A 
ATOM     14  C   UNL     1      -5.456  -0.692  -8.799  0.00  0.00    +0.026 A 
ATOM     15  C   UNL     1      -4.508  -0.201  -7.861  0.00  0.00    +0.043 A 
ATOM     16  N   UNL     1      -4.230   1.022  -7.462  0.00  0.00    -0.380 N 
ATOM     17  C   UNL     1      -3.159   0.971  -6.462  0.00  0.00    +0.149 C 
ATOM     18  H   UNL     1      -4.667   1.829  -7.777  0.00  0.00    +0.160 HD
ENDBRANCH   6   9
BRANCH   1  22
ATOM     19  C   UNL     1       1.530   1.015   0.302  0.00  0.00    +0.044 C 
ATOM     20  C   UNL     1       0.744  -0.261   0.145  0.00  0.00    -0.045 A 
ATOM     21  C   UNL     1       0.752  -0.931  -1.061  0.00  0.00    +0.016 A 
ATOM     22  C   UNL     1       0.024  -2.113  -1.204  0.00  0.00    +0.039 A 
ATOM     23  C   UNL     1      -0.709  -2.609  -0.125  0.00  0.00    +0.041 A 
ATOM     24  C   UNL     1      -0.708  -1.930   1.076  0.00  0.00    +0.109 A 
ATOM     25  C   UNL     1       0.020  -0.762   1.213  0.00  0.00    -0.021 A 
ATOM     26  C   UNL     1       0.021  -0.028   2.529  0.00  0.00    +0.046 C 
BRANCH  24  27
ATOM     27  S   UNL     1      -1.632  -2.555   2.440  0.00  0.00    +0.056 S 
ATOM     28  O   UNL     1      -2.391  -1.467   2.949  0.00  0.00    -0.153 OA
ATOM     29  O   UNL     1      -2.235  -3.765   2.002  0.00  0.00    -0.153 OA
BRANCH  27  30
ATOM     30  N   UNL     1      -0.546  -2.968   3.619  0.00  0.00    -0.204 NA
ATOM     31  H   UNL     1       0.404  -2.842   3.469  0.00  0.00    +0.144 HD
ATOM     32  H   UNL     1      -0.859  -3.336   4.460  0.00  0.00    +0.144 HD
ENDBRANCH  27  30
ENDBRANCH  24  27
ENDBRANCH   1  22
TORSDOF 4
