REMARK  Name = ZINC10031261
REMARK  12 active torsions:
REMARK  status: ('A' for Active; 'I' for Inactive)
REMARK    1  A    between atoms: C_1  and  O_2
REMARK    2  A    between atoms: O_2  and  C_3
REMARK    3  A    between atoms: C_6  and  S_9
REMARK    4  A    between atoms: S_9  and  C_10
REMARK    5  A    between atoms: C_10  and  C_11
REMARK    6  A    between atoms: C_11  and  C_12
REMARK    7  A    between atoms: N_14  and  C_15
REMARK    8  A    between atoms: C_16  and  C_30
REMARK    9  A    between atoms: C_23  and  C_24
REMARK   10  A    between atoms: C_23  and  N_62
REMARK   11  A    between atoms: C_30  and  O_32
REMARK   12  A    between atoms: O_32  and  C_33
REMARK                            x       y       z     vdW  Elec       q    Type
REMARK                         _______ _______ _______ _____ _____    ______ ____
ROOT
ATOM      1  C   UNL     1       2.655   5.804  -6.073  0.00  0.00    +0.086 A 
ATOM      2  C   UNL     1       3.767   5.680  -5.249  0.00  0.00    +0.091 A 
ATOM      3  C   UNL     1       3.535   5.293  -3.869  0.00  0.00    -0.025 A 
ATOM      4  C   UNL     1       2.241   5.092  -3.535  0.00  0.00    -0.021 A 
ATOM      5  S   UNL     1       1.335   5.411  -5.021  0.00  0.00    -0.079 S 
ATOM      6  C   UNL     1       1.723   4.687  -2.190  0.00  0.00    -0.035 C 
ATOM      7  C   UNL     1       3.982   5.141  -1.440  0.00  0.00    -0.073 C 
ATOM      8  C   UNL     1       4.632   5.111  -2.826  0.00  0.00    +0.018 C 
ATOM      9  N   UNL     1       2.867   4.171  -1.400  0.00  0.00    +0.386 N 
ATOM     10  H   UNL     1       3.182   3.283  -1.808  0.00  0.00    -0.081 HD
ENDROOT
BRANCH   1  13
ATOM     11  C   UNL     1       1.428   6.227  -8.054  0.00  0.00    +0.218 C 
ATOM     12  O   UNL     1       0.401   5.980  -7.458  0.00  0.00    -0.275 OA
ATOM     13  N   UNL     1       2.612   6.157  -7.413  0.00  0.00    -0.279 N 
ATOM     14  H   UNL     1       3.433   6.355  -7.889  0.00  0.00    +0.155 HD
BRANCH  11  15
ATOM     15  C   UNL     1       1.381   6.611  -9.510  0.00  0.00    +0.107 C 
BRANCH  15  16
ATOM     16  C   UNL     1      -0.071   6.614  -9.990  0.00  0.00    +0.083 C 
BRANCH  16  17
ATOM     17  S   UNL     1      -0.128   7.077 -11.743  0.00  0.00    -0.125 S 
BRANCH  17  21
ATOM     18  C   UNL     1      -4.541   6.969 -12.764  0.00  0.00    +0.120 A 
ATOM     19  C   UNL     1      -3.613   7.308 -13.737  0.00  0.00    +0.047 A 
ATOM     20  C   UNL     1      -2.268   7.342 -13.427  0.00  0.00    +0.018 A 
ATOM     21  C   UNL     1      -1.844   7.035 -12.140  0.00  0.00    +0.008 A 
ATOM     22  C   UNL     1      -2.774   6.690 -11.168  0.00  0.00    +0.018 A 
ATOM     23  C   UNL     1      -4.119   6.662 -11.479  0.00  0.00    +0.047 A 
BRANCH  18  25
ATOM     24  C   UNL     1      -6.766   6.579 -12.020  0.00  0.00    +0.277 C 
ATOM     25  O   UNL     1      -5.866   6.937 -13.070  0.00  0.00    -0.495 OA
ENDBRANCH  18  25
ENDBRANCH  17  21
ENDBRANCH  16  17
ENDBRANCH  15  16
ENDBRANCH  11  15
ENDBRANCH   1  13
BRANCH   2  26
ATOM     26  C   UNL     1       5.119   5.930  -5.752  0.00  0.00    +0.342 C 
ATOM     27  O   UNL     1       5.768   5.019  -6.231  0.00  0.00    -0.245 OA
BRANCH  26  28
ATOM     28  O   UNL     1       5.645   7.170  -5.684  0.00  0.00    -0.464 OA
ATOM     29  C   UNL     1       6.990   7.344  -6.202  0.00  0.00    +0.280 C 
ENDBRANCH  26  28
ENDBRANCH   2  26
BRANCH   9  30
ATOM     30  C   UNL     1       2.451   3.937  -0.001  0.00  0.00    -0.043 C 
BRANCH  30  31
ATOM     31  C   UNL     1       1.156   3.165   0.008  0.00  0.00    -0.064 A 
ATOM     32  C   UNL     1       1.175   1.783   0.000  0.00  0.00    +0.002 A 
ATOM     33  C   UNL     1      -0.013   1.076   0.008  0.00  0.00    +0.000 A 
ATOM     34  C   UNL     1      -1.219   1.751   0.017  0.00  0.00    +0.000 A 
ATOM     35  C   UNL     1      -1.238   3.133   0.030  0.00  0.00    +0.000 A 
ATOM     36  C   UNL     1      -0.050   3.840   0.023  0.00  0.00    +0.002 A 
ENDBRANCH  30  31
ENDBRANCH   9  30
TORSDOF 10
