REMARK  Name = ZINC39469265
REMARK  3 active torsions:
REMARK  status: ('A' for Active; 'I' for Inactive)
REMARK    1  A    between atoms: C_4  and  O_7
REMARK    2  A    between atoms: O_7  and  S_8
REMARK    3  A    between atoms: S_8  and  C_11
REMARK                            x       y       z     vdW  Elec       q    Type
REMARK                         _______ _______ _______ _____ _____    ______ ____
ROOT
ATOM      1  C   UNL     1       3.071  -2.384   1.880  0.00  0.00    +0.159 C 
ATOM      2  C   UNL     1       3.652  -3.562   2.105  0.00  0.00    +0.010 C 
ATOM      3  C   UNL     1       2.799  -4.717   2.553  0.00  0.00    +0.018 C 
ATOM      4  C   UNL     1       3.622  -5.773   3.283  0.00  0.00    -0.003 C 
ATOM      5  C   UNL     1       2.698  -6.907   3.750  0.00  0.00    -0.020 C 
ATOM      6  C   UNL     1       3.569  -7.926   4.496  0.00  0.00    +0.159 C 
ATOM      7  O   UNL     1       2.761  -9.055   4.877  0.00  0.00    -0.297 OA
ATOM      8  P   UNL     1       1.359  -8.757   5.648  0.00  0.00    +0.421 P 
ATOM      9  O   UNL     1       1.619  -8.487   7.147  0.00  0.00    -0.239 OA
ATOM     10  N   UNL     1       0.743  -7.408   4.922  0.00  0.00    -0.267 NA
ATOM     11  N   UNL     1       1.636  -6.400   4.618  0.00  0.00    +0.399 N 
ATOM     12  C   UNL     1       0.842  -5.357   3.945  0.00  0.00    -0.046 C 
ATOM     13  C   UNL     1       1.731  -4.196   3.523  0.00  0.00    +0.007 C 
ATOM     14  C   UNL     1       0.958  -3.096   2.849  0.00  0.00    +0.016 C 
ATOM     15  C   UNL     1       1.615  -2.239   2.067  0.00  0.00    +0.148 C 
ATOM     16  F   UNL     1       0.946  -1.244   1.443  0.00  0.00    -0.204 F 
ATOM     17  O   UNL     1       0.391  -9.949   5.479  0.00  0.00    -0.128 OA
ATOM     18  H   UNL     1      -0.204  -7.329   4.729  0.00  0.00    +0.113 HD
ATOM     19  H   UNL     1       2.042  -6.024   5.462  0.00  0.00    -0.055 HD
ENDROOT
BRANCH   1  20
ATOM     20  S   UNL     1       4.038  -1.003   1.368  0.00  0.00    +0.153 S 
ATOM     21  O   UNL     1       5.394  -1.429   1.385  0.00  0.00    -0.131 OA
ATOM     22  O   UNL     1       3.581   0.114   2.119  0.00  0.00    -0.131 OA
BRANCH  20  23
ATOM     23  O   UNL     1       3.688  -0.722  -0.086  0.00  0.00    -0.342 OA
BRANCH  23  27
ATOM     24  C   UNL     1       5.318  -3.413  -2.755  0.00  0.00    +0.000 A 
ATOM     25  C   UNL     1       4.078  -3.660  -2.196  0.00  0.00    +0.004 A 
ATOM     26  C   UNL     1       3.530  -2.761  -1.302  0.00  0.00    +0.048 A 
ATOM     27  C   UNL     1       4.225  -1.609  -0.965  0.00  0.00    +0.157 A 
ATOM     28  C   UNL     1       5.470  -1.363  -1.527  0.00  0.00    +0.048 A 
ATOM     29  C   UNL     1       6.013  -2.265  -2.421  0.00  0.00    +0.004 A 
ENDBRANCH  23  27
ENDBRANCH  20  23
ENDBRANCH   1  20
TORSDOF 3
