REMARK  Name = ZINC09635818
REMARK  8 active torsions:
REMARK  status: ('A' for Active; 'I' for Inactive)
REMARK    1  A    between atoms: C_4  and  C_7
REMARK    2  A    between atoms: C_7  and  O_8
REMARK    3  A    between atoms: O_8  and  C_9
REMARK    4  A    between atoms: C_18  and  C_30
REMARK    5  A    between atoms: C_20  and  C_26
REMARK    6  A    between atoms: C_20  and  C_28
REMARK    7  A    between atoms: C_21  and  N_25
REMARK    8  A    between atoms: C_22  and  C_23
REMARK                            x       y       z     vdW  Elec       q    Type
REMARK                         _______ _______ _______ _____ _____    ______ ____
ROOT
ATOM      1  C   UNL     1       0.595   1.681  -0.602  0.00  0.00    +0.403 C 
ATOM      2  O   UNL     1      -0.506   2.192  -0.659  0.00  0.00    -0.226 OA
ATOM      3  N   UNL     1       1.676   2.440  -0.336  0.00  0.00    -0.263 N 
ATOM      4  C   UNL     1       3.027   1.854  -0.259  0.00  0.00    +0.138 C 
ATOM      5  C   UNL     1       3.564   2.188   1.108  0.00  0.00    -0.003 C 
ATOM      6  C   UNL     1       3.185   3.280   1.744  0.00  0.00    -0.026 C 
ATOM      7  C   UNL     1       2.214   4.284   1.199  0.00  0.00    +0.048 C 
ATOM      8  C   UNL     1       1.559   3.884  -0.104  0.00  0.00    +0.120 C 
ATOM      9  C   UNL     1       1.181   4.568   2.291  0.00  0.00    +0.071 C 
ATOM     10  C   UNL     1       1.891   5.237   3.475  0.00  0.00    +0.188 C 
ATOM     11  C   UNL     1       3.080   4.434   3.909  0.00  0.00    +0.054 C 
ATOM     12  C   UNL     1       3.704   3.527   3.116  0.00  0.00    +0.074 C 
ENDROOT
BRANCH   9  13
ATOM     13  C   UNL     1       0.129   5.506   1.759  0.00  0.00    -0.006 A 
ATOM     14  C   UNL     1       0.501   6.693   1.156  0.00  0.00    +0.007 A 
ATOM     15  C   UNL     1      -0.464   7.551   0.662  0.00  0.00    +0.000 A 
ATOM     16  C   UNL     1      -1.803   7.229   0.782  0.00  0.00    +0.003 A 
ATOM     17  C   UNL     1      -2.178   6.046   1.391  0.00  0.00    +0.038 A 
ATOM     18  C   UNL     1      -1.212   5.183   1.880  0.00  0.00    +0.127 A 
ATOM     19  F   UNL     1      -1.578   4.027   2.475  0.00  0.00    -0.205 F 
ENDBRANCH   9  13
BRANCH  11  20
ATOM     20  N   UNL     1       3.563   4.627   5.173  0.00  0.00    -0.358 N 
ATOM     21  H   UNL     1       4.435   4.054   5.522  0.00  0.00    +0.142 HD
ATOM     22  H   UNL     1       3.080   5.356   5.841  0.00  0.00    +0.142 HD
ENDBRANCH  11  20
BRANCH  12  23
ATOM     23  C   UNL     1       4.851   2.816   3.595  0.00  0.00    +0.101 C 
ATOM     24  N   UNL     1       5.760   2.252   3.974  0.00  0.00    -0.191 NA
ENDBRANCH  12  23
BRANCH  10  25
ATOM     25  C   UNL     1       0.946   5.342   4.599  0.00  0.00    +0.091 C 
ATOM     26  N   UNL     1       0.217   5.423   5.466  0.00  0.00    -0.194 NA
ENDBRANCH  10  25
BRANCH  10  27
ATOM     27  C   UNL     1       2.336   6.587   3.094  0.00  0.00    +0.091 C 
ATOM     28  N   UNL     1       2.679   7.630   2.800  0.00  0.00    -0.194 NA
ENDBRANCH  10  27
BRANCH   1  29
ATOM     29  O   UNL     1       0.735   0.358  -0.810  0.00  0.00    -0.445 OA
BRANCH  29  30
ATOM     30  C   UNL     1      -0.472  -0.397  -1.091  0.00  0.00    +0.269 C 
BRANCH  30  34
ATOM     31  C   UNL     1       0.521  -4.511  -1.667  0.00  0.00    +0.000 A 
ATOM     32  C   UNL     1       0.213  -4.045  -0.403  0.00  0.00    +0.000 A 
ATOM     33  C   UNL     1      -0.109  -2.714  -0.216  0.00  0.00    +0.007 A 
ATOM     34  C   UNL     1      -0.122  -1.848  -1.294  0.00  0.00    -0.010 A 
ATOM     35  C   UNL     1       0.181  -2.315  -2.559  0.00  0.00    +0.007 A 
ATOM     36  C   UNL     1       0.508  -3.646  -2.745  0.00  0.00    +0.000 A 
ENDBRANCH  30  34
ENDBRANCH  29  30
ENDBRANCH   1  29
TORSDOF 8
