REMARK  Name = ZINC39894589
REMARK  7 active torsions:
REMARK  status: ('A' for Active; 'I' for Inactive)
REMARK    1  A    between atoms: C_1  and  O_2
REMARK    2  A    between atoms: O_2  and  C_3
REMARK    3  A    between atoms: C_3  and  C_5
REMARK    4  A    between atoms: C_8  and  N_11
REMARK    5  A    between atoms: C_12  and  C_14
REMARK    6  A    between atoms: C_20  and  C_22
REMARK    7  A    between atoms: N_24  and  C_25
REMARK                            x       y       z     vdW  Elec       q    Type
REMARK                         _______ _______ _______ _____ _____    ______ ____
ROOT
ATOM      1  C   UNL     1      -2.732  -8.102   0.369  0.00  0.00    +0.091 C 
ATOM      2  C   UNL     1      -1.980  -8.565   1.619  0.00  0.00    +0.040 C 
ATOM      3  C   UNL     1      -2.090 -10.054   1.767  0.00  0.00    -0.030 C 
ATOM      4  C   UNL     1      -2.971 -10.780   1.156  0.00  0.00    -0.030 C 
ATOM      5  C   UNL     1      -3.998 -10.236   0.207  0.00  0.00    +0.040 C 
ATOM      6  C   UNL     1      -4.135  -8.723   0.384  0.00  0.00    +0.091 C 
ENDROOT
BRANCH   1   8
ATOM      7  N   UNL     1      -1.729  -5.841   0.370  0.00  0.00    -0.285 N 
ATOM      8  C   UNL     1      -2.843  -6.599   0.372  0.00  0.00    +0.221 C 
ATOM      9  O   UNL     1      -3.936  -6.072   0.378  0.00  0.00    -0.275 OA
ATOM     10  H   UNL     1      -0.858  -6.260   0.290  0.00  0.00    +0.155 HD
BRANCH   7  14
ATOM     11  C   UNL     1      -2.027  -1.699   0.701  0.00  0.00    +0.059 A 
ATOM     12  C   UNL     1      -2.945  -2.523   1.359  0.00  0.00    +0.017 A 
ATOM     13  C   UNL     1      -2.844  -3.891   1.247  0.00  0.00    +0.024 A 
ATOM     14  C   UNL     1      -1.829  -4.455   0.480  0.00  0.00    +0.033 A 
ATOM     15  C   UNL     1      -0.913  -3.638  -0.176  0.00  0.00    +0.024 A 
ATOM     16  C   UNL     1      -1.012  -2.269  -0.073  0.00  0.00    +0.017 A 
BRANCH  11  17
ATOM     17  C   UNL     1      -2.132  -0.233   0.818  0.00  0.00    +0.339 C 
ATOM     18  O   UNL     1      -1.337   0.481   0.241  0.00  0.00    -0.245 OA
BRANCH  17  20
ATOM     19  C   UNL     1      -3.154   1.741   1.634  0.00  0.00    +0.280 C 
ATOM     20  O   UNL     1      -3.112   0.314   1.565  0.00  0.00    -0.464 OA
ENDBRANCH  17  20
ENDBRANCH  11  17
ENDBRANCH   7  14
ENDBRANCH   1   8
BRANCH   6  21
ATOM     21  C   UNL     1      -4.955  -8.149  -0.743  0.00  0.00    +0.221 C 
ATOM     22  O   UNL     1      -4.469  -7.324  -1.487  0.00  0.00    -0.275 OA
ATOM     23  N   UNL     1      -6.228  -8.553  -0.923  0.00  0.00    -0.285 N 
ATOM     24  H   UNL     1      -6.641  -9.155  -0.285  0.00  0.00    +0.155 HD
BRANCH  23  25
ATOM     25  C   UNL     1      -6.955  -8.102  -2.031  0.00  0.00    +0.033 A 
ATOM     26  C   UNL     1      -8.324  -7.898  -1.929  0.00  0.00    +0.024 A 
ATOM     27  C   UNL     1      -9.039  -7.453  -3.023  0.00  0.00    +0.017 A 
ATOM     28  C   UNL     1      -8.391  -7.210  -4.221  0.00  0.00    +0.018 A 
ATOM     29  C   UNL     1      -7.026  -7.411  -4.326  0.00  0.00    +0.017 A 
ATOM     30  C   UNL     1      -6.306  -7.852  -3.233  0.00  0.00    +0.024 A 
ATOM     31 BR   UNL     1      -9.373  -6.601  -5.718  0.00  0.00    -0.050 Br
ENDBRANCH  23  25
ENDBRANCH   6  21
TORSDOF 6
