REMARK  Name = ZINC33723599
REMARK  5 active torsions:
REMARK  status: ('A' for Active; 'I' for Inactive)
REMARK    1  A    between atoms: C_1  and  O_2
REMARK    2  A    between atoms: O_2  and  C_3
REMARK    3  A    between atoms: C_6  and  C_9
REMARK    4  A    between atoms: C_11  and  C_12
REMARK    5  A    between atoms: C_12  and  C_13
REMARK                            x       y       z     vdW  Elec       q    Type
REMARK                         _______ _______ _______ _____ _____    ______ ____
ROOT
ATOM      1  C   UNL     1      -3.303   7.659  -0.741  0.00  0.00    +0.152 C 
ATOM      2  C   UNL     1      -4.712   7.996  -0.312  0.00  0.00    +0.077 C 
ATOM      3  C   UNL     1      -5.356   6.769  -0.092  0.00  0.00    +0.250 C 
ATOM      4  O   UNL     1      -6.510   6.624   0.271  0.00  0.00    -0.282 OA
ATOM      5  C   UNL     1      -4.388   5.678  -0.378  0.00  0.00    +0.293 C 
ATOM      6  O   UNL     1      -4.630   4.492  -0.288  0.00  0.00    -0.266 OA
ATOM      7  N   UNL     1      -3.204   6.197  -0.746  0.00  0.00    -0.232 N 
ATOM      8  C   UNL     1      -2.076   5.467  -1.081  0.00  0.00    +0.169 A 
ATOM      9  N   UNL     1      -1.916   4.165  -1.107  0.00  0.00    -0.224 NA
ATOM     10  C   UNL     1      -0.747   3.584  -1.458  0.00  0.00    +0.080 A 
ATOM     11  C   UNL     1      -0.446   2.205  -1.532  0.00  0.00    +0.032 A 
ATOM     12  C   UNL     1       0.802   1.779  -1.904  0.00  0.00    +0.040 A 
ATOM     13  C   UNL     1       1.808   2.679  -2.231  0.00  0.00    +0.125 A 
ATOM     14  C   UNL     1       1.546   4.037  -2.174  0.00  0.00    +0.055 A 
ATOM     15  C   UNL     1       0.300   4.472  -1.797  0.00  0.00    +0.043 A 
ATOM     16  S   UNL     1      -0.468   6.060  -1.588  0.00  0.00    -0.052 S 
ATOM     17  F   UNL     1       3.029   2.234  -2.600  0.00  0.00    -0.205 F 
ENDROOT
BRANCH   1  21
ATOM     18  C   UNL     1      -2.557   9.188  -4.662  0.00  0.00    +0.120 A 
ATOM     19  C   UNL     1      -1.953   9.776  -3.560  0.00  0.00    +0.046 A 
ATOM     20  C   UNL     1      -2.196   9.280  -2.293  0.00  0.00    +0.009 A 
ATOM     21  C   UNL     1      -3.039   8.198  -2.124  0.00  0.00    -0.022 A 
ATOM     22  C   UNL     1      -3.638   7.606  -3.221  0.00  0.00    +0.009 A 
ATOM     23  C   UNL     1      -3.403   8.102  -4.488  0.00  0.00    +0.046 A 
BRANCH  18  25
ATOM     24  C   UNL     1      -2.974   9.018  -6.996  0.00  0.00    +0.277 C 
ATOM     25  O   UNL     1      -2.319   9.673  -5.908  0.00  0.00    -0.495 OA
ENDBRANCH  18  25
ENDBRANCH   1  21
BRANCH   2  26
ATOM     26  C   UNL     1      -5.256   9.257  -0.167  0.00  0.00    +0.195 C 
ATOM     27  O   UNL     1      -6.573   9.398   0.095  0.00  0.00    -0.287 OA
BRANCH  26  28
ATOM     28  C   UNL     1      -4.400  10.447  -0.297  0.00  0.00    +0.026 A 
ATOM     29  C   UNL     1      -3.179  10.511   0.384  0.00  0.00    +0.015 A 
ATOM     30  C   UNL     1      -2.379  11.624   0.256  0.00  0.00    +0.050 A 
ATOM     31  C   UNL     1      -2.784  12.692  -0.538  0.00  0.00    +0.162 A 
ATOM     32  C   UNL     1      -4.000  12.636  -1.217  0.00  0.00    +0.163 A 
ATOM     33  C   UNL     1      -4.807  11.521  -1.097  0.00  0.00    +0.061 A 
ATOM     34  O   UNL     1      -4.406  13.669  -2.005  0.00  0.00    -0.485 OA
ATOM     35  C   UNL     1      -3.748  14.925  -1.808  0.00  0.00    +0.270 C 
ATOM     36  C   UNL     1      -2.236  14.670  -1.736  0.00  0.00    +0.270 C 
ATOM     37  O   UNL     1      -1.982  13.785  -0.640  0.00  0.00    -0.485 OA
ENDBRANCH  26  28
ENDBRANCH   2  26
TORSDOF 4
