REMARK  Name = ZINC67447321
REMARK  5 active torsions:
REMARK  status: ('A' for Active; 'I' for Inactive)
REMARK    1  A    between atoms: C_2  and  C_9
REMARK    2  A    between atoms: C_9  and  N_12
REMARK    3  A    between atoms: C_13  and  C_15
REMARK    4  A    between atoms: N_17  and  C_20
REMARK    5  A    between atoms: C_20  and  C_21
REMARK                            x       y       z     vdW  Elec       q    Type
REMARK                         _______ _______ _______ _____ _____    ______ ____
ROOT
ATOM      1  N   UNL     1      -0.202   4.162   0.022  0.00  0.00    -0.300 N 
ATOM      2  C   UNL     1      -1.220   3.492  -0.553  0.00  0.00    +0.266 C 
ATOM      3  O   UNL     1      -1.037   2.376  -1.001  0.00  0.00    -0.268 OA
ATOM      4  H   UNL     1      -0.364   5.020   0.444  0.00  0.00    +0.150 HD
ENDROOT
BRANCH   2   5
ATOM      5  C   UNL     1      -2.556   4.111  -0.639  0.00  0.00    +0.167 A 
ATOM      6  C   UNL     1      -3.667   3.538  -1.189  0.00  0.00    +0.143 A 
ATOM      7  N   UNL     1      -4.670   4.431  -1.064  0.00  0.00    -0.251 N 
ATOM      8  N   UNL     1      -4.132   5.557  -0.424  0.00  0.00    -0.065 NA
ATOM      9  N   UNL     1      -2.887   5.331  -0.184  0.00  0.00    -0.125 NA
BRANCH   7  10
ATOM     10  C   UNL     1      -6.054   4.259  -1.511  0.00  0.00    +0.147 C 
BRANCH  10  11
ATOM     11  C   UNL     1      -7.003   4.491  -0.334  0.00  0.00    -0.007 C 
ATOM     12  C   UNL     1      -6.905   5.950   0.122  0.00  0.00    +0.001 C 
ATOM     13  C   UNL     1      -7.915   6.191   1.248  0.00  0.00    -0.019 C 
ATOM     14  C   UNL     1      -9.317   5.830   0.754  0.00  0.00    -0.083 C 
ATOM     15  N   UNL     1      -9.352   4.417   0.358  0.00  0.00    +0.379 N 
ATOM     16  C   UNL     1      -8.439   4.192  -0.768  0.00  0.00    -0.077 C 
ATOM     17  H   UNL     1      -9.069   3.843   1.139  0.00  0.00    -0.086 HD
ATOM     18  H   UNL     1     -10.291   4.168   0.084  0.00  0.00    -0.086 HD
ENDBRANCH  10  11
ENDBRANCH   7  10
ENDBRANCH   2   5
BRANCH   1  19
ATOM     19  C   UNL     1       1.149   3.596   0.009  0.00  0.00    +0.060 C 
ATOM     20  C   UNL     1       1.974   3.763  -1.269  0.00  0.00    +0.033 C 
ATOM     21  C   UNL     1       2.325   4.574  -0.020  0.00  0.00    +0.033 C 
BRANCH  19  23
ATOM     22  C   UNL     1       0.914   2.251   2.106  0.00  0.00    +0.044 A 
ATOM     23  C   UNL     1       1.325   2.318   0.788  0.00  0.00    -0.019 A 
ATOM     24  C   UNL     1       1.898   1.214   0.185  0.00  0.00    +0.044 A 
ATOM     25  C   UNL     1       2.060   0.040   0.900  0.00  0.00    +0.126 A 
ATOM     26  C   UNL     1       1.648  -0.029   2.220  0.00  0.00    +0.076 A 
ATOM     27  C   UNL     1       1.075   1.077   2.823  0.00  0.00    +0.126 A 
ATOM     28  F   UNL     1       0.673   1.012   4.112  0.00  0.00    -0.205 F 
ATOM     29  F   UNL     1       2.619  -1.039   0.310  0.00  0.00    -0.205 F 
ENDBRANCH  19  23
ENDBRANCH   1  19
TORSDOF 5
