REMARK  Name = ZINC39352274
REMARK  9 active torsions:
REMARK  status: ('A' for Active; 'I' for Inactive)
REMARK    1  A    between atoms: C_1  and  C_2
REMARK    2  A    between atoms: C_8  and  C_18
REMARK    3  A    between atoms: C_10  and  C_16
REMARK    4  A    between atoms: C_11  and  N_15
REMARK    5  A    between atoms: C_21  and  O_26
REMARK    6  A    between atoms: C_22  and  O_24
REMARK    7  A    between atoms: O_24  and  C_25
REMARK    8  A    between atoms: O_26  and  C_27
REMARK    9  A    between atoms: C_27  and  C_28
REMARK                            x       y       z     vdW  Elec       q    Type
REMARK                         _______ _______ _______ _____ _____    ______ ____
ROOT
ATOM      1  C   UNL     1      -0.018   1.503   0.010  0.00  0.00    +0.063 C 
ATOM      2  C   UNL     1       0.002  -0.004   0.002  0.00  0.00    +0.034 C 
ATOM      3  N   UNL     1       0.005  -0.613  -1.159  0.00  0.00    -0.185 NA
ATOM      4  C   UNL     1       0.012  -1.942  -1.288  0.00  0.00    +0.248 C 
ATOM      5  O   UNL     1       0.033  -2.462  -2.386  0.00  0.00    -0.273 OA
ATOM      6  C   UNL     1      -0.006  -2.784  -0.028  0.00  0.00    +0.155 C 
ATOM      7  C   UNL     1       1.269  -3.632  -0.033  0.00  0.00    +0.084 C 
ATOM      8  C   UNL     1       1.459  -4.272   1.315  0.00  0.00    +0.095 C 
ATOM      9  C   UNL     1       0.886  -3.797   2.442  0.00  0.00    +0.198 C 
ATOM     10  O   UNL     1       0.078  -2.711   2.430  0.00  0.00    -0.445 OA
ATOM     11  C   UNL     1       0.000  -2.014   1.283  0.00  0.00    +0.122 C 
ATOM     12  C   UNL     1       0.023  -0.667   1.232  0.00  0.00    +0.063 C 
ENDROOT
BRANCH   7  13
ATOM     13  C   UNL     1       1.152  -4.706  -1.084  0.00  0.00    -0.034 A 
ATOM     14  C   UNL     1       0.128  -5.631  -1.014  0.00  0.00    +0.008 A 
ATOM     15  C   UNL     1       0.016  -6.618  -1.976  0.00  0.00    +0.050 A 
ATOM     16  C   UNL     1       0.932  -6.681  -3.013  0.00  0.00    +0.162 A 
ATOM     17  C   UNL     1       1.964  -5.749  -3.084  0.00  0.00    +0.162 A 
ATOM     18  C   UNL     1       2.067  -4.759  -2.119  0.00  0.00    +0.053 A 
BRANCH  17  19
ATOM     19  O   UNL     1       2.865  -5.806  -4.100  0.00  0.00    -0.491 OA
ATOM     20  C   UNL     1       3.897  -4.817  -4.109  0.00  0.00    +0.277 C 
ENDBRANCH  17  19
BRANCH  16  21
ATOM     21  O   UNL     1       0.825  -7.651  -3.960  0.00  0.00    -0.484 OA
BRANCH  21  22
ATOM     22  C   UNL     1      -0.258  -8.573  -3.824  0.00  0.00    +0.264 C 
BRANCH  22  23
ATOM     23  C   UNL     1      -0.217  -9.568  -4.955  0.00  0.00    -0.010 A 
ATOM     24  C   UNL     1      -0.889  -9.302  -6.133  0.00  0.00    +0.008 A 
ATOM     25  C   UNL     1      -0.851 -10.214  -7.171  0.00  0.00    +0.020 A 
ATOM     26  C   UNL     1      -0.141 -11.393  -7.031  0.00  0.00    +0.041 A 
ATOM     27  C   UNL     1       0.532 -11.658  -5.851  0.00  0.00    +0.020 A 
ATOM     28  C   UNL     1       0.498 -10.743  -4.816  0.00  0.00    +0.008 A 
ATOM     29 CL   UNL     1      -0.093 -12.539  -8.334  0.00  0.00    -0.084 Cl
ENDBRANCH  22  23
ENDBRANCH  21  22
ENDBRANCH  16  21
ENDBRANCH   7  13
BRANCH   9  30
ATOM     30  N   UNL     1       1.129  -4.434   3.633  0.00  0.00    -0.328 N 
ATOM     31  H   UNL     1       1.705  -5.214   3.658  0.00  0.00    +0.145 HD
ATOM     32  H   UNL     1       0.724  -4.105   4.451  0.00  0.00    +0.145 HD
ENDBRANCH   9  30
BRANCH   8  33
ATOM     33  C   UNL     1       2.285  -5.439   1.407  0.00  0.00    +0.100 C 
ATOM     34  N   UNL     1       2.941  -6.364   1.480  0.00  0.00    -0.191 NA
ENDBRANCH   8  33
TORSDOF 7
