REMARK  Name = ZINC32962016
REMARK  8 active torsions:
REMARK  status: ('A' for Active; 'I' for Inactive)
REMARK    1  A    between atoms: C_1  and  C_2
REMARK    2  A    between atoms: C_7  and  S_8
REMARK    3  A    between atoms: S_8  and  N_11
REMARK    4  A    between atoms: N_11  and  C_12
REMARK    5  A    between atoms: C_14  and  C_32
REMARK    6  A    between atoms: C_17  and  N_18
REMARK    7  A    between atoms: N_21  and  C_24
REMARK    8  A    between atoms: C_24  and  C_25
REMARK                            x       y       z     vdW  Elec       q    Type
REMARK                         _______ _______ _______ _____ _____    ______ ____
ROOT
ATOM      1  C   UNL     1      -1.394   2.978  -1.609  0.00  0.00    +0.070 A 
ATOM      2  C   UNL     1      -0.538   4.047  -1.427  0.00  0.00    +0.041 A 
ATOM      3  C   UNL     1      -0.968   5.343  -1.732  0.00  0.00    +0.065 A 
ATOM      4  C   UNL     1      -2.261   5.551  -2.219  0.00  0.00    +0.017 A 
ATOM      5  C   UNL     1      -3.111   4.482  -2.398  0.00  0.00    +0.026 A 
ATOM      6  C   UNL     1      -2.684   3.193  -2.101  0.00  0.00    +0.052 A 
ENDROOT
BRANCH   6   7
ATOM      7  N   UNL     1      -3.546   2.115  -2.290  0.00  0.00    -0.326 N 
ATOM      8  C   UNL     1      -3.884   1.952  -3.711  0.00  0.00    +0.120 C 
ATOM      9  C   UNL     1      -4.764   0.713  -3.885  0.00  0.00    +0.103 C 
ATOM     10  N   UNL     1      -5.979   0.861  -3.071  0.00  0.00    -0.295 NA
ATOM     11  C   UNL     1      -5.641   1.023  -1.650  0.00  0.00    +0.103 C 
ATOM     12  C   UNL     1      -4.760   2.262  -1.476  0.00  0.00    +0.120 C 
BRANCH  10  13
ATOM     13  C   UNL     1      -6.888  -0.277  -3.269  0.00  0.00    +0.122 C 
BRANCH  13  14
ATOM     14  C   UNL     1      -7.405  -0.266  -4.685  0.00  0.00    +0.002 A 
ATOM     15  C   UNL     1      -8.665   0.231  -4.956  0.00  0.00    +0.008 A 
ATOM     16  C   UNL     1      -9.138   0.247  -6.255  0.00  0.00    +0.000 A 
ATOM     17  C   UNL     1      -8.354  -0.244  -7.283  0.00  0.00    +0.003 A 
ATOM     18  C   UNL     1      -7.096  -0.747  -7.013  0.00  0.00    +0.038 A 
ATOM     19  C   UNL     1      -6.619  -0.758  -5.713  0.00  0.00    +0.128 A 
ATOM     20  F   UNL     1      -5.389  -1.249  -5.448  0.00  0.00    -0.205 F 
ENDBRANCH  13  14
ENDBRANCH  10  13
ENDBRANCH   6   7
BRANCH   3  21
ATOM     21  C   UNL     1      -0.058   6.487  -1.540  0.00  0.00    +0.387 C 
ATOM     22  O   UNL     1       1.066   6.304  -1.116  0.00  0.00    -0.241 OA
ATOM     23  O   UNL     1      -0.474   7.734  -1.834  0.00  0.00    -0.241 OA
ENDBRANCH   3  21
BRANCH   1  24
ATOM     24  N   UNL     1      -0.968   1.679  -1.305  0.00  0.00    -0.214 N 
ATOM     25  H   UNL     1      -1.307   0.831  -1.918  0.00  0.00    +0.174 HD
BRANCH  24  26
ATOM     26  S   UNL     1       0.048   1.420  -0.023  0.00  0.00    +0.073 S 
ATOM     27  O   UNL     1       0.184   0.012   0.109  0.00  0.00    -0.150 OA
ATOM     28  O   UNL     1       1.165   2.279  -0.209  0.00  0.00    -0.150 OA
BRANCH  26  35
ATOM     29  C   UNL     1      -2.482   0.178   1.074  0.00  0.00    +0.046 C 
ATOM     30  C   UNL     1      -1.938   1.351   1.848  0.00  0.00    -0.024 A 
ATOM     31  C   UNL     1      -2.591   1.792   2.984  0.00  0.00    +0.005 A 
ATOM     32  C   UNL     1      -2.091   2.867   3.695  0.00  0.00    +0.000 A 
ATOM     33  C   UNL     1      -0.938   3.501   3.270  0.00  0.00    +0.002 A 
ATOM     34  C   UNL     1      -0.282   3.055   2.138  0.00  0.00    +0.029 A 
ATOM     35  C   UNL     1      -0.785   1.984   1.424  0.00  0.00    +0.111 A 
ENDBRANCH  26  35
ENDBRANCH  24  26
ENDBRANCH   1  24
TORSDOF 7
