REMARK  Name = ZINC08445652
REMARK  6 active torsions:
REMARK  status: ('A' for Active; 'I' for Inactive)
REMARK    1  A    between atoms: C_1  and  O_2
REMARK    2  A    between atoms: O_2  and  C_3
REMARK    3  A    between atoms: C_6  and  N_9
REMARK    4  A    between atoms: C_10  and  C_12
REMARK    5  A    between atoms: C_16  and  N_17
REMARK    6  A    between atoms: C_18  and  C_20
REMARK                            x       y       z     vdW  Elec       q    Type
REMARK                         _______ _______ _______ _____ _____    ______ ____
ROOT
ATOM      1  C   UNL     1       3.089  -4.503   5.512  0.00  0.00    +0.069 A 
ATOM      2  C   UNL     1       2.290  -4.779   6.693  0.00  0.00    -0.023 A 
ATOM      3  C   UNL     1       2.969  -5.387   7.689  0.00  0.00    -0.004 A 
ATOM      4  S   UNL     1       4.612  -5.579   7.062  0.00  0.00    -0.077 S 
ATOM      5  C   UNL     1       4.420  -4.891   5.542  0.00  0.00    +0.085 A 
ATOM      6  C   UNL     1       2.430  -5.799   9.025  0.00  0.00    +0.043 C 
ATOM      7  C   UNL     1       1.085  -5.089   9.241  0.00  0.00    +0.005 C 
ATOM      8  C   UNL     1       0.228  -5.259   7.984  0.00  0.00    +0.005 C 
ATOM      9  C   UNL     1       0.816  -4.433   6.837  0.00  0.00    +0.037 C 
ENDROOT
BRANCH   1  11
ATOM     10  N   UNL     1       2.540  -2.503   4.231  0.00  0.00    -0.281 N 
ATOM     11  C   UNL     1       2.512  -3.847   4.335  0.00  0.00    +0.251 C 
ATOM     12  O   UNL     1       2.006  -4.515   3.452  0.00  0.00    -0.270 OA
ATOM     13  H   UNL     1       3.009  -1.975   4.896  0.00  0.00    +0.155 HD
BRANCH  10  17
ATOM     14  C   UNL     1       0.611  -0.618   1.051  0.00  0.00    +0.120 A 
ATOM     15  C   UNL     1       1.777  -0.078   1.574  0.00  0.00    +0.047 A 
ATOM     16  C   UNL     1       2.416  -0.701   2.627  0.00  0.00    +0.027 A 
ATOM     17  C   UNL     1       1.892  -1.870   3.163  0.00  0.00    +0.034 A 
ATOM     18  C   UNL     1       0.725  -2.410   2.640  0.00  0.00    +0.027 A 
ATOM     19  C   UNL     1       0.084  -1.783   1.590  0.00  0.00    +0.047 A 
BRANCH  14  21
ATOM     20  C   UNL     1       0.581   1.192  -0.491  0.00  0.00    +0.277 C 
ATOM     21  O   UNL     1      -0.018  -0.004   0.014  0.00  0.00    -0.495 OA
ENDBRANCH  14  21
ENDBRANCH  10  17
ENDBRANCH   1  11
BRANCH   5  22
ATOM     22  N   UNL     1       5.373  -4.744   4.547  0.00  0.00    -0.275 N 
ATOM     23  C   UNL     1       6.631  -5.183   4.749  0.00  0.00    +0.249 C 
ATOM     24  O   UNL     1       6.929  -5.710   5.803  0.00  0.00    -0.270 OA
ATOM     25  H   UNL     1       5.135  -4.324   3.706  0.00  0.00    +0.156 HD
BRANCH  23  26
ATOM     26  C   UNL     1       7.647  -5.026   3.688  0.00  0.00    +0.037 A 
ATOM     27  C   UNL     1       7.309  -4.417   2.478  0.00  0.00    +0.014 A 
ATOM     28  C   UNL     1       8.263  -4.272   1.492  0.00  0.00    +0.016 A 
ATOM     29  C   UNL     1       9.553  -4.731   1.700  0.00  0.00    +0.018 A 
ATOM     30  C   UNL     1       9.894  -5.336   2.898  0.00  0.00    +0.016 A 
ATOM     31  C   UNL     1       8.952  -5.480   3.894  0.00  0.00    +0.014 A 
ATOM     32 BR   UNL     1      10.854  -4.529   0.343  0.00  0.00    -0.050 Br
ENDBRANCH  23  26
ENDBRANCH   5  22
TORSDOF 5
