REMARK  Name = ZINC12533041
REMARK  8 active torsions:
REMARK  status: ('A' for Active; 'I' for Inactive)
REMARK    1  A    between atoms: C_1  and  C_2
REMARK    2  A    between atoms: C_5  and  C_8
REMARK    3  A    between atoms: C_9  and  C_14
REMARK    4  A    between atoms: C_11  and  C_13
REMARK    5  A    between atoms: C_14  and  C_15
REMARK    6  A    between atoms: N_17  and  C_18
REMARK    7  A    between atoms: C_21  and  S_24
REMARK    8  A    between atoms: S_24  and  N_27
REMARK                            x       y       z     vdW  Elec       q    Type
REMARK                         _______ _______ _______ _____ _____    ______ ____
ROOT
ATOM      1  C   UNL     1       2.476  -4.231   4.636  0.00  0.00    +0.222 C 
ATOM      2  O   UNL     1       2.929  -4.400   5.749  0.00  0.00    -0.275 OA
ATOM      3  N   UNL     1       1.173  -3.924   4.479  0.00  0.00    -0.285 N 
ATOM      4  H   UNL     1       0.825  -3.724   3.596  0.00  0.00    +0.155 HD
ENDROOT
BRANCH   3   5
ATOM      5  C   UNL     1       0.322  -3.895   5.589  0.00  0.00    +0.034 A 
ATOM      6  C   UNL     1      -0.999  -4.308   5.465  0.00  0.00    +0.025 A 
ATOM      7  C   UNL     1      -1.836  -4.278   6.563  0.00  0.00    +0.031 A 
ATOM      8  C   UNL     1      -1.361  -3.838   7.785  0.00  0.00    +0.113 A 
ATOM      9  C   UNL     1      -0.047  -3.426   7.912  0.00  0.00    +0.031 A 
ATOM     10  C   UNL     1       0.797  -3.459   6.819  0.00  0.00    +0.025 A 
BRANCH   8  11
ATOM     11  S   UNL     1      -2.433  -3.801   9.183  0.00  0.00    +0.100 S 
ATOM     12  O   UNL     1      -1.899  -2.836  10.078  0.00  0.00    -0.146 OA
ATOM     13  O   UNL     1      -3.758  -3.720   8.677  0.00  0.00    -0.146 OA
BRANCH  11  14
ATOM     14  N   UNL     1      -2.303  -5.269   9.938  0.00  0.00    -0.118 NA
ATOM     15  C   UNL     1      -2.993  -5.511  11.005  0.00  0.00    +0.117 C 
ATOM     16  C   UNL     1      -3.932  -4.446  11.567  0.00  0.00    +0.073 C 
ATOM     17  C   UNL     1      -5.348  -4.934  11.346  0.00  0.00    +0.008 C 
ATOM     18  C   UNL     1      -5.878  -5.803  12.488  0.00  0.00    +0.002 C 
ATOM     19  C   UNL     1      -4.852  -6.816  12.996  0.00  0.00    +0.019 C 
ATOM     20  C   UNL     1      -4.088  -7.501  11.884  0.00  0.00    +0.102 C 
ATOM     21  N   UNL     1      -2.891  -6.679  11.607  0.00  0.00    -0.331 N 
ATOM     22  H   UNL     1      -2.018  -7.006  11.875  0.00  0.00    +0.147 HD
ENDBRANCH  11  14
ENDBRANCH   8  11
ENDBRANCH   3   5
BRANCH   1  23
ATOM     23  C   UNL     1       3.369  -4.365   3.430  0.00  0.00    +0.140 C 
BRANCH  23  25
ATOM     24  C   UNL     1       5.343  -5.937   4.075  0.00  0.00    +0.082 A 
ATOM     25  C   UNL     1       4.767  -4.711   3.877  0.00  0.00    +0.026 A 
ATOM     26  S   UNL     1       6.130  -3.635   4.293  0.00  0.00    -0.076 S 
ATOM     27  C   UNL     1       7.261  -4.823   4.666  0.00  0.00    +0.076 A 
ATOM     28  N   UNL     1       6.605  -5.938   4.479  0.00  0.00    -0.244 NA
ATOM     29  C   UNL     1       8.689  -4.644   5.114  0.00  0.00    +0.073 C 
BRANCH  24  34
ATOM     30  C   UNL     1       2.428 -10.830   3.224  0.00  0.00    +0.044 C 
ATOM     31  C   UNL     1       3.191  -9.550   3.446  0.00  0.00    -0.050 A 
ATOM     32  C   UNL     1       4.542  -9.493   3.155  0.00  0.00    +0.004 A 
ATOM     33  C   UNL     1       5.245  -8.323   3.357  0.00  0.00    +0.010 A 
ATOM     34  C   UNL     1       4.592  -7.197   3.856  0.00  0.00    +0.001 A 
ATOM     35  C   UNL     1       3.231  -7.260   4.148  0.00  0.00    +0.010 A 
ATOM     36  C   UNL     1       2.536  -8.434   3.937  0.00  0.00    +0.004 A 
ENDBRANCH  24  34
ENDBRANCH  23  25
ENDBRANCH   1  23
TORSDOF 6
