REMARK  Name = ZINC30816146
REMARK  7 active torsions:
REMARK  status: ('A' for Active; 'I' for Inactive)
REMARK    1  A    between atoms: C_1  and  C_2
REMARK    2  A    between atoms: C_5  and  S_7
REMARK    3  A    between atoms: S_7  and  N_10
REMARK    4  A    between atoms: C_14  and  C_17
REMARK    5  A    between atoms: N_19  and  C_20
REMARK    6  A    between atoms: C_23  and  N_26
REMARK    7  A    between atoms: C_27  and  C_29
REMARK                            x       y       z     vdW  Elec       q    Type
REMARK                         _______ _______ _______ _____ _____    ______ ____
ROOT
ATOM      1  C   UNL     1      -2.566   2.759   0.024  0.00  0.00    +0.222 C 
ATOM      2  O   UNL     1      -1.670   3.557   0.202  0.00  0.00    -0.275 OA
ATOM      3  N   UNL     1      -2.286   1.444  -0.074  0.00  0.00    -0.285 N 
ATOM      4  H   UNL     1      -3.103   0.711  -0.147  0.00  0.00    +0.155 HD
ENDROOT
BRANCH   1   9
ATOM      5  N   UNL     1      -5.434   5.196   0.073  0.00  0.00    -0.175 NA
ATOM      6  C   UNL     1      -6.353   4.581   1.041  0.00  0.00    +0.109 C 
ATOM      7  C   UNL     1      -6.286   3.059   0.885  0.00  0.00    +0.018 C 
ATOM      8  C   UNL     1      -4.832   2.600   1.019  0.00  0.00    +0.015 C 
ATOM      9  C   UNL     1      -3.990   3.236  -0.089  0.00  0.00    +0.091 C 
ATOM     10  C   UNL     1      -4.031   4.761   0.055  0.00  0.00    +0.122 C 
BRANCH   5  11
ATOM     11  S   UNL     1      -5.971   6.358  -0.978  0.00  0.00    +0.067 S 
ATOM     12  O   UNL     1      -7.120   6.946  -0.383  0.00  0.00    -0.152 OA
ATOM     13  O   UNL     1      -4.833   7.122  -1.354  0.00  0.00    -0.152 OA
BRANCH  11  18
ATOM     14  C   UNL     1      -6.899   3.686  -6.174  0.00  0.00    +0.051 C 
ATOM     15  C   UNL     1      -6.928   4.315  -4.805  0.00  0.00    -0.011 A 
ATOM     16  C   UNL     1      -7.966   4.432  -3.942  0.00  0.00    +0.013 A 
ATOM     17  C   UNL     1      -7.758   5.050  -2.723  0.00  0.00    +0.036 A 
ATOM     18  C   UNL     1      -6.524   5.530  -2.432  0.00  0.00    +0.143 A 
ATOM     19  S   UNL     1      -5.604   5.100  -3.900  0.00  0.00    -0.074 S 
ENDBRANCH  11  18
ENDBRANCH   5  11
ENDBRANCH   1   9
BRANCH   3  20
ATOM     20  C   UNL     1      -0.954   1.009  -0.081  0.00  0.00    +0.034 A 
ATOM     21  C   UNL     1       0.025   1.781  -0.694  0.00  0.00    +0.025 A 
ATOM     22  C   UNL     1       1.336   1.350  -0.705  0.00  0.00    +0.025 A 
ATOM     23  C   UNL     1       1.677   0.145  -0.104  0.00  0.00    +0.034 A 
ATOM     24  C   UNL     1       0.698  -0.626   0.508  0.00  0.00    +0.025 A 
ATOM     25  C   UNL     1      -0.613  -0.195   0.520  0.00  0.00    +0.025 A 
BRANCH  23  26
ATOM     26  N   UNL     1       3.007  -0.291  -0.117  0.00  0.00    -0.279 N 
ATOM     27  C   UNL     1       3.283  -1.607  -0.214  0.00  0.00    +0.284 C 
ATOM     28  O   UNL     1       2.382  -2.407  -0.389  0.00  0.00    -0.266 OA
ATOM     29  H   UNL     1       3.826   0.439  -0.047  0.00  0.00    +0.155 HD
BRANCH  27  30
ATOM     30  C   UNL     1       4.669  -2.075  -0.110  0.00  0.00    +0.189 A 
ATOM     31  C   UNL     1       5.085  -3.373  -0.185  0.00  0.00    +0.054 A 
ATOM     32  C   UNL     1       6.481  -3.358  -0.038  0.00  0.00    +0.042 A 
ATOM     33  C   UNL     1       6.850  -2.069   0.127  0.00  0.00    +0.196 A 
ATOM     34  O   UNL     1       5.755  -1.299   0.084  0.00  0.00    -0.458 OA
ENDBRANCH  27  30
ENDBRANCH  23  26
ENDBRANCH   3  20
TORSDOF 6
