REMARK  Name = ZINC09073414
REMARK  5 active torsions:
REMARK  status: ('A' for Active; 'I' for Inactive)
REMARK    1  A    between atoms: C_1  and  O_2
REMARK    2  A    between atoms: O_2  and  C_3
REMARK    3  A    between atoms: C_8  and  N_9
REMARK    4  A    between atoms: C_10  and  C_12
REMARK    5  A    between atoms: C_23  and  C_25
REMARK                            x       y       z     vdW  Elec       q    Type
REMARK                         _______ _______ _______ _____ _____    ______ ____
ROOT
ATOM      1  C   UNL     1       3.684   1.382  -0.040  0.00  0.00    +0.125 C 
ATOM      2  C   UNL     1       4.427   0.135  -0.520  0.00  0.00    +0.019 C 
ATOM      3  C   UNL     1       4.001  -1.083   0.305  0.00  0.00    +0.006 C 
ATOM      4  C   UNL     1       2.552  -1.444  -0.061  0.00  0.00    +0.044 C 
ATOM      5  C   UNL     1       1.741  -0.193  -0.045  0.00  0.00    +0.015 A 
ATOM      6  C   UNL     1       2.188   1.090  -0.033  0.00  0.00    +0.066 A 
ATOM      7  N   UNL     1       1.251   2.034  -0.018  0.00  0.00    -0.229 NA
ATOM      8  C   UNL     1      -0.035   1.747  -0.014  0.00  0.00    +0.165 A 
ATOM      9  S   UNL     1      -0.020   0.009  -0.034  0.00  0.00    -0.057 S 
ATOM     10  N   UNL     1      -1.122   2.611  -0.004  0.00  0.00    -0.261 N 
ATOM     11  C   UNL     1      -2.376   2.116  -0.008  0.00  0.00    +0.250 C 
ATOM     12  O   UNL     1      -2.555   0.914  -0.021  0.00  0.00    -0.270 OA
ATOM     13  H   UNL     1      -0.980   3.570   0.006  0.00  0.00    +0.157 HD
ENDROOT
BRANCH  11  14
ATOM     14  C   UNL     1      -3.533   3.035   0.003  0.00  0.00    +0.037 A 
ATOM     15  C   UNL     1      -3.331   4.416   0.023  0.00  0.00    +0.014 A 
ATOM     16  C   UNL     1      -4.415   5.269   0.027  0.00  0.00    +0.021 A 
ATOM     17  C   UNL     1      -5.702   4.757   0.023  0.00  0.00    +0.041 A 
ATOM     18  C   UNL     1      -5.909   3.388   0.008  0.00  0.00    +0.021 A 
ATOM     19  C   UNL     1      -4.833   2.525  -0.002  0.00  0.00    +0.014 A 
ATOM     20 CL   UNL     1      -7.061   5.837   0.036  0.00  0.00    -0.084 Cl
ENDBRANCH  11  14
BRANCH   1  22
ATOM     21  N   UNL     1       3.407   3.735  -0.751  0.00  0.00    -0.282 N 
ATOM     22  C   UNL     1       3.971   2.531  -0.972  0.00  0.00    +0.226 C 
ATOM     23  O   UNL     1       4.709   2.372  -1.921  0.00  0.00    -0.275 OA
ATOM     24  H   UNL     1       2.767   3.846  -0.030  0.00  0.00    +0.155 HD
BRANCH  21  30
ATOM     25  C   UNL     1       3.801   6.108  -1.019  0.00  0.00    +0.141 A 
ATOM     26  C   UNL     1       4.142   7.184  -1.824  0.00  0.00    +0.049 A 
ATOM     27  C   UNL     1       4.414   6.986  -3.164  0.00  0.00    +0.024 A 
ATOM     28  C   UNL     1       4.353   5.713  -3.706  0.00  0.00    +0.043 A 
ATOM     29  C   UNL     1       4.019   4.634  -2.908  0.00  0.00    +0.047 A 
ATOM     30  C   UNL     1       3.745   4.827  -1.561  0.00  0.00    +0.077 A 
ATOM     31 CL   UNL     1       4.697   5.471  -5.390  0.00  0.00    -0.083 Cl
BRANCH  25  33
ATOM     32  C   UNL     1       3.604   7.644   0.786  0.00  0.00    +0.277 C 
ATOM     33  O   UNL     1       3.527   6.303   0.299  0.00  0.00    -0.493 OA
ENDBRANCH  25  33
ENDBRANCH  21  30
ENDBRANCH   1  22
TORSDOF 4
