REMARK  Name = ZINC03338576
REMARK  8 active torsions:
REMARK  status: ('A' for Active; 'I' for Inactive)
REMARK    1  A    between atoms: C_4  and  N_31
REMARK    2  A    between atoms: C_5  and  C_7
REMARK    3  A    between atoms: C_8  and  C_9
REMARK    4  A    between atoms: N_10  and  N_11
REMARK    5  A    between atoms: C_12  and  C_14
REMARK    6  A    between atoms: C_17  and  N_20
REMARK    7  A    between atoms: N_20  and  S_21
REMARK    8  A    between atoms: S_21  and  C_24
REMARK                            x       y       z     vdW  Elec       q    Type
REMARK                         _______ _______ _______ _____ _____    ______ ____
ROOT
ATOM      1  C   UNL     1       7.083   1.828   0.824  0.00  0.00    +0.038 A 
ATOM      2  C   UNL     1       7.009   3.208   0.613  0.00  0.00    +0.015 A 
ATOM      3  C   UNL     1       8.163   3.951   0.516  0.00  0.00    +0.025 A 
ATOM      4  C   UNL     1       9.404   3.329   0.616  0.00  0.00    +0.048 A 
ATOM      5  C   UNL     1       9.482   1.954   0.820  0.00  0.00    +0.025 A 
ATOM      6  C   UNL     1       8.332   1.206   0.924  0.00  0.00    +0.015 A 
ENDROOT
BRANCH   1   8
ATOM      7  N   UNL     1       4.646   1.631   0.838  0.00  0.00    -0.203 N 
ATOM      8  C   UNL     1       5.849   1.029   0.935  0.00  0.00    +0.263 C 
ATOM      9  O   UNL     1       5.915  -0.172   1.113  0.00  0.00    -0.268 OA
ATOM     10  H   UNL     1       4.593   2.589   0.696  0.00  0.00    +0.178 HD
BRANCH   7  12
ATOM     11  C   UNL     1       2.311   1.453   0.850  0.00  0.00    +0.130 C 
ATOM     12  N   UNL     1       3.473   0.872   0.943  0.00  0.00    -0.188 NA
BRANCH  11  14
ATOM     13  C   UNL     1      -0.079   1.286   0.854  0.00  0.00    +0.012 C 
ATOM     14  C   UNL     1       1.124   0.685   0.956  0.00  0.00    +0.022 C 
BRANCH  13  19
ATOM     15  C   UNL     1      -2.402  -1.648   1.101  0.00  0.00    +0.001 A 
ATOM     16  C   UNL     1      -3.631  -1.013   1.155  0.00  0.00    +0.002 A 
ATOM     17  C   UNL     1      -3.707   0.368   1.111  0.00  0.00    +0.033 A 
ATOM     18  C   UNL     1      -2.556   1.123   1.020  0.00  0.00    +0.133 A 
ATOM     19  C   UNL     1      -1.312   0.488   0.959  0.00  0.00    +0.005 A 
ATOM     20  C   UNL     1      -1.243  -0.908   1.003  0.00  0.00    +0.010 A 
BRANCH  18  21
ATOM     21  N   UNL     1      -2.639   2.600   0.981  0.00  0.00    +0.057 N 
ATOM     22  O   UNL     1      -3.709   3.155   1.157  0.00  0.00    -0.126 OA
ATOM     23  O   UNL     1      -1.637   3.261   0.772  0.00  0.00    -0.126 OA
ENDBRANCH  18  21
ENDBRANCH  13  19
ENDBRANCH  11  14
ENDBRANCH   7  12
ENDBRANCH   1   8
BRANCH   4  24
ATOM     24  N   UNL     1      10.568   4.082   0.512  0.00  0.00    -0.216 N 
ATOM     25  H   UNL     1      11.288   3.953   1.150  0.00  0.00    +0.174 HD
BRANCH  24  26
ATOM     26  S   UNL     1      10.727   5.198  -0.701  0.00  0.00    +0.072 S 
ATOM     27  O   UNL     1       9.567   6.019  -0.651  0.00  0.00    -0.150 OA
ATOM     28  O   UNL     1      12.041   5.729  -0.595  0.00  0.00    -0.150 OA
BRANCH  26  29
ATOM     29  C   UNL     1      10.659   4.322  -2.228  0.00  0.00    +0.109 A 
ATOM     30  C   UNL     1      11.805   3.750  -2.748  0.00  0.00    +0.030 A 
ATOM     31  C   UNL     1      11.751   3.059  -3.943  0.00  0.00    +0.017 A 
ATOM     32  C   UNL     1      10.552   2.948  -4.625  0.00  0.00    +0.018 A 
ATOM     33  C   UNL     1       9.406   3.524  -4.106  0.00  0.00    +0.017 A 
ATOM     34  C   UNL     1       9.460   4.211  -2.908  0.00  0.00    +0.030 A 
ATOM     35 BR   UNL     1      10.479   2.007  -6.263  0.00  0.00    -0.050 Br
ENDBRANCH  26  29
ENDBRANCH  24  26
ENDBRANCH   4  24
TORSDOF 8
