REMARK  Name = ZINC48888664
REMARK  2 active torsions:
REMARK  status: ('A' for Active; 'I' for Inactive)
REMARK    1  A    between atoms: N_12  and  C_13
REMARK    2  A    between atoms: C_16  and  O_19
REMARK                            x       y       z     vdW  Elec       q    Type
REMARK                         _______ _______ _______ _____ _____    ______ ____
ROOT
ATOM      1  C   UNL     1      -0.019   1.556   0.011  0.00  0.00    +0.007 C 
ATOM      2  C   UNL     1       1.475   1.955  -0.002  0.00  0.00    +0.023 C 
ATOM      3  C   UNL     1       2.240   0.596  -0.040  0.00  0.00    +0.078 C 
ATOM      4  C   UNL     1       1.258  -0.269  -0.905  0.00  0.00    +0.027 C 
ATOM      5  C   UNL     1       0.002  -0.004   0.002  0.00  0.00    +0.008 C 
ATOM      6  C   UNL     1       0.606  -0.380   1.391  0.00  0.00    +0.113 C 
ATOM      7  N   UNL     1       2.046   0.015   1.319  0.00  0.00    -0.282 N 
ATOM      8  C   UNL     1       2.986  -0.130   2.274  0.00  0.00    +0.303 C 
ATOM      9  O   UNL     1       4.128   0.232   2.063  0.00  0.00    -0.253 OA
ATOM     10  N   UNL     1       2.661  -0.676   3.463  0.00  0.00    -0.296 N 
ATOM     11  H   UNL     1       1.750  -0.965   3.631  0.00  0.00    +0.151 HD
ENDROOT
BRANCH  10  12
ATOM     12  C   UNL     1       3.683  -0.834   4.500  0.00  0.00    +0.075 C 
ATOM     13  C   UNL     1       4.443  -2.142   4.273  0.00  0.00    +0.025 C 
ATOM     14  C   UNL     1       3.466  -3.318   4.337  0.00  0.00    +0.033 C 
ATOM     15  C   UNL     1       2.795  -3.349   5.712  0.00  0.00    +0.115 C 
ATOM     16  C   UNL     1       2.035  -2.041   5.939  0.00  0.00    +0.033 C 
ATOM     17  C   UNL     1       3.013  -0.866   5.875  0.00  0.00    +0.025 C 
BRANCH  15  18
ATOM     18  O   UNL     1       1.882  -4.447   5.771  0.00  0.00    -0.392 OA
ATOM     19  H   UNL     1       1.420  -4.529   6.617  0.00  0.00    +0.210 HD
ENDBRANCH  15  18
ENDBRANCH  10  12
TORSDOF 2
