REMARK  Name = ZINC45898325
REMARK  9 active torsions:
REMARK  status: ('A' for Active; 'I' for Inactive)
REMARK    1  A    between atoms: C_1  and  C_2
REMARK    2  A    between atoms: C_5  and  C_33
REMARK    3  A    between atoms: N_8  and  C_10
REMARK    4  A    between atoms: C_10  and  C_11
REMARK    5  A    between atoms: C_17  and  C_19
REMARK    6  A    between atoms: C_23  and  O_31
REMARK    7  A    between atoms: C_25  and  O_29
REMARK    8  A    between atoms: O_29  and  C_30
REMARK    9  A    between atoms: O_31  and  C_32
REMARK                            x       y       z     vdW  Elec       q    Type
REMARK                         _______ _______ _______ _____ _____    ______ ____
ROOT
ATOM      1  C   UNL     1       2.971  -2.034   2.241  0.00  0.00    +0.034 A 
ATOM      2  C   UNL     1       3.439  -0.905   2.828  0.00  0.00    +0.070 A 
ATOM      3  S   UNL     1       5.145  -0.940   2.304  0.00  0.00    -0.060 S 
ATOM      4  C   UNL     1       5.085  -2.365   1.410  0.00  0.00    +0.165 A 
ATOM      5  N   UNL     1       3.833  -2.747   1.539  0.00  0.00    -0.231 NA
ATOM      6  N   UNL     1       6.110  -2.988   0.710  0.00  0.00    -0.259 N 
ATOM      7  C   UNL     1       7.343  -2.446   0.696  0.00  0.00    +0.266 C 
ATOM      8  O   UNL     1       7.559  -1.410   1.296  0.00  0.00    -0.268 OA
ATOM      9  H   UNL     1       5.938  -3.814   0.231  0.00  0.00    +0.157 HD
ENDROOT
BRANCH   7  10
ATOM     10  C   UNL     1       8.428  -3.106  -0.045  0.00  0.00    +0.103 A 
ATOM     11  C   UNL     1       9.710  -2.661  -0.128  0.00  0.00    +0.041 A 
ATOM     12  C   UNL     1      10.434  -3.577  -0.929  0.00  0.00    +0.007 A 
ATOM     13  C   UNL     1      11.769  -3.636  -1.354  0.00  0.00    +0.056 A 
ATOM     14  C   UNL     1      12.189  -4.679  -2.151  0.00  0.00    +0.124 A 
ATOM     15  C   UNL     1      11.294  -5.676  -2.536  0.00  0.00    +0.093 A 
ATOM     16  C   UNL     1       9.977  -5.633  -2.127  0.00  0.00    +0.147 A 
ATOM     17  C   UNL     1       9.532  -4.584  -1.319  0.00  0.00    +0.089 A 
ATOM     18  N   UNL     1       8.309  -4.279  -0.762  0.00  0.00    -0.348 N 
ATOM     19  H   UNL     1       7.498  -4.802  -0.859  0.00  0.00    +0.166 HD
BRANCH  16  20
ATOM     20  O   UNL     1       9.113  -6.610  -2.510  0.00  0.00    -0.493 OA
ATOM     21  C   UNL     1       9.637  -7.652  -3.336  0.00  0.00    +0.277 C 
ENDBRANCH  16  20
BRANCH  14  22
ATOM     22  O   UNL     1      13.483  -4.737  -2.563  0.00  0.00    -0.495 OA
ATOM     23  C   UNL     1      13.853  -5.845  -3.386  0.00  0.00    +0.277 C 
ENDBRANCH  14  22
ENDBRANCH   7  10
BRANCH   1  24
ATOM     24  C   UNL     1       1.534  -2.461   2.390  0.00  0.00    -0.022 C 
BRANCH  24  30
ATOM     25  C   UNL     1      -0.019   1.526   0.010  0.00  0.00    +0.005 C 
ATOM     26  C   UNL     1       0.002  -0.004   0.002  0.00  0.00    -0.031 C 
ATOM     27  C   UNL     1      -1.434  -0.535   0.015  0.00  0.00    +0.003 C 
ATOM     28  C   UNL     1      -1.402  -2.064   0.086  0.00  0.00    -0.031 C 
ATOM     29  C   UNL     1      -0.613  -2.496   1.324  0.00  0.00    -0.075 C 
ATOM     30  N   UNL     1       0.758  -1.980   1.239  0.00  0.00    +0.384 N 
ATOM     31  C   UNL     1       0.740  -0.512   1.242  0.00  0.00    -0.075 C 
ATOM     32  C   UNL     1      -2.832  -2.602   0.177  0.00  0.00    +0.005 C 
ATOM     33  H   UNL     1       1.188  -2.307   0.386  0.00  0.00    -0.081 HD
ENDBRANCH  24  30
ENDBRANCH   1  24
TORSDOF 5
