REMARK  Name = ZINC59403776
REMARK  4 active torsions:
REMARK  status: ('A' for Active; 'I' for Inactive)
REMARK    1  A    between atoms: C_11  and  C_12
REMARK    2  A    between atoms: N_15  and  C_18
REMARK    3  A    between atoms: C_18  and  C_19
REMARK    4  A    between atoms: N_21  and  C_22
REMARK                            x       y       z     vdW  Elec       q    Type
REMARK                         _______ _______ _______ _____ _____    ______ ____
ROOT
ATOM      1  C   UNL     1       4.288   3.233  -0.021  0.00  0.00    -0.046 C 
ATOM      2  C   UNL     1       4.207   3.940  -1.130  0.00  0.00    -0.041 C 
ATOM      3  C   UNL     1       4.692   5.357  -1.232  0.00  0.00    -0.050 C 
ATOM      4  N   UNL     1       4.837   5.946   0.104  0.00  0.00    +0.388 N 
ATOM      5  C   UNL     1       5.671   5.058   0.931  0.00  0.00    -0.073 C 
ATOM      6  C   UNL     1       4.866   3.794   1.250  0.00  0.00    +0.017 C 
ATOM      7  H   UNL     1       3.928   6.047   0.529  0.00  0.00    -0.081 HD
ENDROOT
BRANCH   1  18
ATOM      8  C   UNL     1      -0.017   1.385   0.010  0.00  0.00    +0.039 A 
ATOM      9  C   UNL     1       1.163   2.096   0.002  0.00  0.00    +0.013 A 
ATOM     10  C   UNL     1       2.379   1.417  -0.013  0.00  0.00    +0.007 A 
ATOM     11  C   UNL     1       2.400   0.012  -0.021  0.00  0.00    +0.050 A 
ATOM     12  C   UNL     1       1.199  -0.690  -0.014  0.00  0.00    +0.064 A 
ATOM     13  C   UNL     1       0.002  -0.004   0.002  0.00  0.00    +0.125 A 
ATOM     14  F   UNL     1      -1.162  -0.690   0.010  0.00  0.00    -0.205 F 
ATOM     15  N   UNL     1       3.722  -0.381  -0.035  0.00  0.00    -0.360 N 
ATOM     16  H   UNL     1       4.027  -1.301  -0.043  0.00  0.00    +0.165 HD
ATOM     17  C   UNL     1       4.538   0.713  -0.036  0.00  0.00    +0.091 A 
ATOM     18  C   UNL     1       3.788   1.845  -0.023  0.00  0.00    +0.003 A 
ENDBRANCH   1  18
BRANCH   4  19
ATOM     19  C   UNL     1       5.480   7.262  -0.006  0.00  0.00    +0.019 C 
BRANCH  19  20
ATOM     20  C   UNL     1       4.574   8.202  -0.758  0.00  0.00    +0.197 C 
ATOM     21  O   UNL     1       3.499   7.814  -1.163  0.00  0.00    -0.278 OA
ATOM     22  N   UNL     1       4.959   9.475  -0.981  0.00  0.00    -0.312 N 
ATOM     23  H   UNL     1       5.819   9.785  -0.657  0.00  0.00    +0.149 HD
BRANCH  22  24
ATOM     24  C   UNL     1       4.078  10.389  -1.713  0.00  0.00    +0.095 C 
ATOM     25  C   UNL     1       4.317  10.242  -3.224  0.00  0.00    +0.046 C 
ATOM     26  C   UNL     1       3.640  11.409  -3.982  0.00  0.00    +0.168 C 
ATOM     27  S   UNL     1       3.658  12.763  -2.737  0.00  0.00    -0.029 S 
ATOM     28  O   UNL     1       4.563  13.771  -3.164  0.00  0.00    -0.174 OA
ATOM     29  O   UNL     1       2.318  13.115  -2.418  0.00  0.00    -0.174 OA
ATOM     30  C   UNL     1       4.396  11.858  -1.313  0.00  0.00    +0.188 C 
ENDBRANCH  22  24
ENDBRANCH  19  20
ENDBRANCH   4  19
TORSDOF 4
