REMARK  Name = ZINC49978549
REMARK  6 active torsions:
REMARK  status: ('A' for Active; 'I' for Inactive)
REMARK    1  A    between atoms: C_1  and  C_2
REMARK    2  A    between atoms: C_4  and  C_20
REMARK    3  A    between atoms: C_6  and  N_8
REMARK    4  A    between atoms: N_8  and  C_9
REMARK    5  A    between atoms: N_8  and  S_10
REMARK    6  A    between atoms: S_10  and  C_13
REMARK                            x       y       z     vdW  Elec       q    Type
REMARK                         _______ _______ _______ _____ _____    ______ ____
ROOT
ATOM      1  S   UNL     1      -0.442  -2.060   3.789  0.00  0.00    +0.079 S 
ATOM      2  O   UNL     1       0.273  -2.681   4.849  0.00  0.00    -0.150 OA
ATOM      3  O   UNL     1      -0.389  -0.660   3.552  0.00  0.00    -0.150 OA
ENDROOT
BRANCH   1   4
ATOM      4  C   UNL     1      -2.141  -2.467   4.021  0.00  0.00    +0.167 A 
ATOM      5  C   UNL     1      -2.652  -3.202   5.035  0.00  0.00    +0.135 A 
ATOM      6  N   UNL     1      -3.987  -3.286   4.853  0.00  0.00    -0.281 N 
ATOM      7  H   UNL     1      -4.612  -3.754   5.428  0.00  0.00    +0.188 HD
ATOM      8  N   UNL     1      -4.311  -2.579   3.688  0.00  0.00    -0.157 NA
ATOM      9  C   UNL     1      -3.204  -2.081   3.190  0.00  0.00    +0.165 A 
ATOM     10  N   UNL     1      -3.102  -1.304   2.030  0.00  0.00    -0.340 N 
ATOM     11  H   UNL     1      -2.235  -0.981   1.738  0.00  0.00    +0.144 HD
ATOM     12  H   UNL     1      -3.897  -1.088   1.519  0.00  0.00    +0.144 HD
ENDBRANCH   1   4
BRANCH   1  13
ATOM     13  N   UNL     1       0.051  -2.796   2.390  0.00  0.00    -0.206 N 
ATOM     14  C   UNL     1       0.473  -4.199   2.410  0.00  0.00    +0.157 C 
BRANCH  13  20
ATOM     15  C   UNL     1       1.677   1.028  -0.233  0.00  0.00    +0.044 C 
ATOM     16  C   UNL     1       0.844  -0.222  -0.109  0.00  0.00    -0.048 A 
ATOM     17  C   UNL     1       0.093  -0.661  -1.184  0.00  0.00    +0.006 A 
ATOM     18  C   UNL     1      -0.673  -1.807  -1.074  0.00  0.00    -0.048 A 
ATOM     19  C   UNL     1      -0.689  -2.518   0.110  0.00  0.00    +0.028 A 
ATOM     20  C   UNL     1       0.065  -2.080   1.192  0.00  0.00    +0.051 A 
ATOM     21  C   UNL     1       0.837  -0.931   1.076  0.00  0.00    +0.028 A 
ATOM     22  C   UNL     1      -1.492  -2.281  -2.247  0.00  0.00    +0.044 C 
ENDBRANCH  13  20
ENDBRANCH   1  13
TORSDOF 3
