REMARK  Name = ZINC36038924
REMARK  11 active torsions:
REMARK  status: ('A' for Active; 'I' for Inactive)
REMARK    1  A    between atoms: C_1  and  C_2
REMARK    2  A    between atoms: C_4  and  N_21
REMARK    3  A    between atoms: C_6  and  S_8
REMARK    4  A    between atoms: S_8  and  C_9
REMARK    5  A    between atoms: C_9  and  C_10
REMARK    6  A    between atoms: C_13  and  C_15
REMARK    7  A    between atoms: N_17  and  C_18
REMARK    8  A    between atoms: C_18  and  C_19
REMARK    9  A    between atoms: C_18  and  C_20
REMARK   10  A    between atoms: N_24  and  C_27
REMARK   11  A    between atoms: C_27  and  C_28
REMARK                            x       y       z     vdW  Elec       q    Type
REMARK                         _______ _______ _______ _____ _____    ______ ____
ROOT
ATOM      1  C   UNL     1       0.408   1.477   0.028  0.00  0.00    +0.066 C 
ATOM      2  C   UNL     1       0.205  -0.017   0.011  0.00  0.00    +0.044 A 
ATOM      3  C   UNL     1       0.217  -0.709  -1.185  0.00  0.00    +0.066 A 
ATOM      4  C   UNL     1       0.025  -2.091  -1.157  0.00  0.00    +0.126 A 
ATOM      5  N   UNL     1      -0.163  -2.693   0.014  0.00  0.00    -0.207 NA
ATOM      6  C   UNL     1      -0.167  -1.992   1.139  0.00  0.00    +0.191 A 
ATOM      7  N   UNL     1       0.018  -0.680   1.142  0.00  0.00    -0.227 NA
ENDROOT
BRANCH   4   8
ATOM      8  N   UNL     1       0.029  -2.826  -2.331  0.00  0.00    -0.319 N 
ATOM      9  C   UNL     1       0.043  -4.297  -2.304  0.00  0.00    +0.088 C 
ATOM     10  C   UNL     1      -1.075  -4.810  -3.217  0.00  0.00    -0.059 C 
ATOM     11  N   UNL     1      -0.918  -4.228  -4.556  0.00  0.00    +0.384 N 
ATOM     12  C   UNL     1      -1.098  -2.772  -4.492  0.00  0.00    -0.059 C 
ATOM     13  C   UNL     1       0.013  -2.157  -3.641  0.00  0.00    +0.088 C 
ATOM     14  H   UNL     1       0.005  -4.436  -4.906  0.00  0.00    -0.081 HD
BRANCH  11  15
ATOM     15  C   UNL     1      -1.923  -4.804  -5.459  0.00  0.00    -0.043 C 
BRANCH  15  16
ATOM     16  C   UNL     1      -1.686  -4.301  -6.860  0.00  0.00    -0.060 A 
ATOM     17  C   UNL     1      -2.298  -3.137  -7.287  0.00  0.00    +0.005 A 
ATOM     18  C   UNL     1      -2.083  -2.671  -8.571  0.00  0.00    +0.050 A 
ATOM     19  C   UNL     1      -1.255  -3.370  -9.433  0.00  0.00    +0.166 A 
ATOM     20  C   UNL     1      -0.638  -4.543  -9.003  0.00  0.00    +0.166 A 
ATOM     21  C   UNL     1      -0.853  -5.001  -7.713  0.00  0.00    +0.051 A 
ATOM     22  O   UNL     1       0.118  -5.039 -10.025  0.00  0.00    -0.453 OA
ATOM     23  C   UNL     1      -0.363  -4.382 -11.213  0.00  0.00    +0.466 C 
ATOM     24  O   UNL     1      -0.884  -3.131 -10.725  0.00  0.00    -0.453 OA
ENDBRANCH  15  16
ENDBRANCH  11  15
ENDBRANCH   4   8
BRANCH   6  25
ATOM     25  S   UNL     1      -0.419  -2.828   2.670  0.00  0.00    -0.078 S 
BRANCH  25  26
ATOM     26  C   UNL     1      -0.349  -1.505   3.909  0.00  0.00    +0.151 C 
BRANCH  26  27
ATOM     27  C   UNL     1      -0.552  -2.091   5.282  0.00  0.00    +0.116 A 
ATOM     28  C   UNL     1       0.426  -2.541   6.098  0.00  0.00    +0.046 A 
ATOM     29  C   UNL     1      -0.194  -2.999   7.271  0.00  0.00    +0.055 A 
ATOM     30  C   UNL     1      -1.535  -2.804   7.109  0.00  0.00    +0.189 A 
ATOM     31  O   UNL     1      -1.732  -2.246   5.896  0.00  0.00    -0.454 OA
BRANCH  30  32
ATOM     32  C   UNL     1      -2.579  -3.137   8.084  0.00  0.00    +0.280 C 
ATOM     33  O   UNL     1      -2.276  -3.635   9.152  0.00  0.00    -0.267 OA
ATOM     34  N   UNL     1      -3.872  -2.890   7.797  0.00  0.00    -0.307 N 
ATOM     35  H   UNL     1      -4.113  -2.493   6.946  0.00  0.00    +0.149 HD
BRANCH  34  36
ATOM     36  C   UNL     1      -4.915  -3.223   8.771  0.00  0.00    +0.067 C 
ATOM     37  C   UNL     1      -6.138  -2.336   8.532  0.00  0.00    +0.027 C 
ATOM     38  C   UNL     1      -5.311  -4.692   8.612  0.00  0.00    +0.027 C 
ENDBRANCH  34  36
ENDBRANCH  30  32
ENDBRANCH  26  27
ENDBRANCH  25  26
ENDBRANCH   6  25
TORSDOF 8
