REMARK  Name = ZINC22744656
REMARK  9 active torsions:
REMARK  status: ('A' for Active; 'I' for Inactive)
REMARK    1  A    between atoms: C_1  and  C_2
REMARK    2  A    between atoms: C_5  and  C_8
REMARK    3  A    between atoms: N_13  and  C_16
REMARK    4  A    between atoms: C_19  and  N_22
REMARK    5  A    between atoms: N_22  and  C_23
REMARK    6  A    between atoms: C_23  and  N_25
REMARK    7  A    between atoms: C_26  and  C_28
REMARK    8  A    between atoms: C_30  and  C_35
REMARK    9  A    between atoms: C_32  and  C_34
REMARK                            x       y       z     vdW  Elec       q    Type
REMARK                         _______ _______ _______ _____ _____    ______ ____
ROOT
ATOM      1  C   UNL     1      -1.462  -6.866   4.587  0.00  0.00    +0.030 A 
ATOM      2  C   UNL     1      -1.962  -6.245   5.725  0.00  0.00    +0.025 A 
ATOM      3  C   UNL     1      -2.055  -6.947   6.910  0.00  0.00    +0.025 A 
ATOM      4  C   UNL     1      -1.650  -8.274   6.965  0.00  0.00    +0.033 A 
ATOM      5  C   UNL     1      -1.151  -8.895   5.828  0.00  0.00    +0.025 A 
ATOM      6  C   UNL     1      -1.062  -8.195   4.641  0.00  0.00    +0.025 A 
ENDROOT
BRANCH   1  12
ATOM      7  C   UNL     1      -2.255  -4.462  -0.115  0.00  0.00    +0.247 C 
ATOM      8  O   UNL     1      -2.408  -3.256  -0.121  0.00  0.00    -0.270 OA
ATOM      9  N   UNL     1      -2.346  -5.147   1.042  0.00  0.00    -0.295 N 
ATOM     10  C   UNL     1      -2.051  -6.586   1.084  0.00  0.00    +0.127 C 
ATOM     11  C   UNL     1      -0.970  -6.833   2.145  0.00  0.00    +0.124 C 
ATOM     12  N   UNL     1      -1.367  -6.155   3.386  0.00  0.00    -0.327 N 
ATOM     13  C   UNL     1      -1.663  -4.716   3.344  0.00  0.00    +0.124 C 
ATOM     14  C   UNL     1      -2.738  -4.468   2.285  0.00  0.00    +0.127 C 
BRANCH   7  19
ATOM     15  C   UNL     1      -1.139  -7.246  -5.027  0.00  0.00    +0.044 C 
ATOM     16  C   UNL     1      -1.432  -6.517  -3.740  0.00  0.00    -0.050 A 
ATOM     17  C   UNL     1      -0.941  -5.238  -3.547  0.00  0.00    +0.004 A 
ATOM     18  C   UNL     1      -1.204  -4.565  -2.372  0.00  0.00    +0.013 A 
ATOM     19  C   UNL     1      -1.969  -5.177  -1.377  0.00  0.00    +0.037 A 
ATOM     20  C   UNL     1      -2.461  -6.468  -1.579  0.00  0.00    +0.013 A 
ATOM     21  C   UNL     1      -2.194  -7.127  -2.761  0.00  0.00    +0.004 A 
ENDBRANCH   7  19
ENDBRANCH   1  12
BRANCH   4  22
ATOM     22  N   UNL     1      -1.744  -8.986   8.168  0.00  0.00    -0.297 N 
ATOM     23  H   UNL     1      -1.028  -9.584   8.436  0.00  0.00    +0.154 HD
BRANCH  22  24
ATOM     24  C   UNL     1      -2.830  -8.842   8.953  0.00  0.00    +0.141 C 
ATOM     25  S   UNL     1      -4.155  -7.900   8.416  0.00  0.00    -0.018 S 
BRANCH  24  26
ATOM     26  N   UNL     1      -2.874  -9.440  10.160  0.00  0.00    -0.264 N 
ATOM     27  C   UNL     1      -3.959  -9.295  10.945  0.00  0.00    +0.250 C 
ATOM     28  O   UNL     1      -4.900  -8.626  10.564  0.00  0.00    -0.270 OA
ATOM     29  H   UNL     1      -2.123  -9.974  10.464  0.00  0.00    +0.157 HD
BRANCH  27  30
ATOM     30  C   UNL     1      -4.007  -9.950  12.269  0.00  0.00    +0.038 A 
ATOM     31  C   UNL     1      -2.926 -10.715  12.712  0.00  0.00    +0.016 A 
ATOM     32  C   UNL     1      -2.976 -11.323  13.949  0.00  0.00    -0.049 A 
ATOM     33  C   UNL     1      -4.095 -11.177  14.750  0.00  0.00    +0.006 A 
ATOM     34  C   UNL     1      -5.170 -10.421  14.317  0.00  0.00    -0.049 A 
ATOM     35  C   UNL     1      -5.130  -9.803  13.085  0.00  0.00    +0.016 A 
ATOM     36  C   UNL     1      -6.384 -10.268  15.197  0.00  0.00    +0.044 C 
ATOM     37  C   UNL     1      -1.811 -12.149  14.428  0.00  0.00    +0.044 C 
ENDBRANCH  27  30
ENDBRANCH  24  26
ENDBRANCH  22  24
ENDBRANCH   4  22
TORSDOF 6
