REMARK  Name = ZINC07763029
REMARK  4 active torsions:
REMARK  status: ('A' for Active; 'I' for Inactive)
REMARK    1  A    between atoms: C_1  and  C_2
REMARK    2  A    between atoms: C_4  and  C_15
REMARK    3  A    between atoms: C_5  and  C_14
REMARK    4  A    between atoms: N_6  and  C_7
REMARK                            x       y       z     vdW  Elec       q    Type
REMARK                         _______ _______ _______ _____ _____    ______ ____
ROOT
ATOM      1  C   UNL     1      -3.324  -3.844   0.014  0.00  0.00    +0.064 C 
ATOM      2  C   UNL     1      -2.719  -2.463   0.015  0.00  0.00    +0.022 A 
ATOM      3  C   UNL     1      -1.402  -2.182  -0.002  0.00  0.00    +0.033 A 
ATOM      4  C   UNL     1      -1.270  -0.770   0.011  0.00  0.00    +0.022 A 
ATOM      5  C   UNL     1      -2.526  -0.249   0.025  0.00  0.00    +0.030 A 
ATOM      6  N   UNL     1      -3.414  -1.287   0.028  0.00  0.00    -0.317 N 
ATOM      7  C   UNL     1      -2.877   1.216   0.037  0.00  0.00    +0.064 C 
ENDROOT
BRANCH   4   8
ATOM      8  C   UNL     1       0.002  -0.004   0.002  0.00  0.00    +0.082 A 
ATOM      9  C   UNL     1       1.200  -0.659  -0.013  0.00  0.00    +0.077 A 
ATOM     10  S   UNL     1       2.334   0.724  -0.016  0.00  0.00    -0.060 S 
ATOM     11  C   UNL     1       1.105   2.021   0.002  0.00  0.00    +0.156 A 
ATOM     12  N   UNL     1      -0.016   1.321   0.009  0.00  0.00    -0.225 NA
ATOM     13  N   UNL     1       1.280   3.395   0.008  0.00  0.00    -0.338 N 
ATOM     14  H   UNL     1       0.508   3.983   0.018  0.00  0.00    +0.144 HD
ATOM     15  H   UNL     1       2.175   3.770   0.001  0.00  0.00    +0.144 HD
ENDBRANCH   4   8
BRANCH   6  16
ATOM     16  C   UNL     1      -4.810  -1.165   0.042  0.00  0.00    +0.047 A 
ATOM     17  C   UNL     1      -5.449  -0.610   1.143  0.00  0.00    +0.027 A 
ATOM     18  C   UNL     1      -6.824  -0.487   1.152  0.00  0.00    +0.017 A 
ATOM     19  C   UNL     1      -7.567  -0.926   0.070  0.00  0.00    +0.018 A 
ATOM     20  C   UNL     1      -6.933  -1.484  -1.026  0.00  0.00    +0.017 A 
ATOM     21  C   UNL     1      -5.557  -1.605  -1.042  0.00  0.00    +0.027 A 
ATOM     22 BR   UNL     1      -9.450  -0.763   0.090  0.00  0.00    -0.050 Br
ENDBRANCH   6  16
TORSDOF 2
