REMARK  Name = ZINC40051509
REMARK  8 active torsions:
REMARK  status: ('A' for Active; 'I' for Inactive)
REMARK    1  A    between atoms: C_1  and  N_2
REMARK    2  A    between atoms: N_2  and  C_3
REMARK    3  A    between atoms: N_2  and  C_28
REMARK    4  A    between atoms: C_3  and  C_4
REMARK    5  A    between atoms: C_9  and  N_10
REMARK    6  A    between atoms: C_11  and  C_13
REMARK    7  A    between atoms: C_17  and  N_19
REMARK    8  A    between atoms: C_20  and  C_22
REMARK                            x       y       z     vdW  Elec       q    Type
REMARK                         _______ _______ _______ _____ _____    ______ ____
ROOT
ATOM      1  N   UNL     1      -1.555  -1.978   2.095  0.00  0.00    -0.281 N 
ATOM      2  C   UNL     1      -2.833  -2.403   2.134  0.00  0.00    +0.248 C 
ATOM      3  O   UNL     1      -3.666  -1.771   2.755  0.00  0.00    -0.270 OA
ATOM      4  H   UNL     1      -0.909  -2.435   1.535  0.00  0.00    +0.155 HD
ENDROOT
BRANCH   1  10
ATOM      5  C   UNL     1      -0.059  -0.121   2.479  0.00  0.00    -0.043 A 
ATOM      6  C   UNL     1       0.324   0.970   3.234  0.00  0.00    +0.003 A 
ATOM      7  C   UNL     1      -0.384   1.308   4.372  0.00  0.00    +0.000 A 
ATOM      8  C   UNL     1      -1.479   0.555   4.758  0.00  0.00    +0.002 A 
ATOM      9  C   UNL     1      -1.867  -0.537   4.007  0.00  0.00    +0.023 A 
ATOM     10  C   UNL     1      -1.161  -0.876   2.860  0.00  0.00    +0.035 A 
BRANCH   5  11
ATOM     11  C   UNL     1       0.714  -0.489   1.238  0.00  0.00    -0.041 C 
BRANCH  11  13
ATOM     12  C   UNL     1      -0.011   1.482   0.079  0.00  0.00    -0.095 C 
ATOM     13  N   UNL     1       0.006   0.013   0.053  0.00  0.00    +0.382 N 
ATOM     14  H   UNL     1      -0.941  -0.335   0.055  0.00  0.00    -0.081 HD
BRANCH  13  15
ATOM     15  C   UNL     1       0.695  -0.447  -1.160  0.00  0.00    -0.069 C 
ATOM     16  C   UNL     1      -0.043   0.076  -2.394  0.00  0.00    -0.015 C 
ATOM     17  C   UNL     1       0.674  -0.404  -3.658  0.00  0.00    -0.002 C 
ATOM     18  C   UNL     1       0.692  -1.933  -3.685  0.00  0.00    -0.000 C 
ATOM     19  C   UNL     1       1.430  -2.456  -2.450  0.00  0.00    -0.002 C 
ATOM     20  C   UNL     1       0.713  -1.977  -1.187  0.00  0.00    -0.015 C 
ENDBRANCH  13  15
ENDBRANCH  11  13
ENDBRANCH   5  11
ENDBRANCH   1  10
BRANCH   2  21
ATOM     21  C   UNL     1      -3.223  -3.639   1.423  0.00  0.00    +0.039 A 
ATOM     22  C   UNL     1      -2.268  -4.370   0.714  0.00  0.00    +0.013 A 
ATOM     23  C   UNL     1      -2.635  -5.524   0.051  0.00  0.00    +0.003 A 
ATOM     24  C   UNL     1      -3.946  -5.960   0.086  0.00  0.00    +0.023 A 
ATOM     25  C   UNL     1      -4.904  -5.239   0.789  0.00  0.00    +0.034 A 
ATOM     26  C   UNL     1      -4.545  -4.082   1.463  0.00  0.00    +0.036 A 
BRANCH  25  27
ATOM     27  N   UNL     1      -6.231  -5.684   0.820  0.00  0.00    -0.283 N 
ATOM     28  C   UNL     1      -7.241  -4.792   0.831  0.00  0.00    +0.246 C 
ATOM     29  O   UNL     1      -7.001  -3.605   0.901  0.00  0.00    -0.273 OA
ATOM     30  H   UNL     1      -6.423  -6.635   0.835  0.00  0.00    +0.155 HD
BRANCH  28  31
ATOM     31  C   UNL     1      -8.668  -5.269   0.757  0.00  0.00    +0.204 C 
ATOM     32  C   UNL     1      -9.039  -6.060   2.037  0.00  0.00    +0.043 C 
ATOM     33  C   UNL     1     -10.581  -5.878   2.060  0.00  0.00    +0.031 C 
ATOM     34  C   UNL     1     -10.752  -4.458   1.478  0.00  0.00    +0.161 C 
ATOM     35  O   UNL     1      -9.568  -4.150   0.731  0.00  0.00    -0.367 OA
ENDBRANCH  28  31
ENDBRANCH  25  27
ENDBRANCH   2  21
TORSDOF 7
