REMARK  Name = ZINC13211458
REMARK  7 active torsions:
REMARK  status: ('A' for Active; 'I' for Inactive)
REMARK    1  A    between atoms: C_6  and  C_7
REMARK    2  A    between atoms: C_7  and  N_8
REMARK    3  A    between atoms: N_8  and  C_9
REMARK    4  A    between atoms: C_12  and  N_26
REMARK    5  A    between atoms: C_14  and  S_15
REMARK    6  A    between atoms: S_15  and  N_18
REMARK    7  A    between atoms: C_21  and  C_24
REMARK                            x       y       z     vdW  Elec       q    Type
REMARK                         _______ _______ _______ _____ _____    ______ ____
ROOT
ATOM      1  C   UNL     1       5.827  -1.584  -1.912  0.00  0.00    +0.054 A 
ATOM      2  C   UNL     1       6.851  -1.966  -1.053  0.00  0.00    +0.027 A 
ATOM      3  C   UNL     1       7.906  -2.717  -1.531  0.00  0.00    +0.034 A 
ATOM      4  C   UNL     1       7.945  -3.091  -2.862  0.00  0.00    +0.128 A 
ATOM      5  C   UNL     1       6.928  -2.713  -3.719  0.00  0.00    +0.063 A 
ATOM      6  C   UNL     1       5.866  -1.966  -3.247  0.00  0.00    +0.128 A 
ENDROOT
BRANCH   6   7
ATOM      7  S   UNL     1       4.567  -1.492  -4.338  0.00  0.00    +0.063 S 
ATOM      8  O   UNL     1       4.896  -2.020  -5.615  0.00  0.00    -0.153 OA
ATOM      9  O   UNL     1       3.348  -1.801  -3.676  0.00  0.00    -0.153 OA
BRANCH   7  10
ATOM     10  N   UNL     1       4.623   0.158  -4.479  0.00  0.00    -0.176 NA
ATOM     11  C   UNL     1       3.762   1.010  -3.648  0.00  0.00    +0.110 C 
ATOM     12  C   UNL     1       2.975   1.955  -4.554  0.00  0.00    +0.032 C 
ATOM     13  C   UNL     1       3.946   2.726  -5.450  0.00  0.00    +0.105 C 
ATOM     14  C   UNL     1       4.721   1.743  -6.331  0.00  0.00    +0.032 C 
ATOM     15  C   UNL     1       5.532   0.796  -5.441  0.00  0.00    +0.110 C 
BRANCH  13  16
ATOM     16  C   UNL     1       3.174   3.682  -6.322  0.00  0.00    +0.359 C 
ATOM     17  O   UNL     1       3.236   3.586  -7.525  0.00  0.00    -0.246 OA
ATOM     18  O   UNL     1       2.417   4.639  -5.764  0.00  0.00    -0.246 OA
ENDBRANCH  13  16
ENDBRANCH   7  10
ENDBRANCH   6   7
BRANCH   4  19
ATOM     19  N   UNL     1       9.077  -3.897  -3.370  0.00  0.00    +0.056 N 
ATOM     20  O   UNL     1       9.974  -4.231  -2.616  0.00  0.00    -0.126 OA
ATOM     21  O   UNL     1       9.112  -4.227  -4.542  0.00  0.00    -0.126 OA
ENDBRANCH   4  19
BRANCH   1  22
ATOM     22  N   UNL     1       4.759  -0.824  -1.432  0.00  0.00    -0.338 N 
ATOM     23  H   UNL     1       4.007  -0.624  -2.012  0.00  0.00    +0.146 HD
BRANCH  22  24
ATOM     24  C   UNL     1       4.772  -0.329  -0.053  0.00  0.00    +0.137 C 
BRANCH  24  30
ATOM     25  C   UNL     1       2.390  -0.184   0.697  0.00  0.00    +0.009 A 
ATOM     26  C   UNL     1       1.233   0.534   0.939  0.00  0.00    +0.050 A 
ATOM     27  C   UNL     1       1.198   1.898   0.696  0.00  0.00    +0.162 A 
ATOM     28  C   UNL     1       2.329   2.543   0.209  0.00  0.00    +0.162 A 
ATOM     29  C   UNL     1       3.486   1.818  -0.032  0.00  0.00    +0.054 A 
ATOM     30  C   UNL     1       3.514   0.457   0.211  0.00  0.00    -0.027 A 
ATOM     31  O   UNL     1       2.319   3.883  -0.029  0.00  0.00    -0.485 OA
ATOM     32  C   UNL     1       1.035   4.509  -0.130  0.00  0.00    +0.270 C 
ATOM     33  C   UNL     1       0.166   4.013   1.034  0.00  0.00    +0.270 C 
ATOM     34  O   UNL     1       0.050   2.590   0.931  0.00  0.00    -0.485 OA
ENDBRANCH  24  30
ENDBRANCH  22  24
ENDBRANCH   1  22
TORSDOF 7
