REMARK  Name = ZINC45781596
REMARK  9 active torsions:
REMARK  status: ('A' for Active; 'I' for Inactive)
REMARK    1  A    between atoms: C_1  and  C_2
REMARK    2  A    between atoms: C_2  and  C_4
REMARK    3  A    between atoms: C_2  and  N_19
REMARK    4  A    between atoms: C_8  and  N_10
REMARK    5  A    between atoms: C_11  and  C_13
REMARK    6  A    between atoms: N_19  and  C_20
REMARK    7  A    between atoms: C_21  and  C_23
REMARK    8  A    between atoms: C_23  and  N_24
REMARK    9  A    between atoms: C_25  and  C_27
REMARK                            x       y       z     vdW  Elec       q    Type
REMARK                         _______ _______ _______ _____ _____    ______ ____
ROOT
ATOM      1  C   UNL     1      -0.031   1.575  -0.071  0.00  0.00    +0.033 C 
ATOM      2  C   UNL     1      -0.036   0.046  -0.040  0.00  0.00    +0.103 C 
ENDROOT
BRANCH   2   3
ATOM      3  C   UNL     1       0.659  -0.434   1.208  0.00  0.00    -0.026 A 
ATOM      4  C   UNL     1       1.668   0.327   1.772  0.00  0.00    +0.005 A 
ATOM      5  C   UNL     1       2.308  -0.109   2.918  0.00  0.00    +0.002 A 
ATOM      6  C   UNL     1       1.942  -1.306   3.502  0.00  0.00    +0.023 A 
ATOM      7  C   UNL     1       0.930  -2.072   2.939  0.00  0.00    +0.034 A 
ATOM      8  C   UNL     1       0.285  -1.628   1.791  0.00  0.00    +0.028 A 
BRANCH   7   9
ATOM      9  N   UNL     1       0.557  -3.284   3.528  0.00  0.00    -0.281 N 
ATOM     10  C   UNL     1       0.581  -3.417   4.869  0.00  0.00    +0.248 C 
ATOM     11  O   UNL     1       1.006  -2.513   5.562  0.00  0.00    -0.270 OA
ATOM     12  H   UNL     1       0.281  -4.029   2.972  0.00  0.00    +0.155 HD
BRANCH  10  13
ATOM     13  C   UNL     1       0.091  -4.662   5.497  0.00  0.00    +0.037 A 
ATOM     14  C   UNL     1      -0.392  -5.704   4.704  0.00  0.00    +0.013 A 
ATOM     15  C   UNL     1      -0.847  -6.863   5.297  0.00  0.00    +0.001 A 
ATOM     16  C   UNL     1      -0.827  -6.994   6.674  0.00  0.00    +0.000 A 
ATOM     17  C   UNL     1      -0.350  -5.965   7.466  0.00  0.00    +0.001 A 
ATOM     18  C   UNL     1       0.115  -4.803   6.886  0.00  0.00    +0.013 A 
ENDBRANCH  10  13
ENDBRANCH   7   9
ENDBRANCH   2   3
BRANCH   2  19
ATOM     19  N   UNL     1      -1.419  -0.438  -0.044  0.00  0.00    -0.296 N 
ATOM     20  C   UNL     1      -2.362   0.029   0.975  0.00  0.00    +0.132 C 
ATOM     21  C   UNL     1      -1.824  -1.313  -0.987  0.00  0.00    +0.233 C 
ATOM     22  O   UNL     1      -1.043  -1.699  -1.831  0.00  0.00    -0.274 OA
BRANCH  21  23
ATOM     23  C   UNL     1      -3.246  -1.810  -0.992  0.00  0.00    +0.200 C 
BRANCH  23  24
ATOM     24  N   UNL     1      -3.433  -2.743  -2.106  0.00  0.00    -0.303 N 
ATOM     25  C   UNL     1      -4.635  -3.318  -2.308  0.00  0.00    +0.244 C 
ATOM     26  O   UNL     1      -5.564  -3.063  -1.567  0.00  0.00    -0.270 OA
ATOM     27  H   UNL     1      -2.692  -2.947  -2.697  0.00  0.00    +0.150 HD
BRANCH  25  28
ATOM     28  C   UNL     1      -4.824  -4.260  -3.433  0.00  0.00    +0.038 A 
ATOM     29  C   UNL     1      -3.758  -4.559  -4.283  0.00  0.00    +0.013 A 
ATOM     30  C   UNL     1      -3.940  -5.438  -5.330  0.00  0.00    +0.002 A 
ATOM     31  C   UNL     1      -5.177  -6.023  -5.540  0.00  0.00    +0.015 A 
ATOM     32  C   UNL     1      -6.238  -5.730  -4.701  0.00  0.00    +0.019 A 
ATOM     33  C   UNL     1      -6.067  -4.857  -3.645  0.00  0.00    +0.028 A 
ATOM     34 BR   UNL     1      -7.924  -6.534  -4.997  0.00  0.00    -0.050 Br
ENDBRANCH  25  28
ENDBRANCH  23  24
ENDBRANCH  21  23
ENDBRANCH   2  19
TORSDOF 7
