REMARK  Name = ZINC28308860
REMARK  8 active torsions:
REMARK  status: ('A' for Active; 'I' for Inactive)
REMARK    1  A    between atoms: C_1  and  N_2
REMARK    2  A    between atoms: N_2  and  C_3
REMARK    3  A    between atoms: N_2  and  C_4
REMARK    4  A    between atoms: C_7  and  C_10
REMARK    5  A    between atoms: C_11  and  C_12
REMARK    6  A    between atoms: C_11  and  N_25
REMARK    7  A    between atoms: N_14  and  C_15
REMARK    8  A    between atoms: C_26  and  C_28
REMARK                            x       y       z     vdW  Elec       q    Type
REMARK                         _______ _______ _______ _____ _____    ______ ____
ROOT
ATOM      1  C   UNL     1      -6.071   3.364   0.265  0.00  0.00    +0.036 C 
ATOM      2  C   UNL     1      -4.846   3.942   0.229  0.00  0.00    +0.097 C 
ENDROOT
BRANCH   1   6
ATOM      3  C   UNL     1      -6.420  -0.844   0.664  0.00  0.00    +0.029 A 
ATOM      4  C   UNL     1      -7.422  -0.014   1.159  0.00  0.00    +0.023 A 
ATOM      5  C   UNL     1      -7.313   1.351   1.032  0.00  0.00    +0.010 A 
ATOM      6  C   UNL     1      -6.191   1.907   0.403  0.00  0.00    -0.023 A 
ATOM      7  C   UNL     1      -5.188   1.068  -0.098  0.00  0.00    +0.010 A 
ATOM      8  C   UNL     1      -5.303  -0.296   0.038  0.00  0.00    +0.023 A 
BRANCH   3  10
ATOM      9  C   UNL     1      -7.765  -2.811   1.334  0.00  0.00    +0.129 C 
ATOM     10  N   UNL     1      -6.534  -2.226   0.795  0.00  0.00    -0.336 N 
ATOM     11  C   UNL     1      -5.425  -3.094   0.394  0.00  0.00    +0.129 C 
ENDBRANCH   3  10
ENDBRANCH   1   6
BRANCH   2  12
ATOM     12  C   UNL     1      -3.647   3.139   0.497  0.00  0.00    +0.262 C 
ATOM     13  O   UNL     1      -2.913   2.817  -0.419  0.00  0.00    -0.268 OA
ATOM     14  N   UNL     1      -3.360   2.757   1.757  0.00  0.00    -0.280 N 
ATOM     15  H   UNL     1      -4.042   3.017   2.580  0.00  0.00    +0.155 HD
BRANCH  14  16
ATOM     16  C   UNL     1      -2.197   2.032   2.018  0.00  0.00    +0.041 A 
ATOM     17  C   UNL     1      -1.573   1.331   1.008  0.00  0.00    +0.024 A 
ATOM     18  C   UNL     1      -0.416   0.600   1.259  0.00  0.00    +0.002 A 
ATOM     19  C   UNL     1       0.137   0.565   2.503  0.00  0.00    +0.008 A 
ATOM     20  C   UNL     1      -0.465   1.270   3.559  0.00  0.00    -0.016 A 
ATOM     21  C   UNL     1      -1.646   2.014   3.317  0.00  0.00    +0.003 A 
ATOM     22  C   UNL     1      -2.245   2.718   4.373  0.00  0.00    +0.010 A 
ATOM     23  C   UNL     1      -1.686   2.678   5.613  0.00  0.00    +0.001 A 
ATOM     24  C   UNL     1      -0.524   1.947   5.853  0.00  0.00    +0.001 A 
ATOM     25  C   UNL     1       0.084   1.252   4.853  0.00  0.00    +0.008 A 
ENDBRANCH  14  16
ENDBRANCH   2  12
BRANCH   2  26
ATOM     26  N   UNL     1      -4.723   5.305  -0.064  0.00  0.00    -0.277 N 
ATOM     27  C   UNL     1      -3.519   5.905   0.013  0.00  0.00    +0.248 C 
ATOM     28  O   UNL     1      -2.525   5.246   0.249  0.00  0.00    -0.270 OA
ATOM     29  H   UNL     1      -5.610   5.886  -0.357  0.00  0.00    +0.155 HD
BRANCH  27  30
ATOM     30  C   UNL     1      -3.407   7.365  -0.189  0.00  0.00    +0.037 A 
ATOM     31  C   UNL     1      -4.546   8.124  -0.466  0.00  0.00    +0.014 A 
ATOM     32  C   UNL     1      -4.435   9.486  -0.648  0.00  0.00    +0.016 A 
ATOM     33  C   UNL     1      -3.197  10.100  -0.568  0.00  0.00    +0.018 A 
ATOM     34  C   UNL     1      -2.063   9.352  -0.299  0.00  0.00    +0.016 A 
ATOM     35  C   UNL     1      -2.161   7.990  -0.110  0.00  0.00    +0.014 A 
ATOM     36 BR   UNL     1      -3.053  11.968  -0.827  0.00  0.00    -0.050 Br
ENDBRANCH  27  30
ENDBRANCH   2  26
TORSDOF 6
