REMARK  Name = ZINC31978838
REMARK  1 active torsions:
REMARK  status: ('A' for Active; 'I' for Inactive)
REMARK    1  A    between atoms: C_15  and  N_20
REMARK                            x       y       z     vdW  Elec       q    Type
REMARK                         _______ _______ _______ _____ _____    ______ ____
ROOT
ATOM      1  C   UNL     1      -4.348  10.874  -1.244  0.00  0.00    +0.000 A 
ATOM      2  C   UNL     1      -3.167  10.773  -1.956  0.00  0.00    +0.000 A 
ATOM      3  C   UNL     1      -2.424   9.612  -1.893  0.00  0.00    +0.005 A 
ATOM      4  C   UNL     1      -2.855   8.544  -1.120  0.00  0.00    -0.027 A 
ATOM      5  C   UNL     1      -4.031   8.646  -0.408  0.00  0.00    -0.041 A 
ATOM      6  C   UNL     1      -4.778   9.813  -0.473  0.00  0.00    +0.004 A 
ATOM      7  C   UNL     1      -4.537   7.515   0.450  0.00  0.00    +0.054 C 
ATOM      8  C   UNL     1      -3.829   6.214   0.070  0.00  0.00    +0.114 C 
ATOM      9  N   UNL     1      -2.378   6.458   0.057  0.00  0.00    -0.280 N 
ATOM     10  C   UNL     1      -2.014   7.295  -1.090  0.00  0.00    +0.144 C 
ATOM     11  C   UNL     1      -1.679   5.272   0.045  0.00  0.00    +0.291 A 
ATOM     12  N   UNL     1      -0.375   5.171   0.032  0.00  0.00    -0.195 NA
ATOM     13  C   UNL     1      -0.039   3.851   0.022  0.00  0.00    +0.113 A 
ATOM     14  C   UNL     1       1.178   3.168   0.007  0.00  0.00    +0.054 A 
ATOM     15  C   UNL     1       1.186   1.784   0.000  0.00  0.00    +0.027 A 
ATOM     16  C   UNL     1      -0.013   1.076   0.008  0.00  0.00    +0.026 A 
ATOM     17  C   UNL     1      -1.219   1.745   0.017  0.00  0.00    +0.050 A 
ATOM     18  C   UNL     1      -1.242   3.131   0.030  0.00  0.00    +0.157 A 
ATOM     19  O   UNL     1      -2.237   4.049   0.044  0.00  0.00    -0.424 OA
ENDROOT
BRANCH  15  20
ATOM     20  N   UNL     1       2.403   1.095  -0.014  0.00  0.00    -0.358 N 
ATOM     21  H   UNL     1       2.412  -0.005  -0.020  0.00  0.00    +0.142 HD
ATOM     22  H   UNL     1       3.351   1.653  -0.020  0.00  0.00    +0.142 HD
ENDBRANCH  15  20
TORSDOF 1
