REMARK  Name = ZINC35097933
REMARK  11 active torsions:
REMARK  status: ('A' for Active; 'I' for Inactive)
REMARK    1  A    between atoms: C_1  and  C_2
REMARK    2  A    between atoms: C_2  and  C_3
REMARK    3  A    between atoms: C_3  and  C_5
REMARK    4  A    between atoms: C_3  and  C_6
REMARK    5  A    between atoms: C_6  and  C_8
REMARK    6  A    between atoms: C_6  and  N_24
REMARK    7  A    between atoms: C_14  and  C_17
REMARK    8  A    between atoms: N_20  and  C_21
REMARK    9  A    between atoms: C_21  and  C_22
REMARK   10  A    between atoms: C_21  and  C_23
REMARK   11  A    between atoms: C_25  and  C_27
REMARK                            x       y       z     vdW  Elec       q    Type
REMARK                         _______ _______ _______ _____ _____    ______ ____
ROOT
ATOM      1  C   UNL     1      -0.167  -0.244   2.263  0.00  0.00    +0.162 C 
ENDROOT
BRANCH   1   2
ATOM      2  C   UNL     1       0.395  -0.839   3.528  0.00  0.00    +0.236 C 
ATOM      3  O   UNL     1       0.583  -0.135   4.498  0.00  0.00    -0.274 OA
ATOM      4  N   UNL     1       0.689  -2.153   3.583  0.00  0.00    -0.297 N 
ATOM      5  C   UNL     1       0.565  -2.997   2.386  0.00  0.00    +0.127 C 
ATOM      6  C   UNL     1      -0.357  -4.178   2.713  0.00  0.00    +0.128 C 
ATOM      7  N   UNL     1       0.094  -4.793   3.970  0.00  0.00    -0.280 N 
ATOM      8  C   UNL     1       0.218  -3.948   5.166  0.00  0.00    +0.092 C 
ATOM      9  C   UNL     1       1.146  -2.766   4.838  0.00  0.00    +0.130 C 
ATOM     10  C   UNL     1      -1.162  -3.429   5.574  0.00  0.00    +0.030 C 
ATOM     11  C   UNL     1       0.388  -6.107   4.024  0.00  0.00    +0.303 C 
ATOM     12  O   UNL     1       0.663  -6.625   5.089  0.00  0.00    -0.253 OA
ATOM     13  N   UNL     1       0.378  -6.847   2.897  0.00  0.00    -0.297 N 
ATOM     14  H   UNL     1       0.236  -6.420   2.038  0.00  0.00    +0.150 HD
BRANCH  13  15
ATOM     15  C   UNL     1       0.581  -8.296   2.971  0.00  0.00    +0.068 C 
ATOM     16  C   UNL     1      -0.754  -8.984   3.260  0.00  0.00    +0.027 C 
ATOM     17  C   UNL     1       1.137  -8.801   1.638  0.00  0.00    +0.027 C 
ENDBRANCH  13  15
ENDBRANCH   1   2
BRANCH   1  18
ATOM     18  N   UNL     1      -0.532   1.155   2.501  0.00  0.00    -0.300 N 
ATOM     19  C   UNL     1      -1.579   1.698   1.849  0.00  0.00    +0.245 C 
ATOM     20  O   UNL     1      -2.280   1.003   1.139  0.00  0.00    -0.270 OA
ATOM     21  H   UNL     1      -0.020   1.690   3.128  0.00  0.00    +0.150 HD
BRANCH  19  22
ATOM     22  C   UNL     1      -1.876   3.138   1.998  0.00  0.00    +0.037 A 
ATOM     23  C   UNL     1      -1.069   3.939   2.808  0.00  0.00    +0.014 A 
ATOM     24  C   UNL     1      -1.351   5.283   2.943  0.00  0.00    +0.016 A 
ATOM     25  C   UNL     1      -2.431   5.837   2.277  0.00  0.00    +0.018 A 
ATOM     26  C   UNL     1      -3.234   5.047   1.472  0.00  0.00    +0.016 A 
ATOM     27  C   UNL     1      -2.959   3.704   1.324  0.00  0.00    +0.014 A 
ATOM     28 BR   UNL     1      -2.811   7.679   2.468  0.00  0.00    -0.050 Br
ENDBRANCH  19  22
ENDBRANCH   1  18
BRANCH   1  29
ATOM     29  C   UNL     1       0.886  -0.315   1.155  0.00  0.00    +0.015 C 
ATOM     30  C   UNL     1       0.262   0.126  -0.171  0.00  0.00    +0.010 C 
BRANCH  29  32
ATOM     31  C   UNL     1       2.808   0.051   2.709  0.00  0.00    +0.004 C 
ATOM     32  C   UNL     1       2.054   0.611   1.501  0.00  0.00    +0.002 C 
ENDBRANCH  29  32
ENDBRANCH   1  29
TORSDOF 6
