REMARK  Name = ZINC44168482
REMARK  14 active torsions:
REMARK  status: ('A' for Active; 'I' for Inactive)
REMARK    1  A    between atoms: C_1  and  C_2
REMARK    2  A    between atoms: C_5  and  C_8
REMARK    3  A    between atoms: C_8  and  N_9
REMARK    4  A    between atoms: C_10  and  C_12
REMARK    5  A    between atoms: C_17  and  C_20
REMARK    6  A    between atoms: C_22  and  C_31
REMARK    7  A    between atoms: C_23  and  O_30
REMARK    8  A    between atoms: C_24  and  C_26
REMARK    9  A    between atoms: C_26  and  C_27
REMARK   10  A    between atoms: C_26  and  C_28
REMARK   11  A    between atoms: C_26  and  C_29
REMARK   12  A    between atoms: C_31  and  C_32
REMARK   13  A    between atoms: C_31  and  C_33
REMARK   14  A    between atoms: C_31  and  C_34
REMARK                            x       y       z     vdW  Elec       q    Type
REMARK                         _______ _______ _______ _____ _____    ______ ____
ROOT
ATOM      1  C   UNL     1       3.137  -6.551  -0.051  0.00  0.00    +0.027 C 
ATOM      2  C   UNL     1       3.846  -6.020  -1.302  0.00  0.00    +0.062 C 
ATOM      3  S   UNL     1       5.582  -6.566  -1.250  0.00  0.00    -0.163 S 
ATOM      4  C   UNL     1       5.429  -8.348  -0.911  0.00  0.00    +0.058 C 
ATOM      5  C   UNL     1       4.484  -8.530   0.282  0.00  0.00    -0.030 C 
ATOM      6  N   UNL     1       3.155  -8.016  -0.055  0.00  0.00    +0.392 N 
ATOM      7  H   UNL     1       2.488  -8.356   0.621  0.00  0.00    -0.084 HD
ATOM      8  H   UNL     1       2.893  -8.347  -0.972  0.00  0.00    -0.084 HD
ENDROOT
BRANCH   5   9
ATOM      9  C   UNL     1       4.381  -9.996   0.619  0.00  0.00    -0.060 A 
ATOM     10  C   UNL     1       3.556 -10.819  -0.125  0.00  0.00    +0.009 A 
ATOM     11  C   UNL     1       3.460 -12.162   0.182  0.00  0.00    -0.000 A 
ATOM     12  C   UNL     1       4.192 -12.685   1.239  0.00  0.00    +0.124 A 
ATOM     13  C   UNL     1       5.019 -11.857   1.984  0.00  0.00    -0.000 A 
ATOM     14  C   UNL     1       5.116 -10.516   1.669  0.00  0.00    +0.009 A 
BRANCH  13  15
ATOM     15  C   UNL     1       5.815 -12.422   3.132  0.00  0.00    -0.009 C 
ATOM     16  C   UNL     1       6.637 -11.306   3.780  0.00  0.00    +0.015 C 
ATOM     17  C   UNL     1       4.862 -13.021   4.168  0.00  0.00    +0.015 C 
ATOM     18  C   UNL     1       6.755 -13.512   2.613  0.00  0.00    +0.015 C 
ENDBRANCH  13  15
BRANCH  11  19
ATOM     19  C   UNL     1       2.560 -13.059  -0.629  0.00  0.00    -0.009 C 
ATOM     20  C   UNL     1       1.874 -12.238  -1.723  0.00  0.00    +0.015 C 
ATOM     21  C   UNL     1       3.393 -14.170  -1.271  0.00  0.00    +0.015 C 
ATOM     22  C   UNL     1       1.500 -13.679   0.284  0.00  0.00    +0.015 C 
ENDBRANCH  11  19
BRANCH  12  23
ATOM     23  O   UNL     1       4.098 -14.006   1.543  0.00  0.00    -0.506 OA
ATOM     24  H   UNL     1       4.740 -14.563   1.082  0.00  0.00    +0.292 HD
ENDBRANCH  12  23
ENDBRANCH   5   9
BRANCH   1  26
ATOM     25  N   UNL     1       1.447  -4.746  -0.032  0.00  0.00    -0.313 N 
ATOM     26  C   UNL     1       1.710  -6.067  -0.040  0.00  0.00    +0.200 C 
ATOM     27  O   UNL     1       0.799  -6.867  -0.040  0.00  0.00    -0.278 OA
ATOM     28  H   UNL     1       2.176  -4.106  -0.032  0.00  0.00    +0.149 HD
BRANCH  25  29
ATOM     29  C   UNL     1       0.059  -4.275  -0.021  0.00  0.00    +0.139 C 
BRANCH  29  34
ATOM     30  C   UNL     1      -0.018   1.503   0.010  0.00  0.00    +0.044 C 
ATOM     31  C   UNL     1       0.002  -0.004   0.002  0.00  0.00    -0.050 A 
ATOM     32  C   UNL     1       0.006  -0.689  -1.199  0.00  0.00    +0.003 A 
ATOM     33  C   UNL     1       0.025  -2.071  -1.206  0.00  0.00    +0.005 A 
ATOM     34  C   UNL     1       0.040  -2.768  -0.013  0.00  0.00    -0.030 A 
ATOM     35  C   UNL     1       0.037  -2.084   1.188  0.00  0.00    +0.005 A 
ATOM     36  C   UNL     1       0.023  -0.702   1.195  0.00  0.00    +0.003 A 
ENDBRANCH  29  34
ENDBRANCH  25  29
ENDBRANCH   1  26
TORSDOF 7
