REMARK  Name = ZINC02924714
REMARK  6 active torsions:
REMARK  status: ('A' for Active; 'I' for Inactive)
REMARK    1  A    between atoms: C_1  and  C_2
REMARK    2  A    between atoms: C_5  and  N_9
REMARK    3  A    between atoms: C_10  and  C_12
REMARK    4  A    between atoms: C_12  and  N_13
REMARK    5  A    between atoms: C_14  and  C_16
REMARK    6  A    between atoms: C_16  and  N_17
REMARK                            x       y       z     vdW  Elec       q    Type
REMARK                         _______ _______ _______ _____ _____    ______ ____
ROOT
ATOM      1  N   UNL     1       2.896  -7.058  -2.546  0.00  0.00    -0.305 N 
ATOM      2  C   UNL     1       2.125  -6.059  -2.073  0.00  0.00    +0.233 C 
ATOM      3  O   UNL     1       1.380  -5.462  -2.820  0.00  0.00    -0.274 OA
ATOM      4  H   UNL     1       3.492  -7.535  -1.948  0.00  0.00    +0.149 HD
ENDROOT
BRANCH   1   5
ATOM      5  C   UNL     1       2.836  -7.421  -3.964  0.00  0.00    +0.200 C 
BRANCH   5   7
ATOM      6  N   UNL     1       3.902  -9.062  -5.477  0.00  0.00    -0.283 N 
ATOM      7  C   UNL     1       3.788  -8.557  -4.232  0.00  0.00    +0.234 C 
ATOM      8  O   UNL     1       4.453  -9.018  -3.328  0.00  0.00    -0.274 OA
ATOM      9  H   UNL     1       3.325  -8.738  -6.186  0.00  0.00    +0.155 HD
BRANCH   6  14
ATOM     10  C   UNL     1       7.758 -13.078  -6.569  0.00  0.00    +0.044 C 
ATOM     11  C   UNL     1       6.734 -12.011  -6.279  0.00  0.00    -0.049 A 
ATOM     12  C   UNL     1       6.098 -11.981  -5.052  0.00  0.00    +0.005 A 
ATOM     13  C   UNL     1       5.158 -11.005  -4.783  0.00  0.00    +0.024 A 
ATOM     14  C   UNL     1       4.854 -10.052  -5.747  0.00  0.00    +0.048 A 
ATOM     15  C   UNL     1       5.491 -10.088  -6.981  0.00  0.00    +0.039 A 
ATOM     16  C   UNL     1       6.433 -11.065  -7.242  0.00  0.00    +0.020 A 
ATOM     17 BR   UNL     1       5.074  -8.798  -8.299  0.00  0.00    -0.048 Br
ENDBRANCH   6  14
ENDBRANCH   5   7
ENDBRANCH   1   5
BRANCH   2  18
ATOM     18  C   UNL     1       2.187  -5.685  -0.614  0.00  0.00    +0.221 C 
BRANCH  18  19
ATOM     19  N   UNL     1       1.261  -4.580  -0.353  0.00  0.00    -0.290 N 
ATOM     20  C   UNL     1      -0.013  -4.876  -0.000  0.00  0.00    +0.203 A 
ATOM     21  N   UNL     1      -0.918  -3.956   0.253  0.00  0.00    -0.230 NA
ATOM     22  C   UNL     1      -0.542  -2.685   0.152  0.00  0.00    +0.116 A 
ATOM     23  C   UNL     1       0.762  -2.276  -0.208  0.00  0.00    +0.076 A 
ATOM     24  C   UNL     1       1.719  -3.312  -0.475  0.00  0.00    +0.263 A 
ATOM     25  O   UNL     1       2.869  -3.066  -0.793  0.00  0.00    -0.267 OA
ATOM     26  C   UNL     1       0.990  -0.844  -0.268  0.00  0.00    -0.023 A 
ATOM     27  C   UNL     1      -0.065  -0.048   0.026  0.00  0.00    -0.004 A 
ATOM     28  S   UNL     1      -1.398  -1.161   0.392  0.00  0.00    -0.073 S 
ATOM     29  C   UNL     1      -0.096   1.449   0.038  0.00  0.00    +0.043 C 
ATOM     30  C   UNL     1       1.350   1.966   0.029  0.00  0.00    +0.005 C 
ATOM     31  C   UNL     1       2.130   1.220  -1.057  0.00  0.00    +0.005 C 
ATOM     32  C   UNL     1       2.340  -0.235  -0.639  0.00  0.00    +0.037 C 
ENDBRANCH  18  19
ENDBRANCH   2  18
TORSDOF 5
