REMARK  Name = ZINC40941904
REMARK  2 active torsions:
REMARK  status: ('A' for Active; 'I' for Inactive)
REMARK    1  A    between atoms: C_5  and  N_7
REMARK    2  A    between atoms: C_8  and  C_10
REMARK                            x       y       z     vdW  Elec       q    Type
REMARK                         _______ _______ _______ _____ _____    ______ ____
ROOT
ATOM      1  C   UNL     1      -0.028   1.373   0.037  0.00  0.00    +0.004 A 
ATOM      2  C   UNL     1       1.157   2.083   0.032  0.00  0.00    +0.023 A 
ATOM      3  C   UNL     1       2.375   1.412   0.010  0.00  0.00    +0.032 A 
ATOM      4  C   UNL     1       2.404   0.027  -0.004  0.00  0.00    -0.005 A 
ATOM      5  C   UNL     1       1.208  -0.684  -0.001  0.00  0.00    +0.038 A 
ATOM      6  C   UNL     1      -0.005  -0.008   0.020  0.00  0.00    +0.024 A 
ATOM      7  C   UNL     1       3.703  -0.733  -0.017  0.00  0.00    +0.040 C 
ATOM      8  C   UNL     1       4.840   0.158  -0.518  0.00  0.00    +0.023 C 
ATOM      9  C   UNL     1       4.830   1.468   0.279  0.00  0.00    +0.102 C 
ATOM     10  N   UNL     1       3.561   2.154   0.001  0.00  0.00    -0.344 N 
ATOM     11  H   UNL     1       3.545   3.106  -0.188  0.00  0.00    +0.146 HD
ENDROOT
BRANCH   5  12
ATOM     12  N   UNL     1       1.228  -2.083  -0.020  0.00  0.00    -0.285 N 
ATOM     13  C   UNL     1       0.173  -2.765  -0.509  0.00  0.00    +0.223 C 
ATOM     14  O   UNL     1      -0.749  -2.169  -1.024  0.00  0.00    -0.275 OA
ATOM     15  H   UNL     1       2.000  -2.561   0.320  0.00  0.00    +0.155 HD
BRANCH  13  16
ATOM     16  C   UNL     1       0.140  -4.269  -0.415  0.00  0.00    +0.103 C 
ATOM     17  C   UNL     1      -1.131  -4.837  -1.103  0.00  0.00    +0.043 C 
ATOM     18  C   UNL     1      -0.633  -6.241  -1.528  0.00  0.00    +0.160 C 
ATOM     19  O   UNL     1       0.739  -6.053  -1.908  0.00  0.00    -0.379 OA
ATOM     20  C   UNL     1       1.278  -4.896  -1.249  0.00  0.00    +0.172 C 
ENDBRANCH  13  16
ENDBRANCH   5  12
TORSDOF 2
