REMARK  Name = ZINC40961041
REMARK  6 active torsions:
REMARK  status: ('A' for Active; 'I' for Inactive)
REMARK    1  A    between atoms: C_3  and  C_32
REMARK    2  A    between atoms: C_6  and  C_7
REMARK    3  A    between atoms: C_9  and  C_12
REMARK    4  A    between atoms: C_12  and  N_13
REMARK    5  A    between atoms: C_16  and  N_19
REMARK    6  A    between atoms: C_20  and  C_22
REMARK                            x       y       z     vdW  Elec       q    Type
REMARK                         _______ _______ _______ _____ _____    ______ ____
ROOT
ATOM      1  N   UNL     1      -3.330  -4.321   1.407  0.00  0.00    +0.386 N 
ATOM      2  C   UNL     1      -4.357  -3.511   2.073  0.00  0.00    -0.076 C 
ATOM      3  C   UNL     1      -4.472  -3.933   3.539  0.00  0.00    +0.004 C 
ATOM      4  C   UNL     1      -4.860  -5.413   3.611  0.00  0.00    +0.070 C 
ATOM      5  C   UNL     1      -3.820  -6.240   2.849  0.00  0.00    +0.004 C 
ATOM      6  C   UNL     1      -3.729  -5.733   1.408  0.00  0.00    -0.076 C 
ATOM      7  H   UNL     1      -2.454  -4.219   1.898  0.00  0.00    -0.081 HD
ENDROOT
BRANCH   4   8
ATOM      8  N   UNL     1      -4.897  -5.842   5.011  0.00  0.00    -0.309 N 
ATOM      9  C   UNL     1      -5.665  -6.888   5.375  0.00  0.00    +0.244 C 
ATOM     10  O   UNL     1      -6.327  -7.476   4.541  0.00  0.00    -0.270 OA
ATOM     11  H   UNL     1      -4.370  -5.373   5.676  0.00  0.00    +0.149 HD
BRANCH   9  12
ATOM     12  C   UNL     1      -5.703  -7.321   6.786  0.00  0.00    +0.037 A 
ATOM     13  C   UNL     1      -4.945  -6.640   7.748  0.00  0.00    +0.015 A 
ATOM     14  C   UNL     1      -4.969  -7.027   9.055  0.00  0.00    +0.027 A 
ATOM     15  C   UNL     1      -5.752  -8.110   9.451  0.00  0.00    +0.046 A 
ATOM     16  C   UNL     1      -6.519  -8.803   8.494  0.00  0.00    +0.000 A 
ATOM     17  C   UNL     1      -6.496  -8.401   7.161  0.00  0.00    +0.023 A 
ATOM     18  C   UNL     1      -7.213  -9.867   9.225  0.00  0.00    +0.027 A 
ATOM     19  C   UNL     1      -6.845  -9.762  10.511  0.00  0.00    +0.083 A 
ATOM     20  N   UNL     1      -5.973  -8.718  10.663  0.00  0.00    -0.361 N 
ATOM     21  H   UNL     1      -5.570  -8.448  11.503  0.00  0.00    +0.165 HD
ENDBRANCH   9  12
ENDBRANCH   4   8
BRANCH   1  22
ATOM     22  C   UNL     1      -3.168  -3.860   0.021  0.00  0.00    +0.022 C 
BRANCH  22  25
ATOM     23  C   UNL     1      -1.272  -0.766   0.011  0.00  0.00    +0.202 A 
ATOM     24  N   UNL     1      -1.384  -2.107   0.010  0.00  0.00    -0.193 NA
ATOM     25  C   UNL     1      -2.640  -2.449   0.019  0.00  0.00    +0.211 A 
ATOM     26  O   UNL     1      -3.384  -1.335   0.025  0.00  0.00    -0.340 OA
ATOM     27  N   UNL     1      -2.474  -0.246   0.026  0.00  0.00    -0.056 NA
BRANCH  23  33
ATOM     28  C   UNL     1      -0.017   1.389   0.010  0.00  0.00    +0.012 A 
ATOM     29  C   UNL     1       1.170   2.093   0.002  0.00  0.00    +0.013 A 
ATOM     30  C   UNL     1       2.377   1.418  -0.013  0.00  0.00    +0.055 A 
ATOM     31  C   UNL     1       2.402   0.035  -0.021  0.00  0.00    +0.013 A 
ATOM     32  C   UNL     1       1.221  -0.679  -0.014  0.00  0.00    +0.012 A 
ATOM     33  C   UNL     1       0.002  -0.004   0.002  0.00  0.00    +0.022 A 
BRANCH  30  34
ATOM     34  C   UNL     1       3.671   2.192  -0.023  0.00  0.00    +0.417 C 
ATOM     35  F   UNL     1       4.084   2.424   1.293  0.00  0.00    -0.166 F 
ATOM     36  F   UNL     1       4.651   1.454  -0.696  0.00  0.00    -0.166 F 
ATOM     37  F   UNL     1       3.478   3.414  -0.674  0.00  0.00    -0.166 F 
ENDBRANCH  30  34
ENDBRANCH  23  33
ENDBRANCH  22  25
ENDBRANCH   1  22
TORSDOF 6
