REMARK  Name = ZINC04184987
REMARK  3 active torsions:
REMARK  status: ('A' for Active; 'I' for Inactive)
REMARK    1  A    between atoms: C_1  and  C_2
REMARK    2  A    between atoms: C_8  and  C_14
REMARK    3  A    between atoms: N_12  and  N_13
REMARK                            x       y       z     vdW  Elec       q    Type
REMARK                         _______ _______ _______ _____ _____    ______ ____
ROOT
ATOM      1  C   UNL     1       2.647  -4.221   0.127  0.00  0.00    +0.008 C 
ATOM      2  C   UNL     1       2.592  -2.713   0.378  0.00  0.00    -0.009 C 
ATOM      3  C   UNL     1       3.664  -2.011  -0.464  0.00  0.00    +0.010 C 
ATOM      4  C   UNL     1       3.749  -0.551  -0.022  0.00  0.00    +0.056 C 
ATOM      5  C   UNL     1       2.381   0.076  -0.016  0.00  0.00    +0.050 A 
ATOM      6  C   UNL     1       1.222  -0.670  -0.013  0.00  0.00    +0.004 A 
ATOM      7  C   UNL     1       0.002  -0.004   0.002  0.00  0.00    +0.152 A 
ATOM      8  N   UNL     1      -0.016   1.317   0.009  0.00  0.00    -0.209 NA
ATOM      9  C   UNL     1       1.116   2.006   0.002  0.00  0.00    +0.230 A 
ATOM     10  N   UNL     1       2.293   1.402  -0.010  0.00  0.00    -0.218 NA
ATOM     11  N   UNL     1       1.065   3.389   0.007  0.00  0.00    -0.252 N 
ATOM     12  C   UNL     1       1.223  -2.174  -0.034  0.00  0.00    +0.042 C 
ATOM     13  H   UNL     1       1.887   3.905   0.002  0.00  0.00    +0.169 HD
ENDROOT
BRANCH   7  14
ATOM     14  C   UNL     1      -1.289  -0.782   0.010  0.00  0.00    +0.435 C 
ATOM     15  F   UNL     1      -2.367   0.103  -0.091  0.00  0.00    -0.164 F 
ATOM     16  F   UNL     1      -1.307  -1.665  -1.075  0.00  0.00    -0.164 F 
ATOM     17  F   UNL     1      -1.389  -1.506   1.202  0.00  0.00    -0.164 F 
ENDBRANCH   7  14
BRANCH  11  18
ATOM     18  N   UNL     1      -0.141   4.029   0.019  0.00  0.00    -0.254 NA
ATOM     19  H   UNL     1      -0.701   3.731   0.804  0.00  0.00    +0.140 HD
ATOM     20  H   UNL     1      -0.020   5.031   0.022  0.00  0.00    +0.140 HD
ENDBRANCH  11  18
TORSDOF 2
