REMARK  Name = ZINC20829096
REMARK  11 active torsions:
REMARK  status: ('A' for Active; 'I' for Inactive)
REMARK    1  A    between atoms: C_1  and  C_2
REMARK    2  A    between atoms: C_6  and  N_8
REMARK    3  A    between atoms: N_8  and  C_9
REMARK    4  A    between atoms: C_9  and  C_10
REMARK    5  A    between atoms: C_13  and  S_21
REMARK    6  A    between atoms: N_14  and  C_15
REMARK    7  A    between atoms: S_21  and  C_22
REMARK    8  A    between atoms: C_22  and  C_23
REMARK    9  A    between atoms: C_23  and  C_24
REMARK   10  A    between atoms: N_26  and  C_27
REMARK   11  A    between atoms: C_30  and  C_33
REMARK                            x       y       z     vdW  Elec       q    Type
REMARK                         _______ _______ _______ _____ _____    ______ ____
ROOT
ATOM      1  C   UNL     1       0.944   3.619   0.013  0.00  0.00    +0.156 A 
ATOM      2  N   UNL     1       0.796   4.385  -1.031  0.00  0.00    -0.132 NA
ATOM      3  N   UNL     1       0.549   5.592  -0.663  0.00  0.00    -0.122 NA
ATOM      4  C   UNL     1       0.536   5.666   0.647  0.00  0.00    +0.196 A 
ATOM      5  N   UNL     1       0.787   4.408   1.122  0.00  0.00    -0.273 N 
ENDROOT
BRANCH   5   6
ATOM      6  C   UNL     1       0.869   4.009   2.464  0.00  0.00    +0.050 A 
ATOM      7  C   UNL     1      -0.067   3.126   2.985  0.00  0.00    +0.026 A 
ATOM      8  C   UNL     1       0.019   2.730   4.306  0.00  0.00    +0.002 A 
ATOM      9  C   UNL     1       1.029   3.223   5.112  0.00  0.00    +0.000 A 
ATOM     10  C   UNL     1       1.959   4.107   4.597  0.00  0.00    +0.002 A 
ATOM     11  C   UNL     1       1.881   4.502   3.276  0.00  0.00    +0.026 A 
ENDBRANCH   5   6
BRANCH   1  12
ATOM     12  C   UNL     1       1.239   2.142   0.003  0.00  0.00    +0.178 C 
BRANCH  12  13
ATOM     13  N   UNL     1      -0.020   1.392   0.001  0.00  0.00    -0.337 N 
ATOM     14  H   UNL     1      -0.980   1.930   0.006  0.00  0.00    +0.147 HD
BRANCH  13  20
ATOM     15  C   UNL     1      -2.466  -2.870  -0.020  0.00  0.00    +0.044 C 
ATOM     16  C   UNL     1      -1.173  -2.097  -0.019  0.00  0.00    -0.049 A 
ATOM     17  C   UNL     1       0.035  -2.771  -0.026  0.00  0.00    +0.003 A 
ATOM     18  C   UNL     1       1.224  -2.065  -0.025  0.00  0.00    +0.002 A 
ATOM     19  C   UNL     1       1.209  -0.684  -0.016  0.00  0.00    +0.023 A 
ATOM     20  C   UNL     1      -0.002  -0.004  -0.009  0.00  0.00    +0.028 A 
ATOM     21  C   UNL     1      -1.195  -0.716  -0.005  0.00  0.00    +0.026 A 
ENDBRANCH  13  20
ENDBRANCH  12  13
ENDBRANCH   1  12
BRANCH   4  22
ATOM     22  S   UNL     1       0.248   7.112   1.612  0.00  0.00    -0.085 S 
BRANCH  22  23
ATOM     23  C   UNL     1       0.004   8.327   0.292  0.00  0.00    +0.086 C 
BRANCH  23  24
ATOM     24  C   UNL     1      -0.269   9.701   0.908  0.00  0.00    +0.107 C 
BRANCH  24  25
ATOM     25  C   UNL     1      -0.472  10.712  -0.191  0.00  0.00    +0.218 C 
ATOM     26  O   UNL     1      -0.404  10.368  -1.352  0.00  0.00    -0.275 OA
ATOM     27  N   UNL     1      -0.729  11.999   0.117  0.00  0.00    -0.285 N 
ATOM     28  H   UNL     1      -0.865  12.297   1.167  0.00  0.00    +0.155 HD
BRANCH  27  29
ATOM     29  C   UNL     1      -0.821  12.956  -0.900  0.00  0.00    +0.033 A 
ATOM     30  C   UNL     1      -0.373  14.252  -0.678  0.00  0.00    +0.024 A 
ATOM     31  C   UNL     1      -0.460  15.193  -1.685  0.00  0.00    +0.014 A 
ATOM     32  C   UNL     1      -1.004  14.849  -2.910  0.00  0.00    +0.055 A 
ATOM     33  C   UNL     1      -1.456  13.561  -3.132  0.00  0.00    +0.014 A 
ATOM     34  C   UNL     1      -1.366  12.614  -2.130  0.00  0.00    +0.024 A 
BRANCH  32  35
ATOM     35  C   UNL     1      -1.104  15.880  -4.004  0.00  0.00    +0.417 C 
ATOM     36  F   UNL     1      -2.331  16.544  -3.909  0.00  0.00    -0.166 F 
ATOM     37  F   UNL     1      -0.062  16.804  -3.871  0.00  0.00    -0.166 F 
ATOM     38  F   UNL     1      -1.010  15.249  -5.249  0.00  0.00    -0.166 F 
ENDBRANCH  32  35
ENDBRANCH  27  29
ENDBRANCH  24  25
ENDBRANCH  23  24
ENDBRANCH  22  23
ENDBRANCH   4  22
TORSDOF 10
