REMARK  Name = ZINC16503460
REMARK  13 active torsions:
REMARK  status: ('A' for Active; 'I' for Inactive)
REMARK    1  A    between atoms: C_1  and  C_2
REMARK    2  A    between atoms: C_2  and  C_3
REMARK    3  A    between atoms: C_3  and  C_5
REMARK    4  A    between atoms: C_3  and  N_6
REMARK    5  A    between atoms: N_6  and  C_7
REMARK    6  A    between atoms: C_7  and  C_8
REMARK    7  A    between atoms: C_18  and  C_20
REMARK    8  A    between atoms: C_23  and  C_26
REMARK    9  A    between atoms: C_26  and  C_27
REMARK   10  A    between atoms: C_26  and  C_28
REMARK   11  A    between atoms: C_26  and  C_29
REMARK   12  A    between atoms: C_30  and  C_32
REMARK   13  A    between atoms: C_35  and  N_38
REMARK                            x       y       z     vdW  Elec       q    Type
REMARK                         _______ _______ _______ _____ _____    ______ ____
ROOT
ATOM      1  C   UNL     1      -3.659  -2.160  -1.066  0.00  0.00    +0.234 C 
ATOM      2  O   UNL     1      -2.681  -1.796  -0.448  0.00  0.00    -0.274 OA
ATOM      3  N   UNL     1      -3.513  -2.813  -2.236  0.00  0.00    -0.289 N 
ATOM      4  C   UNL     1      -4.687  -3.148  -3.055  0.00  0.00    +0.114 C 
ATOM      5  C   UNL     1      -4.585  -2.363  -4.378  0.00  0.00    +0.062 C 
ATOM      6  C   UNL     1      -3.177  -2.441  -4.872  0.00  0.00    -0.003 A 
ATOM      7  C   UNL     1      -2.065  -2.804  -4.177  0.00  0.00    -0.012 A 
ATOM      8  C   UNL     1      -0.858  -2.787  -4.873  0.00  0.00    +0.013 A 
ATOM      9  C   UNL     1      -0.833  -2.424  -6.176  0.00  0.00    +0.046 A 
ATOM     10  S   UNL     1      -2.557  -2.078  -6.494  0.00  0.00    -0.101 S 
ATOM     11  C   UNL     1      -2.178  -3.205  -2.707  0.00  0.00    +0.137 C 
ENDROOT
BRANCH  11  12
ATOM     12  C   UNL     1      -1.122  -2.495  -1.900  0.00  0.00    -0.023 A 
ATOM     13  C   UNL     1      -1.047  -1.115  -1.922  0.00  0.00    +0.006 A 
ATOM     14  C   UNL     1      -0.082  -0.463  -1.178  0.00  0.00    +0.004 A 
ATOM     15  C   UNL     1       0.816  -1.191  -0.421  0.00  0.00    -0.042 A 
ATOM     16  C   UNL     1       0.745  -2.572  -0.403  0.00  0.00    +0.004 A 
ATOM     17  C   UNL     1      -0.224  -3.224  -1.143  0.00  0.00    +0.006 A 
BRANCH  15  18
ATOM     18  C   UNL     1       1.872  -0.481   0.385  0.00  0.00    -0.013 C 
ATOM     19  C   UNL     1       3.259  -0.928  -0.083  0.00  0.00    +0.015 C 
ATOM     20  C   UNL     1       1.732   1.030   0.191  0.00  0.00    +0.015 C 
ATOM     21  C   UNL     1       1.700  -0.823   1.867  0.00  0.00    +0.015 C 
ENDBRANCH  15  18
ENDBRANCH  11  12
BRANCH   1  22
ATOM     22  C   UNL     1      -5.038  -1.882  -0.526  0.00  0.00    +0.204 C 
BRANCH  22  23
ATOM     23  N   UNL     1      -4.933  -1.063   0.685  0.00  0.00    -0.286 N 
ATOM     24  C   UNL     1      -4.726  -1.651   1.880  0.00  0.00    +0.247 C 
ATOM     25  O   UNL     1      -4.541  -2.851   1.943  0.00  0.00    -0.270 OA
BRANCH  24  26
ATOM     26  C   UNL     1      -4.723  -0.837   3.114  0.00  0.00    +0.037 A 
ATOM     27  C   UNL     1      -3.841   0.238   3.241  0.00  0.00    +0.015 A 
ATOM     28  C   UNL     1      -3.848   0.997   4.393  0.00  0.00    +0.033 A 
ATOM     29  C   UNL     1      -4.716   0.688   5.425  0.00  0.00    +0.126 A 
ATOM     30  C   UNL     1      -5.588  -0.379   5.306  0.00  0.00    +0.033 A 
ATOM     31  C   UNL     1      -5.596  -1.143   4.158  0.00  0.00    +0.015 A 
BRANCH  29  32
ATOM     32  N   UNL     1      -4.714   1.504   6.660  0.00  0.00    +0.056 N 
ATOM     33  O   UNL     1      -5.478   1.235   7.569  0.00  0.00    -0.126 OA
ATOM     34  O   UNL     1      -3.947   2.445   6.767  0.00  0.00    -0.126 OA
ENDBRANCH  29  32
ENDBRANCH  24  26
BRANCH  23  35
ATOM     35  C   UNL     1      -5.053   0.394   0.596  0.00  0.00    +0.074 C 
ATOM     36  C   UNL     1      -3.880   0.955  -0.211  0.00  0.00    +0.028 C 
BRANCH  35  38
ATOM     37  C   UNL     1      -7.543   0.230   0.731  0.00  0.00    +0.005 C 
ATOM     38  C   UNL     1      -6.368   0.756  -0.096  0.00  0.00    +0.019 C 
ENDBRANCH  35  38
ENDBRANCH  23  35
ENDBRANCH  22  23
ENDBRANCH   1  22
TORSDOF 8
