REMARK  Name = ZINC36061356
REMARK  12 active torsions:
REMARK  status: ('A' for Active; 'I' for Inactive)
REMARK    1  A    between atoms: C_1  and  C_2
REMARK    2  A    between atoms: C_3  and  C_30
REMARK    3  A    between atoms: C_4  and  C_23
REMARK    4  A    between atoms: C_7  and  C_12
REMARK    5  A    between atoms: C_13  and  N_15
REMARK    6  A    between atoms: N_15  and  C_16
REMARK    7  A    between atoms: C_16  and  C_17
REMARK    8  A    between atoms: C_30  and  O_32
REMARK    9  A    between atoms: O_32  and  C_33
REMARK   10  A    between atoms: C_33  and  C_34
REMARK   11  A    between atoms: C_33  and  C_35
REMARK   12  A    between atoms: C_33  and  C_36
REMARK                            x       y       z     vdW  Elec       q    Type
REMARK                         _______ _______ _______ _____ _____    ______ ____
ROOT
ATOM      1  C   UNL     1       0.342   1.168   0.875  0.00  0.00    +0.066 C 
ATOM      2  C   UNL     1       0.267  -0.290   0.499  0.00  0.00    +0.053 C 
ATOM      3  C   UNL     1      -0.961  -0.921   0.441  0.00  0.00    +0.083 C 
ATOM      4  C   UNL     1      -0.984  -2.384   0.059  0.00  0.00    +0.150 C 
ATOM      5  N   UNL     1       0.325  -3.030  -0.224  0.00  0.00    -0.267 N 
ATOM      6  C   UNL     1       0.542  -4.344  -0.588  0.00  0.00    +0.048 C 
ATOM      7  C   UNL     1       1.818  -4.734  -0.802  0.00  0.00    +0.072 C 
ATOM      8  S   UNL     1       2.720  -3.230  -0.485  0.00  0.00    -0.060 S 
ATOM      9  C   UNL     1       1.426  -2.228  -0.110  0.00  0.00    +0.166 C 
ATOM     10  N   UNL     1       1.377  -0.955   0.223  0.00  0.00    -0.230 NA
ENDROOT
BRANCH   4  11
ATOM     11  C   UNL     1      -1.643  -3.146   1.180  0.00  0.00    -0.022 A 
ATOM     12  C   UNL     1      -0.962  -3.361   2.363  0.00  0.00    +0.007 A 
ATOM     13  C   UNL     1      -1.566  -4.060   3.391  0.00  0.00    +0.020 A 
ATOM     14  C   UNL     1      -2.854  -4.543   3.236  0.00  0.00    +0.041 A 
ATOM     15  C   UNL     1      -3.535  -4.326   2.052  0.00  0.00    +0.020 A 
ATOM     16  C   UNL     1      -2.932  -3.623   1.026  0.00  0.00    +0.007 A 
ATOM     17 CL   UNL     1      -3.613  -5.420   4.527  0.00  0.00    -0.084 Cl
ENDBRANCH   4  11
BRANCH   6  18
ATOM     18  C   UNL     1      -0.576  -5.287  -0.738  0.00  0.00    +0.091 C 
ATOM     19  C   UNL     1      -0.331  -6.591  -0.966  0.00  0.00    +0.239 C 
ATOM     20  O   UNL     1       0.941  -7.058  -0.935  0.00  0.00    -0.271 OA
BRANCH  19  21
ATOM     21  N   UNL     1      -1.379  -7.456  -1.232  0.00  0.00    -0.309 N 
ATOM     22  H   UNL     1      -2.295  -7.139  -1.182  0.00  0.00    +0.149 HD
BRANCH  21  23
ATOM     23  C   UNL     1      -1.106  -8.850  -1.591  0.00  0.00    +0.136 C 
BRANCH  23  24
ATOM     24  C   UNL     1      -2.417  -9.551  -1.951  0.00  0.00    +0.135 C 
ATOM     25  C   UNL     1      -2.154 -11.038  -2.300  0.00  0.00    +0.035 C 
ATOM     26  C   UNL     1      -3.541 -11.663  -1.989  0.00  0.00    +0.031 C 
ATOM     27  C   UNL     1      -4.021 -10.816  -0.791  0.00  0.00    +0.160 C 
ATOM     28  O   UNL     1      -3.296  -9.580  -0.815  0.00  0.00    -0.375 OA
ENDBRANCH  23  24
ENDBRANCH  21  23
ENDBRANCH  19  21
ENDBRANCH   6  18
BRANCH   3  29
ATOM     29  C   UNL     1      -2.144  -0.229   0.726  0.00  0.00    +0.340 C 
ATOM     30  O   UNL     1      -2.102   0.950   1.032  0.00  0.00    -0.245 OA
BRANCH  29  31
ATOM     31  O   UNL     1      -3.333  -0.868   0.661  0.00  0.00    -0.456 OA
BRANCH  31  32
ATOM     32  C   UNL     1      -4.500  -0.101   0.964  0.00  0.00    +0.106 C 
ATOM     33  C   UNL     1      -4.609   1.070  -0.015  0.00  0.00    +0.055 C 
ATOM     34  C   UNL     1      -5.740  -0.988   0.840  0.00  0.00    +0.055 C 
ATOM     35  C   UNL     1      -4.399   0.437   2.393  0.00  0.00    +0.055 C 
ENDBRANCH  31  32
ENDBRANCH  29  31
ENDBRANCH   3  29
TORSDOF 8
