REMARK  Name = ZINC53778479
REMARK  5 active torsions:
REMARK  status: ('A' for Active; 'I' for Inactive)
REMARK    1  A    between atoms: C_6  and  C_7
REMARK    2  A    between atoms: C_7  and  N_12
REMARK    3  A    between atoms: C_13  and  C_15
REMARK    4  A    between atoms: C_15  and  N_16
REMARK    5  A    between atoms: C_20  and  O_23
REMARK                            x       y       z     vdW  Elec       q    Type
REMARK                         _______ _______ _______ _____ _____    ______ ____
ROOT
ATOM      1  C   UNL     1      -1.295  -0.775   0.007  0.00  0.00    +0.060 C 
ATOM      2  C   UNL     1      -1.619  -0.860  -1.499  0.00  0.00    +0.030 C 
ATOM      3  C   UNL     1      -3.166  -0.841  -1.557  0.00  0.00    +0.002 C 
ATOM      4  C   UNL     1      -3.538   0.161  -0.436  0.00  0.00    +0.002 C 
ATOM      5  C   UNL     1      -2.515  -0.125   0.683  0.00  0.00    +0.030 C 
ENDROOT
BRANCH   1  11
ATOM      6  C   UNL     1       0.097   1.242  -0.499  0.00  0.00    +0.009 A 
ATOM      7  C   UNL     1       1.219   2.025  -0.303  0.00  0.00    +0.050 A 
ATOM      8  C   UNL     1       2.180   1.642   0.621  0.00  0.00    +0.162 A 
ATOM      9  C   UNL     1       2.010   0.471   1.350  0.00  0.00    +0.162 A 
ATOM     10  C   UNL     1       0.883  -0.310   1.148  0.00  0.00    +0.055 A 
ATOM     11  C   UNL     1      -0.071   0.076   0.225  0.00  0.00    -0.020 A 
ATOM     12  O   UNL     1       2.938   0.082   2.268  0.00  0.00    -0.485 OA
ATOM     13  C   UNL     1       4.229   0.692   2.176  0.00  0.00    +0.270 C 
ATOM     14  C   UNL     1       4.036   2.204   1.997  0.00  0.00    +0.270 C 
ATOM     15  O   UNL     1       3.282   2.421   0.799  0.00  0.00    -0.485 OA
ENDBRANCH   1  11
BRANCH   1  16
ATOM     16  N   UNL     1      -1.076  -2.117   0.551  0.00  0.00    -0.307 N 
ATOM     17  C   UNL     1      -0.129  -2.914   0.017  0.00  0.00    +0.197 C 
ATOM     18  O   UNL     1       0.604  -2.488  -0.851  0.00  0.00    -0.278 OA
ATOM     19  H   UNL     1      -1.612  -2.433   1.295  0.00  0.00    +0.149 HD
BRANCH  17  20
ATOM     20  C   UNL     1       0.020  -4.334   0.499  0.00  0.00    +0.019 C 
BRANCH  20  21
ATOM     21  N   UNL     1       1.113  -4.988  -0.234  0.00  0.00    +0.387 N 
ATOM     22  C   UNL     1       0.758  -5.086  -1.655  0.00  0.00    -0.078 C 
ATOM     23  C   UNL     1       1.926  -5.692  -2.436  0.00  0.00    -0.016 C 
ATOM     24  C   UNL     1       2.230  -7.089  -1.886  0.00  0.00    +0.027 C 
ATOM     25  C   UNL     1       2.526  -6.984  -0.387  0.00  0.00    +0.098 C 
ATOM     26  C   UNL     1       1.336  -6.330   0.318  0.00  0.00    -0.047 C 
ATOM     27  H   UNL     1       1.956  -4.441  -0.137  0.00  0.00    -0.081 HD
BRANCH  25  28
ATOM     28  O   UNL     1       2.741  -8.291   0.149  0.00  0.00    -0.394 OA
ATOM     29  H   UNL     1       3.480  -8.765  -0.255  0.00  0.00    +0.210 HD
ENDBRANCH  25  28
ENDBRANCH  20  21
ENDBRANCH  17  20
ENDBRANCH   1  16
TORSDOF 5
