REMARK  Name = ZINC08900950
REMARK  8 active torsions:
REMARK  status: ('A' for Active; 'I' for Inactive)
REMARK    1  A    between atoms: C_1  and  C_2
REMARK    2  A    between atoms: C_4  and  N_20
REMARK    3  A    between atoms: C_7  and  N_8
REMARK    4  A    between atoms: C_9  and  C_11
REMARK    5  A    between atoms: C_21  and  C_23
REMARK    6  A    between atoms: C_27  and  C_31
REMARK    7  A    between atoms: C_28  and  O_29
REMARK    8  A    between atoms: O_29  and  C_30
REMARK                            x       y       z     vdW  Elec       q    Type
REMARK                         _______ _______ _______ _____ _____    ______ ____
ROOT
ATOM      1  C   UNL     1      -6.755   6.266  -0.125  0.00  0.00    +0.046 C 
ATOM      2  C   UNL     1      -7.524   4.971  -0.128  0.00  0.00    -0.027 A 
ATOM      3  C   UNL     1      -8.902   4.986  -0.214  0.00  0.00    +0.028 A 
ATOM      4  C   UNL     1      -9.612   3.792  -0.210  0.00  0.00    +0.034 A 
ATOM      5  C   UNL     1      -8.935   2.582  -0.126  0.00  0.00    +0.025 A 
ATOM      6  C   UNL     1      -7.557   2.567  -0.045  0.00  0.00    +0.025 A 
ATOM      7  C   UNL     1      -6.847   3.761  -0.049  0.00  0.00    +0.037 A 
ENDROOT
BRANCH   7   8
ATOM      8  N   UNL     1      -5.450   3.745   0.034  0.00  0.00    -0.279 N 
ATOM      9  C   UNL     1      -4.820   2.697   0.601  0.00  0.00    +0.284 C 
ATOM     10  O   UNL     1      -5.467   1.813   1.132  0.00  0.00    -0.266 OA
ATOM     11  H   UNL     1      -4.935   4.487  -0.318  0.00  0.00    +0.155 HD
BRANCH   9  12
ATOM     12  C   UNL     1      -3.353   2.622   0.579  0.00  0.00    +0.191 A 
ATOM     13  C   UNL     1      -2.614   1.617   1.117  0.00  0.00    +0.063 A 
ATOM     14  C   UNL     1      -1.216   1.961   0.860  0.00  0.00    +0.021 A 
ATOM     15  C   UNL     1       0.007   1.351   1.153  0.00  0.00    +0.011 A 
ATOM     16  C   UNL     1       1.172   1.945   0.757  0.00  0.00    +0.001 A 
ATOM     17  C   UNL     1       1.148   3.153   0.072  0.00  0.00    +0.004 A 
ATOM     18  C   UNL     1      -0.047   3.773  -0.222  0.00  0.00    +0.047 A 
ATOM     19  C   UNL     1      -1.245   3.187   0.170  0.00  0.00    +0.136 A 
ATOM     20  O   UNL     1      -2.536   3.545   0.030  0.00  0.00    -0.450 OA
ENDBRANCH   9  12
ENDBRANCH   7   8
BRANCH   4  21
ATOM     21  N   UNL     1     -11.009   3.808  -0.293  0.00  0.00    -0.281 N 
ATOM     22  C   UNL     1     -11.734   2.886   0.371  0.00  0.00    +0.252 C 
ATOM     23  O   UNL     1     -11.174   1.989   0.971  0.00  0.00    -0.270 OA
ATOM     24  H   UNL     1     -11.456   4.483  -0.828  0.00  0.00    +0.155 HD
BRANCH  22  25
ATOM     25  C   UNL     1     -13.207   2.966   0.370  0.00  0.00    +0.080 A 
ATOM     26  C   UNL     1     -13.855   3.995  -0.317  0.00  0.00    +0.032 A 
ATOM     27  C   UNL     1     -15.232   4.064  -0.314  0.00  0.00    +0.019 A 
ATOM     28  C   UNL     1     -15.977   3.115   0.369  0.00  0.00    +0.022 A 
ATOM     29  C   UNL     1     -15.349   2.094   1.053  0.00  0.00    -0.007 A 
ATOM     30  C   UNL     1     -13.965   2.006   1.055  0.00  0.00    +0.135 A 
ATOM     31  C   UNL     1     -16.169   1.068   1.792  0.00  0.00    +0.047 C 
ATOM     32 BR   UNL     1     -16.107   5.457  -1.245  0.00  0.00    -0.050 Br
BRANCH  30  33
ATOM     33  O   UNL     1     -13.347   0.999   1.721  0.00  0.00    -0.494 OA
ATOM     34  C   UNL     1     -13.013   1.236   3.090  0.00  0.00    +0.277 C 
ENDBRANCH  30  33
ENDBRANCH  22  25
ENDBRANCH   4  21
TORSDOF 5
