REMARK  Name = ZINC00694733
REMARK  10 active torsions:
REMARK  status: ('A' for Active; 'I' for Inactive)
REMARK    1  A    between atoms: C_1  and  C_2
REMARK    2  A    between atoms: C_2  and  O_3
REMARK    3  A    between atoms: O_3  and  C_4
REMARK    4  A    between atoms: C_4  and  C_6
REMARK    5  A    between atoms: C_10  and  N_11
REMARK    6  A    between atoms: N_11  and  C_12
REMARK    7  A    between atoms: C_12  and  N_14
REMARK    8  A    between atoms: C_15  and  C_17
REMARK    9  A    between atoms: N_20  and  C_22
REMARK   10  A    between atoms: C_25  and  C_29
REMARK                            x       y       z     vdW  Elec       q    Type
REMARK                         _______ _______ _______ _____ _____    ______ ____
ROOT
ATOM      1  C   UNL     1       1.233   3.539   0.009  0.00  0.00    +0.091 A 
ATOM      2  C   UNL     1       1.268   4.287   1.256  0.00  0.00    -0.021 A 
ATOM      3  C   UNL     1       1.324   5.629   1.120  0.00  0.00    -0.004 A 
ATOM      4  S   UNL     1       1.317   5.909  -0.628  0.00  0.00    -0.077 S 
ATOM      5  C   UNL     1       1.249   4.266  -1.175  0.00  0.00    +0.086 A 
ATOM      6  C   UNL     1       1.376   6.646   2.218  0.00  0.00    +0.046 C 
ATOM      7  C   UNL     1       1.725   5.929   3.528  0.00  0.00    -0.009 C 
ATOM      8  C   UNL     1       0.840   4.687   3.668  0.00  0.00    +0.008 C 
ATOM      9  C   UNL     1       1.250   3.637   2.634  0.00  0.00    +0.037 C 
ATOM     10  C   UNL     1       1.481   6.868   4.711  0.00  0.00    +0.008 C 
ENDROOT
BRANCH   1  11
ATOM     11  C   UNL     1       1.176   2.076   0.002  0.00  0.00    +0.342 C 
ATOM     12  O   UNL     1       2.205   1.428  -0.011  0.00  0.00    -0.245 OA
BRANCH  11  13
ATOM     13  O   UNL     1      -0.018   1.448   0.010  0.00  0.00    -0.461 OA
BRANCH  13  15
ATOM     14  C   UNL     1      -1.433  -0.534   0.013  0.00  0.00    +0.048 C 
ATOM     15  C   UNL     1       0.002  -0.004   0.002  0.00  0.00    +0.229 C 
ENDBRANCH  13  15
ENDBRANCH  11  13
ENDBRANCH   1  11
BRANCH   5  16
ATOM     16  N   UNL     1       1.217   3.792  -2.476  0.00  0.00    -0.290 N 
ATOM     17  H   UNL     1       1.178   2.838  -2.643  0.00  0.00    +0.154 HD
BRANCH  16  18
ATOM     18  C   UNL     1       1.240   4.658  -3.509  0.00  0.00    +0.141 C 
ATOM     19  S   UNL     1       1.308   6.343  -3.212  0.00  0.00    -0.018 S 
BRANCH  18  20
ATOM     20  N   UNL     1       1.209   4.197  -4.775  0.00  0.00    -0.262 N 
ATOM     21  C   UNL     1       1.232   5.062  -5.808  0.00  0.00    +0.271 C 
ATOM     22  O   UNL     1       1.281   6.259  -5.597  0.00  0.00    -0.268 OA
ATOM     23  H   UNL     1       1.171   3.242  -4.942  0.00  0.00    +0.157 HD
BRANCH  21  24
ATOM     24  C   UNL     1       1.199   4.558  -7.194  0.00  0.00    +0.161 A 
ATOM     25  C   UNL     1       1.211   5.339  -8.374  0.00  0.00    +0.068 A 
ATOM     26  C   UNL     1       1.173   4.452  -9.397  0.00  0.00    +0.124 A 
ATOM     27  N   UNL     1       1.129   3.212  -8.849  0.00  0.00    -0.273 N 
ATOM     28  N   UNL     1       1.146   3.294  -7.567  0.00  0.00    -0.166 NA
ATOM     29  C   UNL     1       1.073   1.961  -9.609  0.00  0.00    +0.172 C 
ATOM     30 BR   UNL     1       1.274   7.225  -8.498  0.00  0.00    -0.046 Br
ENDBRANCH  21  24
ENDBRANCH  18  20
ENDBRANCH  16  18
ENDBRANCH   5  16
TORSDOF 7
