REMARK  Name = ZINC44176508
REMARK  7 active torsions:
REMARK  status: ('A' for Active; 'I' for Inactive)
REMARK    1  A    between atoms: C_1  and  O_2
REMARK    2  A    between atoms: O_2  and  C_3
REMARK    3  A    between atoms: C_3  and  C_5
REMARK    4  A    between atoms: C_8  and  N_11
REMARK    5  A    between atoms: C_18  and  C_21
REMARK    6  A    between atoms: N_23  and  C_24
REMARK    7  A    between atoms: C_35  and  C_37
REMARK                            x       y       z     vdW  Elec       q    Type
REMARK                         _______ _______ _______ _____ _____    ______ ____
ROOT
ATOM      1  N   UNL     1      -0.938  -6.645   0.176  0.00  0.00    -0.269 N 
ATOM      2  C   UNL     1      -2.117  -7.231   0.464  0.00  0.00    +0.307 C 
ATOM      3  O   UNL     1      -3.039  -6.564   0.891  0.00  0.00    -0.252 OA
ATOM      4  N   UNL     1      -2.274  -8.556   0.277  0.00  0.00    -0.282 N 
ATOM      5  C   UNL     1      -1.131  -9.399  -0.103  0.00  0.00    +0.128 C 
ATOM      6  C   UNL     1      -1.485 -10.155  -1.389  0.00  0.00    +0.127 C 
ATOM      7  N   UNL     1      -2.802 -10.784  -1.216  0.00  0.00    -0.287 N 
ATOM      8  C   UNL     1      -3.945  -9.942  -0.837  0.00  0.00    +0.179 C 
ATOM      9  C   UNL     1      -3.590  -9.186   0.455  0.00  0.00    +0.141 C 
ATOM     10  C   UNL     1      -2.959 -12.110  -1.403  0.00  0.00    +0.219 C 
ATOM     11  O   UNL     1      -4.047 -12.620  -1.239  0.00  0.00    -0.275 OA
ATOM     12  H   UNL     1      -0.234  -7.156  -0.255  0.00  0.00    +0.156 HD
ENDROOT
BRANCH   1  16
ATOM     13  C   UNL     1      -0.314  -2.640   1.136  0.00  0.00    +0.059 A 
ATOM     14  C   UNL     1       0.764  -3.531   1.110  0.00  0.00    +0.017 A 
ATOM     15  C   UNL     1       0.554  -4.853   0.793  0.00  0.00    +0.024 A 
ATOM     16  C   UNL     1      -0.729  -5.304   0.497  0.00  0.00    +0.035 A 
ATOM     17  C   UNL     1      -1.804  -4.421   0.521  0.00  0.00    +0.024 A 
ATOM     18  C   UNL     1      -1.602  -3.098   0.843  0.00  0.00    +0.017 A 
BRANCH  13  19
ATOM     19  C   UNL     1      -0.093  -1.222   1.476  0.00  0.00    +0.339 C 
ATOM     20  O   UNL     1      -1.031  -0.451   1.503  0.00  0.00    -0.245 OA
BRANCH  19  22
ATOM     21  C   UNL     1       1.290   0.603   2.079  0.00  0.00    +0.280 C 
ATOM     22  O   UNL     1       1.149  -0.783   1.758  0.00  0.00    -0.464 OA
ENDBRANCH  19  22
ENDBRANCH  13  19
ENDBRANCH   1  16
BRANCH  10  23
ATOM     23  C   UNL     1      -1.783 -12.957  -1.816  0.00  0.00    +0.075 C 
ATOM     24  C   UNL     1      -1.269 -12.509  -3.199  0.00  0.00    +0.013 C 
ATOM     25  C   UNL     1      -0.856 -13.829  -3.897  0.00  0.00    +0.001 C 
ATOM     26  C   UNL     1      -1.952 -14.819  -3.431  0.00  0.00    +0.001 C 
ATOM     27  C   UNL     1      -2.218 -14.426  -1.963  0.00  0.00    +0.013 C 
ENDBRANCH  10  23
BRANCH   8  28
ATOM     28  C   UNL     1      -5.156 -10.808  -0.601  0.00  0.00    +0.236 C 
ATOM     29  O   UNL     1      -5.984 -10.943  -1.476  0.00  0.00    -0.274 OA
ATOM     30  N   UNL     1      -5.318 -11.432   0.582  0.00  0.00    -0.307 N 
ATOM     31  H   UNL     1      -4.655 -11.324   1.282  0.00  0.00    +0.149 HD
BRANCH  30  32
ATOM     32  C   UNL     1      -6.494 -12.274   0.811  0.00  0.00    +0.103 C 
ATOM     33  C   UNL     1      -6.166 -13.320   1.875  0.00  0.00    +0.027 C 
ATOM     34  C   UNL     1      -7.462 -14.045   2.256  0.00  0.00    +0.007 C 
ATOM     35  C   UNL     1      -8.349 -13.071   3.029  0.00  0.00    +0.035 C 
ATOM     36  C   UNL     1      -8.498 -11.777   2.273  0.00  0.00    -0.042 A 
ATOM     37  C   UNL     1      -7.644 -11.410   1.258  0.00  0.00    -0.024 A 
ATOM     38  C   UNL     1      -7.835 -10.199   0.605  0.00  0.00    +0.006 A 
ATOM     39  C   UNL     1      -8.873  -9.364   0.964  0.00  0.00    +0.000 A 
ATOM     40  C   UNL     1      -9.732  -9.736   1.981  0.00  0.00    +0.000 A 
ATOM     41  C   UNL     1      -9.544 -10.937   2.630  0.00  0.00    +0.004 A 
ENDBRANCH  30  32
ENDBRANCH   8  28
TORSDOF 6
