REMARK  Name = ZINC64652829
REMARK  8 active torsions:
REMARK  status: ('A' for Active; 'I' for Inactive)
REMARK    1  A    between atoms: C_1  and  C_2
REMARK    2  A    between atoms: C_2  and  C_3
REMARK    3  A    between atoms: C_2  and  C_4
REMARK    4  A    between atoms: C_9  and  C_13
REMARK    5  A    between atoms: C_13  and  C_14
REMARK    6  A    between atoms: N_16  and  C_17
REMARK    7  A    between atoms: C_17  and  C_18
REMARK    8  A    between atoms: C_18  and  C_19
REMARK                            x       y       z     vdW  Elec       q    Type
REMARK                         _______ _______ _______ _____ _____    ______ ____
ROOT
ATOM      1  C   UNL     1      -4.681  -4.160  -0.664  0.00  0.00    +0.215 C 
ATOM      2  O   UNL     1      -4.546  -3.541  -1.698  0.00  0.00    -0.276 OA
ATOM      3  N   UNL     1      -4.502  -5.496  -0.650  0.00  0.00    -0.315 N 
ATOM      4  H   UNL     1      -4.610  -5.991   0.177  0.00  0.00    +0.149 HD
ENDROOT
BRANCH   1   5
ATOM      5  C   UNL     1      -5.048  -3.436   0.605  0.00  0.00    +0.119 C 
BRANCH   5  10
ATOM      6  C   UNL     1      -6.430  -0.571   4.058  0.00  0.00    +0.013 C 
ATOM      7  N   UNL     1      -7.324  -0.722   3.025  0.00  0.00    -0.320 N 
ATOM      8  C   UNL     1      -6.826  -0.512   1.659  0.00  0.00    +0.222 C 
ATOM      9  N   UNL     1      -5.543  -1.258   1.544  0.00  0.00    -0.266 N 
ATOM     10  C   UNL     1      -5.341  -1.968   0.288  0.00  0.00    +0.097 C 
ATOM     11  C   UNL     1      -6.539  -1.913  -0.689  0.00  0.00    +0.095 C 
ATOM     12  S   UNL     1      -7.906  -1.429   0.481  0.00  0.00    -0.117 S 
ATOM     13  C   UNL     1      -4.669  -1.282   2.589  0.00  0.00    +0.243 C 
ATOM     14  O   UNL     1      -3.525  -1.669   2.437  0.00  0.00    -0.270 OA
ATOM     15  C   UNL     1      -5.123  -0.839   3.855  0.00  0.00    +0.086 C 
ATOM     16  H   UNL     1      -8.249  -0.959   3.192  0.00  0.00    +0.148 HD
BRANCH   6  18
ATOM     17  C   UNL     1      -7.553   1.277   5.271  0.00  0.00    +0.013 C 
ATOM     18  C   UNL     1      -6.906  -0.102   5.409  0.00  0.00    +0.027 C 
ATOM     19  C   UNL     1      -7.933  -1.094   5.960  0.00  0.00    +0.013 C 
ENDBRANCH   6  18
ENDBRANCH   5  10
ENDBRANCH   1   5
BRANCH   3  20
ATOM     20  C   UNL     1      -4.145  -6.200  -1.884  0.00  0.00    +0.108 C 
BRANCH  20  21
ATOM     21  C   UNL     1      -4.003  -7.696  -1.595  0.00  0.00    +0.052 C 
BRANCH  21  22
ATOM     22  C   UNL     1      -3.636  -8.420  -2.865  0.00  0.00    -0.040 C 
ATOM     23  C   UNL     1      -2.393  -8.756  -3.279  0.00  0.00    -0.001 A 
ATOM     24  C   UNL     1      -1.061  -8.553  -2.695  0.00  0.00    +0.010 A 
ATOM     25  C   UNL     1       0.023  -9.011  -3.360  0.00  0.00    +0.001 A 
ATOM     26  C   UNL     1      -0.091  -9.672  -4.591  0.00  0.00    +0.002 A 
ATOM     27  C   UNL     1      -1.280  -9.895  -5.191  0.00  0.00    +0.026 A 
ATOM     28  C   UNL     1      -2.487  -9.457  -4.580  0.00  0.00    +0.043 A 
ATOM     29  N   UNL     1      -3.740  -9.551  -4.955  0.00  0.00    -0.380 N 
ATOM     30  C   UNL     1      -4.583  -8.925  -3.930  0.00  0.00    +0.144 C 
ATOM     31  H   UNL     1      -4.056  -9.969  -5.771  0.00  0.00    +0.160 HD
ENDBRANCH  21  22
ENDBRANCH  20  21
ENDBRANCH   3  20
TORSDOF 6
