REMARK  Name = ZINC47272658
REMARK  5 active torsions:
REMARK  status: ('A' for Active; 'I' for Inactive)
REMARK    1  A    between atoms: C_3  and  N_8
REMARK    2  A    between atoms: C_9  and  C_11
REMARK    3  A    between atoms: C_11  and  O_12
REMARK    4  A    between atoms: O_12  and  N_13
REMARK    5  A    between atoms: C_14  and  C_15
REMARK                            x       y       z     vdW  Elec       q    Type
REMARK                         _______ _______ _______ _____ _____    ______ ____
ROOT
ATOM      1  C   UNL     1       6.032   2.223   0.412  0.00  0.00    +0.358 C 
ENDROOT
BRANCH   1   3
ATOM      2  N   UNL     1       3.562   2.090   0.391  0.00  0.00    -0.283 N 
ATOM      3  C   UNL     1       4.743   1.441   0.395  0.00  0.00    +0.258 C 
ATOM      4  O   UNL     1       4.769   0.229   0.385  0.00  0.00    -0.272 OA
ATOM      5  H   UNL     1       3.540   3.058   0.331  0.00  0.00    +0.155 HD
BRANCH   2   8
ATOM      6  C   UNL     1       0.105   1.174   1.248  0.00  0.00    +0.003 A 
ATOM      7  C   UNL     1       1.284   1.890   1.169  0.00  0.00    +0.023 A 
ATOM      8  C   UNL     1       2.366   1.367   0.473  0.00  0.00    +0.034 A 
ATOM      9  C   UNL     1       2.260   0.127  -0.141  0.00  0.00    +0.037 A 
ATOM     10  C   UNL     1       1.078  -0.584  -0.058  0.00  0.00    +0.015 A 
ATOM     11  C   UNL     1       0.002  -0.061   0.636  0.00  0.00    +0.014 A 
ATOM     12  I   UNL     1       0.916  -2.456  -0.985  0.00  0.00    -0.044 I 
ENDBRANCH   2   8
ENDBRANCH   1   3
BRANCH   1  13
ATOM     13  O   UNL     1       7.137   1.317   0.413  0.00  0.00    -0.383 OA
BRANCH  13  14
ATOM     14  N   UNL     1       8.402   1.953   0.429  0.00  0.00    -0.074 NA
ATOM     15  C   UNL     1       9.482   1.244   0.431  0.00  0.00    +0.135 C 
ATOM     16  N   UNL     1      10.709   1.858   0.552  0.00  0.00    -0.344 N 
ATOM     17  H   UNL     1      10.762   2.823   0.636  0.00  0.00    +0.144 HD
ATOM     18  H   UNL     1      11.520   1.325   0.554  0.00  0.00    +0.144 HD
BRANCH  15  19
ATOM     19  C   UNL     1       9.399  -0.255   0.301  0.00  0.00    +0.055 C 
ATOM     20  C   UNL     1       9.512  -0.913   1.692  0.00  0.00    +0.011 C 
ATOM     21  C   UNL     1      10.338  -2.199   1.438  0.00  0.00    +0.001 C 
ATOM     22  C   UNL     1      11.375  -1.736   0.384  0.00  0.00    +0.001 C 
ATOM     23  C   UNL     1      10.583  -0.778  -0.530  0.00  0.00    +0.011 C 
ENDBRANCH  15  19
ENDBRANCH  13  14
ENDBRANCH   1  13
TORSDOF 5
