REMARK  Name = ZINC15776462
REMARK  9 active torsions:
REMARK  status: ('A' for Active; 'I' for Inactive)
REMARK    1  A    between atoms: C_1  and  C_2
REMARK    2  A    between atoms: C_5  and  C_8
REMARK    3  A    between atoms: C_8  and  C_20
REMARK    4  A    between atoms: N_9  and  N_10
REMARK    5  A    between atoms: N_10  and  S_11
REMARK    6  A    between atoms: S_11  and  C_14
REMARK    7  A    between atoms: C_20  and  N_22
REMARK    8  A    between atoms: C_20  and  O_31
REMARK    9  A    between atoms: O_31  and  C_32
REMARK                            x       y       z     vdW  Elec       q    Type
REMARK                         _______ _______ _______ _____ _____    ______ ____
ROOT
ATOM      1  C   UNL     1       0.326   0.958  -0.172  0.00  0.00    +0.130 C 
ATOM      2  N   UNL     1       1.581   1.182  -0.413  0.00  0.00    -0.165 NA
ENDROOT
BRANCH   1   7
ATOM      3  C   UNL     1      -3.704   4.225  -2.656  0.00  0.00    +0.044 C 
ATOM      4  C   UNL     1      -2.648   3.369  -2.005  0.00  0.00    -0.050 A 
ATOM      5  C   UNL     1      -2.803   2.964  -0.691  0.00  0.00    +0.004 A 
ATOM      6  C   UNL     1      -1.841   2.180  -0.089  0.00  0.00    +0.010 A 
ATOM      7  C   UNL     1      -0.707   1.796  -0.809  0.00  0.00    +0.003 A 
ATOM      8  C   UNL     1      -0.554   2.214  -2.133  0.00  0.00    +0.010 A 
ATOM      9  C   UNL     1      -1.527   2.992  -2.724  0.00  0.00    +0.004 A 
ENDBRANCH   1   7
BRANCH   2  10
ATOM     10  N   UNL     1       1.964   2.315  -1.143  0.00  0.00    -0.136 N 
ATOM     11  H   UNL     1       1.302   2.979  -1.389  0.00  0.00    +0.197 HD
BRANCH  10  12
ATOM     12  S   UNL     1       3.547   2.520  -1.584  0.00  0.00    +0.086 S 
ATOM     13  O   UNL     1       3.589   3.666  -2.423  0.00  0.00    -0.149 OA
ATOM     14  O   UNL     1       4.317   2.418  -0.394  0.00  0.00    -0.149 OA
BRANCH  12  15
ATOM     15  C   UNL     1       3.989   1.143  -2.591  0.00  0.00    +0.110 A 
ATOM     16  C   UNL     1       4.518   0.005  -2.011  0.00  0.00    +0.029 A 
ATOM     17  C   UNL     1       4.860  -1.077  -2.800  0.00  0.00    +0.002 A 
ATOM     18  C   UNL     1       4.684  -1.018  -4.170  0.00  0.00    +0.000 A 
ATOM     19  C   UNL     1       4.161   0.123  -4.750  0.00  0.00    +0.002 A 
ATOM     20  C   UNL     1       3.813   1.203  -3.960  0.00  0.00    +0.029 A 
ENDBRANCH  12  15
ENDBRANCH  10  12
ENDBRANCH   2  10
BRANCH   1  21
ATOM     21  C   UNL     1      -0.076  -0.161   0.753  0.00  0.00    +0.346 C 
BRANCH  21  22
ATOM     22  N   UNL     1      -1.009  -1.054   0.061  0.00  0.00    -0.199 N 
ATOM     23  C   UNL     1      -0.715  -2.271  -0.507  0.00  0.00    +0.093 A 
ATOM     24  C   UNL     1       0.447  -3.026  -0.628  0.00  0.00    +0.030 A 
ATOM     25  C   UNL     1       0.410  -4.232  -1.270  0.00  0.00    +0.002 A 
ATOM     26  C   UNL     1      -0.779  -4.712  -1.804  0.00  0.00    +0.002 A 
ATOM     27  C   UNL     1      -1.933  -3.994  -1.693  0.00  0.00    +0.032 A 
ATOM     28  C   UNL     1      -1.922  -2.752  -1.044  0.00  0.00    +0.113 A 
ATOM     29  N   UNL     1      -2.875  -1.832  -0.796  0.00  0.00    -0.129 NA
ATOM     30  N   UNL     1      -2.377  -0.834  -0.155  0.00  0.00    -0.061 NA
ENDBRANCH  21  22
BRANCH  21  31
ATOM     31  O   UNL     1      -0.709   0.383   1.913  0.00  0.00    -0.462 OA
BRANCH  31  32
ATOM     32  C   UNL     1       0.104   0.821   2.910  0.00  0.00    +0.124 A 
ATOM     33  C   UNL     1       1.480   0.825   2.735  0.00  0.00    +0.046 A 
ATOM     34  C   UNL     1       2.303   1.275   3.748  0.00  0.00    +0.004 A 
ATOM     35  C   UNL     1       1.758   1.712   4.941  0.00  0.00    +0.000 A 
ATOM     36  C   UNL     1       0.387   1.704   5.121  0.00  0.00    +0.004 A 
ATOM     37  C   UNL     1      -0.441   1.259   4.108  0.00  0.00    +0.046 A 
ENDBRANCH  31  32
ENDBRANCH  21  31
ENDBRANCH   1  21
TORSDOF 8
