REMARK  Name = ZINC51634170
REMARK  3 active torsions:
REMARK  status: ('A' for Active; 'I' for Inactive)
REMARK    1  A    between atoms: C_10  and  N_12
REMARK    2  A    between atoms: N_12  and  S_13
REMARK    3  A    between atoms: S_13  and  C_16
REMARK                            x       y       z     vdW  Elec       q    Type
REMARK                         _______ _______ _______ _____ _____    ______ ____
ROOT
ATOM      1  N   UNL     1       4.653   0.048   0.883  0.00  0.00    -0.182 NA
ATOM      2  H   UNL     1       4.330   0.436   1.711  0.00  0.00    +0.149 HD
ENDROOT
BRANCH   1  12
ATOM      3  C   UNL     1       0.196   1.913  -0.111  0.00  0.00    +0.000 A 
ATOM      4  C   UNL     1       1.455   2.482  -0.067  0.00  0.00    +0.000 A 
ATOM      5  C   UNL     1       2.572   1.673  -0.053  0.00  0.00    +0.005 A 
ATOM      6  C   UNL     1       2.443   0.291  -0.082  0.00  0.00    -0.026 A 
ATOM      7  C   UNL     1       1.190  -0.276  -0.121  0.00  0.00    -0.043 A 
ATOM      8  C   UNL     1       0.066   0.540  -0.138  0.00  0.00    +0.004 A 
ATOM      9  C   UNL     1       0.974  -1.767  -0.137  0.00  0.00    +0.035 C 
ATOM     10  C   UNL     1       2.256  -2.491  -0.545  0.00  0.00    +0.007 C 
ATOM     11  C   UNL     1       3.403  -1.974   0.331  0.00  0.00    +0.025 C 
ATOM     12  C   UNL     1       3.705  -0.532  -0.072  0.00  0.00    +0.107 C 
ENDBRANCH   1  12
BRANCH   1  13
ATOM     13  S   UNL     1       6.275   0.041   0.547  0.00  0.00    +0.062 S 
ATOM     14  O   UNL     1       6.918   0.685   1.639  0.00  0.00    -0.153 OA
ATOM     15  O   UNL     1       6.600  -1.282   0.145  0.00  0.00    -0.153 OA
BRANCH  13  16
ATOM     16  C   UNL     1       6.520   1.071  -0.861  0.00  0.00    +0.141 A 
ATOM     17  C   UNL     1       6.387   0.560  -2.143  0.00  0.00    +0.144 A 
ATOM     18  N   UNL     1       6.578   1.361  -3.179  0.00  0.00    -0.221 NA
ATOM     19  C   UNL     1       6.893   2.635  -3.001  0.00  0.00    +0.213 A 
ATOM     20  N   UNL     1       7.028   3.154  -1.789  0.00  0.00    -0.221 NA
ATOM     21  C   UNL     1       6.844   2.410  -0.711  0.00  0.00    +0.144 A 
ATOM     22  N   UNL     1       7.085   3.444  -4.107  0.00  0.00    -0.327 N 
ATOM     23  H   UNL     1       6.990   3.076  -5.000  0.00  0.00    +0.145 HD
ATOM     24  H   UNL     1       7.316   4.379  -3.990  0.00  0.00    +0.145 HD
ENDBRANCH  13  16
ENDBRANCH   1  13
TORSDOF 3
