REMARK  Name = ZINC09298121
REMARK  8 active torsions:
REMARK  status: ('A' for Active; 'I' for Inactive)
REMARK    1  A    between atoms: C_1  and  C_2
REMARK    2  A    between atoms: C_9  and  N_18
REMARK    3  A    between atoms: C_10  and  C_11
REMARK    4  A    between atoms: C_14  and  O_16
REMARK    5  A    between atoms: O_16  and  C_17
REMARK    6  A    between atoms: C_19  and  C_21
REMARK    7  A    between atoms: C_21  and  C_22
REMARK    8  A    between atoms: C_21  and  C_28
REMARK                            x       y       z     vdW  Elec       q    Type
REMARK                         _______ _______ _______ _____ _____    ______ ____
ROOT
ATOM      1  C   UNL     1       7.386   7.000  -7.984  0.00  0.00    +0.008 C 
ATOM      2  C   UNL     1       7.468   6.165  -6.704  0.00  0.00    -0.009 C 
ATOM      3  C   UNL     1       8.166   6.971  -5.605  0.00  0.00    +0.008 C 
ATOM      4  C   UNL     1       8.474   6.066  -4.412  0.00  0.00    +0.037 C 
ATOM      5  C   UNL     1       7.195   5.349  -3.997  0.00  0.00    -0.023 A 
ATOM      6  C   UNL     1       6.143   5.260  -4.840  0.00  0.00    -0.004 A 
ATOM      7  S   UNL     1       4.915   4.359  -3.938  0.00  0.00    -0.077 S 
ATOM      8  C   UNL     1       5.784   4.103  -2.461  0.00  0.00    +0.084 A 
ATOM      9  C   UNL     1       7.002   4.725  -2.699  0.00  0.00    +0.069 A 
ATOM     10  C   UNL     1       6.052   5.807  -6.231  0.00  0.00    +0.046 C 
ENDROOT
BRANCH   9  11
ATOM     11  C   UNL     1       8.055   4.750  -1.680  0.00  0.00    +0.255 C 
ATOM     12  O   UNL     1       8.880   3.856  -1.637  0.00  0.00    -0.270 OA
ATOM     13  N   UNL     1       8.109   5.761  -0.791  0.00  0.00    -0.217 N 
ATOM     14  C   UNL     1       9.078   5.783   0.146  0.00  0.00    +0.407 C 
ATOM     15  O   UNL     1       9.901   4.892   0.189  0.00  0.00    -0.226 OA
ATOM     16  H   UNL     1       7.452   6.473  -0.826  0.00  0.00    +0.161 HD
BRANCH  14  17
ATOM     17  O   UNL     1       9.132   6.794   1.033  0.00  0.00    -0.453 OA
ATOM     18  C   UNL     1      10.202   6.753   2.014  0.00  0.00    +0.282 C 
ENDBRANCH  14  17
ENDBRANCH   9  11
BRANCH   8  19
ATOM     19  N   UNL     1       5.362   3.442  -1.317  0.00  0.00    -0.279 N 
ATOM     20  C   UNL     1       4.130   2.900  -1.268  0.00  0.00    +0.229 C 
ATOM     21  O   UNL     1       3.389   2.990  -2.224  0.00  0.00    -0.274 OA
ATOM     22  H   UNL     1       5.955   3.371  -0.553  0.00  0.00    +0.155 HD
BRANCH  20  23
ATOM     23  C   UNL     1       3.672   2.182  -0.024  0.00  0.00    +0.135 C 
BRANCH  23  24
ATOM     24  C   UNL     1       2.268   1.673  -0.226  0.00  0.00    -0.031 A 
ATOM     25  C   UNL     1       1.271   2.539  -0.634  0.00  0.00    +0.005 A 
ATOM     26  C   UNL     1      -0.017   2.072  -0.820  0.00  0.00    +0.000 A 
ATOM     27  C   UNL     1      -0.308   0.739  -0.597  0.00  0.00    +0.000 A 
ATOM     28  C   UNL     1       0.689  -0.126  -0.187  0.00  0.00    +0.000 A 
ATOM     29  C   UNL     1       1.977   0.340  -0.002  0.00  0.00    +0.005 A 
ENDBRANCH  23  24
BRANCH  23  30
ATOM     30  C   UNL     1       3.698   3.134   1.144  0.00  0.00    -0.031 A 
ATOM     31  C   UNL     1       4.306   2.759   2.327  0.00  0.00    +0.005 A 
ATOM     32  C   UNL     1       4.334   3.634   3.397  0.00  0.00    +0.000 A 
ATOM     33  C   UNL     1       3.746   4.880   3.287  0.00  0.00    +0.000 A 
ATOM     34  C   UNL     1       3.133   5.252   2.105  0.00  0.00    +0.000 A 
ATOM     35  C   UNL     1       3.109   4.379   1.034  0.00  0.00    +0.005 A 
ENDBRANCH  23  30
ENDBRANCH  20  23
ENDBRANCH   8  19
TORSDOF 6
