REMARK  Name = ZINC61099044
REMARK  4 active torsions:
REMARK  status: ('A' for Active; 'I' for Inactive)
REMARK    1  A    between atoms: C_1  and  N_2
REMARK    2  A    between atoms: C_4  and  S_8
REMARK    3  A    between atoms: S_8  and  N_11
REMARK    4  A    between atoms: N_11  and  C_12
REMARK                            x       y       z     vdW  Elec       q    Type
REMARK                         _______ _______ _______ _____ _____    ______ ____
ROOT
ATOM      1  S   UNL     1       0.043  -3.501  -1.720  0.00  0.00    +0.096 S 
ATOM      2  O   UNL     1      -0.968  -4.372  -1.232  0.00  0.00    -0.148 OA
ATOM      3  O   UNL     1       0.058  -3.026  -3.059  0.00  0.00    -0.148 OA
ENDROOT
BRANCH   1   7
ATOM      4  C   UNL     1      -0.018   1.461   0.010  0.00  0.00    +0.172 C 
ATOM      5  N   UNL     1       0.002  -0.004   0.002  0.00  0.00    -0.271 N 
ATOM      6  C   UNL     1       0.008  -0.791  -1.095  0.00  0.00    +0.139 A 
ATOM      7  C   UNL     1       0.028  -2.078  -0.681  0.00  0.00    +0.169 A 
ATOM      8  C   UNL     1       0.035  -2.080   0.723  0.00  0.00    +0.165 A 
ATOM      9  N   UNL     1       0.025  -0.833   1.131  0.00  0.00    -0.155 NA
ATOM     10  N   UNL     1       0.055  -3.214   1.544  0.00  0.00    -0.340 N 
ATOM     11  H   UNL     1       0.065  -4.099   1.148  0.00  0.00    +0.144 HD
ATOM     12  H   UNL     1       0.058  -3.114   2.509  0.00  0.00    +0.144 HD
ENDBRANCH   1   7
BRANCH   1  13
ATOM     13  N   UNL     1       1.489  -4.271  -1.476  0.00  0.00    -0.098 NA
BRANCH  13  14
ATOM     14  C   UNL     1       1.783  -5.445  -2.175  0.00  0.00    +0.080 A 
ATOM     15  C   UNL     1       0.865  -5.964  -3.079  0.00  0.00    +0.068 A 
ATOM     16  C   UNL     1       1.157  -7.125  -3.771  0.00  0.00    +0.163 A 
ATOM     17  C   UNL     1       2.365  -7.772  -3.562  0.00  0.00    +0.193 A 
ATOM     18  C   UNL     1       3.282  -7.256  -2.659  0.00  0.00    +0.163 A 
ATOM     19  C   UNL     1       2.995  -6.091  -1.970  0.00  0.00    +0.068 A 
ATOM     20  F   UNL     1       4.459  -7.888  -2.456  0.00  0.00    -0.202 F 
ATOM     21  F   UNL     1       2.650  -8.907  -4.239  0.00  0.00    -0.199 F 
ATOM     22  F   UNL     1       0.265  -7.630  -4.651  0.00  0.00    -0.202 F 
ENDBRANCH  13  14
ENDBRANCH   1  13
TORSDOF 3
