REMARK  Name = ZINC33253838
REMARK  7 active torsions:
REMARK  status: ('A' for Active; 'I' for Inactive)
REMARK    1  A    between atoms: C_4  and  C_7
REMARK    2  A    between atoms: C_7  and  C_8
REMARK    3  A    between atoms: N_11  and  C_14
REMARK    4  A    between atoms: C_17  and  C_32
REMARK    5  A    between atoms: C_19  and  N_20
REMARK    6  A    between atoms: N_20  and  S_21
REMARK    7  A    between atoms: S_21  and  C_24
REMARK                            x       y       z     vdW  Elec       q    Type
REMARK                         _______ _______ _______ _____ _____    ______ ____
ROOT
ATOM      1  C   UNL     1       6.763  -0.872   4.695  0.00  0.00    +0.038 A 
ATOM      2  C   UNL     1       6.013  -1.515   5.663  0.00  0.00    +0.024 A 
ATOM      3  C   UNL     1       6.524  -1.695   6.931  0.00  0.00    +0.017 A 
ATOM      4  C   UNL     1       7.803  -1.226   7.242  0.00  0.00    +0.065 A 
ATOM      5  C   UNL     1       8.560  -0.578   6.265  0.00  0.00    +0.043 A 
ATOM      6  C   UNL     1       8.039  -0.407   4.991  0.00  0.00    +0.095 A 
ENDROOT
BRANCH   1  10
ATOM      7  C   UNL     1       4.171  -0.963   1.399  0.00  0.00    -0.004 C 
ATOM      8  C   UNL     1       4.474   0.372   2.086  0.00  0.00    +0.021 C 
ATOM      9  C   UNL     1       5.009   0.105   3.494  0.00  0.00    +0.085 C 
ATOM     10  N   UNL     1       6.237  -0.694   3.412  0.00  0.00    -0.392 NA
ATOM     11  C   UNL     1       5.941  -2.004   2.819  0.00  0.00    +0.085 C 
ATOM     12  C   UNL     1       5.442  -1.818   1.385  0.00  0.00    +0.021 C 
ATOM     13  H   UNL     1       6.913  -0.211   2.838  0.00  0.00    +0.126 HD
BRANCH   7  14
ATOM     14  C   UNL     1       3.711  -0.707  -0.038  0.00  0.00    +0.038 C 
BRANCH  14  18
ATOM     15  C   UNL     1      -0.017   1.378   0.010  0.00  0.00    +0.000 A 
ATOM     16  C   UNL     1       1.171   2.086   0.002  0.00  0.00    +0.000 A 
ATOM     17  C   UNL     1       2.377   1.411  -0.013  0.00  0.00    +0.003 A 
ATOM     18  C   UNL     1       2.396   0.029  -0.020  0.00  0.00    -0.047 A 
ATOM     19  C   UNL     1       1.208  -0.679  -0.012  0.00  0.00    +0.003 A 
ATOM     20  C   UNL     1       0.002  -0.004   0.002  0.00  0.00    +0.000 A 
ENDBRANCH  14  18
ENDBRANCH   7  14
ENDBRANCH   1  10
BRANCH   4  21
ATOM     21  C   UNL     1       8.352  -1.417   8.599  0.00  0.00    +0.387 C 
ATOM     22  O   UNL     1       7.687  -1.985   9.453  0.00  0.00    -0.241 OA
ATOM     23  O   UNL     1       9.472  -1.006   8.868  0.00  0.00    -0.241 OA
ENDBRANCH   4  21
BRANCH   6  24
ATOM     24  N   UNL     1       8.794   0.236   4.008  0.00  0.00    -0.096 NA
BRANCH  24  25
ATOM     25  S   UNL     1      10.314   0.790   4.361  0.00  0.00    +0.094 S 
ATOM     26  O   UNL     1      10.155   1.834   5.311  0.00  0.00    -0.148 OA
ATOM     27  O   UNL     1      11.115  -0.356   4.615  0.00  0.00    -0.148 OA
BRANCH  25  28
ATOM     28  C   UNL     1      10.951   1.535   2.896  0.00  0.00    +0.148 A 
ATOM     29  C   UNL     1      11.217   2.890   2.870  0.00  0.00    +0.070 A 
ATOM     30  C   UNL     1      11.718   3.475   1.720  0.00  0.00    +0.125 A 
ATOM     31  C   UNL     1      11.951   2.702   0.595  0.00  0.00    +0.041 A 
ATOM     32  C   UNL     1      11.685   1.347   0.621  0.00  0.00    +0.043 A 
ATOM     33  C   UNL     1      11.189   0.760   1.774  0.00  0.00    +0.150 A 
ATOM     34  F   UNL     1      10.933  -0.566   1.801  0.00  0.00    -0.203 F 
ATOM     35  F   UNL     1      11.978   4.801   1.694  0.00  0.00    -0.205 F 
ENDBRANCH  25  28
ENDBRANCH  24  25
ENDBRANCH   6  24
TORSDOF 7
