REMARK  Name = ZINC20386448
REMARK  10 active torsions:
REMARK  status: ('A' for Active; 'I' for Inactive)
REMARK    1  A    between atoms: C_1  and  C_2
REMARK    2  A    between atoms: C_2  and  N_3
REMARK    3  A    between atoms: C_9  and  N_27
REMARK    4  A    between atoms: C_10  and  C_11
REMARK    5  A    between atoms: C_11  and  C_13
REMARK    6  A    between atoms: C_11  and  N_14
REMARK    7  A    between atoms: N_17  and  C_18
REMARK    8  A    between atoms: C_20  and  C_26
REMARK    9  A    between atoms: C_23  and  O_24
REMARK   10  A    between atoms: O_24  and  C_25
REMARK                            x       y       z     vdW  Elec       q    Type
REMARK                         _______ _______ _______ _____ _____    ______ ____
ROOT
ATOM      1  N   UNL     1       4.349  10.227  -4.577  0.00  0.00    +0.383 N 
ATOM      2  C   UNL     1       3.252  10.326  -3.605  0.00  0.00    -0.074 C 
ATOM      3  C   UNL     1       3.096   9.007  -2.845  0.00  0.00    +0.018 C 
ATOM      4  C   UNL     1       4.461   8.614  -2.284  0.00  0.00    -0.034 A 
ATOM      5  C   UNL     1       5.584   9.195  -2.790  0.00  0.00    -0.021 A 
ATOM      6  S   UNL     1       6.898   8.467  -1.851  0.00  0.00    -0.077 S 
ATOM      7  C   UNL     1       5.896   7.415  -0.811  0.00  0.00    +0.090 A 
ATOM      8  C   UNL     1       4.641   7.695  -1.254  0.00  0.00    +0.007 A 
ATOM      9  C   UNL     1       5.654  10.204  -3.888  0.00  0.00    -0.035 C 
ATOM     10  H   UNL     1       4.231   9.282  -5.128  0.00  0.00    -0.081 HD
ENDROOT
BRANCH   7  11
ATOM     11  N   UNL     1       6.299   6.532   0.198  0.00  0.00    -0.317 N 
ATOM     12  C   UNL     1       5.466   5.860   1.046  0.00  0.00    +0.092 A 
ATOM     13  C   UNL     1       6.224   5.108   1.872  0.00  0.00    +0.019 A 
ATOM     14  C   UNL     1       7.572   5.329   1.527  0.00  0.00    +0.019 A 
ATOM     15  C   UNL     1       7.589   6.204   0.501  0.00  0.00    +0.092 A 
ENDBRANCH   7  11
BRANCH   1  17
ATOM     16  C   UNL     1       4.334  12.663  -4.820  0.00  0.00    -0.017 C 
ATOM     17  C   UNL     1       4.288  11.322  -5.554  0.00  0.00    -0.082 C 
ENDBRANCH   1  17
BRANCH   8  18
ATOM     18  C   UNL     1       3.451   7.009  -0.635  0.00  0.00    +0.104 C 
ATOM     19  C   UNL     1       3.202   7.579   0.762  0.00  0.00    +0.033 C 
BRANCH  18  20
ATOM     20  N   UNL     1       3.713   5.571  -0.536  0.00  0.00    -0.292 N 
ATOM     21  C   UNL     1       2.697   4.714  -0.311  0.00  0.00    +0.304 C 
ATOM     22  O   UNL     1       1.563   5.135  -0.191  0.00  0.00    -0.252 OA
ATOM     23  N   UNL     1       2.939   3.391  -0.220  0.00  0.00    -0.266 N 
ATOM     24  H   UNL     1       4.739   5.190  -0.645  0.00  0.00    +0.151 HD
ATOM     25  H   UNL     1       3.973   3.018  -0.252  0.00  0.00    +0.156 HD
BRANCH  23  26
ATOM     26  C   UNL     1       1.872   2.492  -0.085  0.00  0.00    +0.077 A 
ATOM     27  C   UNL     1       0.727   2.869   0.601  0.00  0.00    +0.030 A 
ATOM     28  C   UNL     1      -0.323   1.981   0.734  0.00  0.00    -0.048 A 
ATOM     29  C   UNL     1      -0.238   0.717   0.179  0.00  0.00    +0.007 A 
ATOM     30  C   UNL     1       0.902   0.332  -0.501  0.00  0.00    +0.048 A 
ATOM     31  C   UNL     1       1.960   1.217  -0.638  0.00  0.00    +0.141 A 
ATOM     32  C   UNL     1      -1.567   2.392   1.479  0.00  0.00    +0.044 C 
BRANCH  31  33
ATOM     33  O   UNL     1       3.079   0.842  -1.312  0.00  0.00    -0.493 OA
ATOM     34  C   UNL     1       3.099  -0.481  -1.853  0.00  0.00    +0.277 C 
ENDBRANCH  31  33
ENDBRANCH  23  26
ENDBRANCH  18  20
ENDBRANCH   8  18
TORSDOF 6
