REMARK  Name = ZINC23009431
REMARK  5 active torsions:
REMARK  status: ('A' for Active; 'I' for Inactive)
REMARK    1  A    between atoms: C_1  and  C_2
REMARK    2  A    between atoms: C_10  and  C_11
REMARK    3  A    between atoms: N_13  and  C_14
REMARK    4  A    between atoms: C_16  and  C_26
REMARK    5  A    between atoms: C_19  and  N_20
REMARK                            x       y       z     vdW  Elec       q    Type
REMARK                         _______ _______ _______ _____ _____    ______ ____
ROOT
ATOM      1  C   UNL     1       1.165   3.187  -0.002  0.00  0.00    +0.056 A 
ATOM      2  C   UNL     1      -0.037   3.868   0.006  0.00  0.00    +0.038 A 
ATOM      3  C   UNL     1      -1.240   3.156   0.003  0.00  0.00    +0.038 A 
ATOM      4  C   UNL     1      -1.223   1.759  -0.013  0.00  0.00    +0.015 A 
ATOM      5  C   UNL     1      -0.022   1.084  -0.015  0.00  0.00    +0.026 A 
ATOM      6  C   UNL     1       1.175   1.790  -0.013  0.00  0.00    +0.051 A 
ENDROOT
BRANCH   6   7
ATOM      7  N   UNL     1       2.387   1.103  -0.021  0.00  0.00    -0.328 N 
ATOM      8  C   UNL     1       2.548   0.334  -1.261  0.00  0.00    +0.105 C 
ATOM      9  C   UNL     1       3.946  -0.287  -1.300  0.00  0.00    +0.019 C 
ATOM     10  C   UNL     1       4.127  -1.200  -0.084  0.00  0.00    +0.003 C 
ATOM     11  C   UNL     1       3.907  -0.386   1.193  0.00  0.00    +0.019 C 
ATOM     12  C   UNL     1       2.510   0.239   1.160  0.00  0.00    +0.105 C 
ENDBRANCH   6   7
BRANCH   3  13
ATOM     13  C   UNL     1      -2.526   3.879   0.012  0.00  0.00    +0.242 C 
ATOM     14  O   UNL     1      -2.541   5.095   0.021  0.00  0.00    -0.270 OA
ATOM     15  N   UNL     1      -3.686   3.192   0.009  0.00  0.00    -0.325 N 
ATOM     16  H   UNL     1      -4.645   3.730   0.015  0.00  0.00    +0.145 HD
ATOM     17  H   UNL     1      -3.673   2.092   0.000  0.00  0.00    +0.145 HD
ENDBRANCH   3  13
BRANCH   1  20
ATOM     18  C   UNL     1       2.418   5.148   0.502  0.00  0.00    +0.284 C 
ATOM     19  O   UNL     1       1.436   5.623   1.042  0.00  0.00    -0.266 OA
ATOM     20  N   UNL     1       2.373   3.897   0.002  0.00  0.00    -0.277 N 
ATOM     21  H   UNL     1       3.284   3.434  -0.404  0.00  0.00    +0.155 HD
BRANCH  18  31
ATOM     22  C   UNL     1       2.781   8.050   1.560  0.00  0.00    +0.048 C 
ATOM     23  C   UNL     1       3.812   7.205   0.857  0.00  0.00    +0.008 A 
ATOM     24  C   UNL     1       5.188   7.583   0.537  0.00  0.00    +0.027 A 
ATOM     25  C   UNL     1       5.955   8.733   0.743  0.00  0.00    +0.012 A 
ATOM     26  C   UNL     1       7.249   8.772   0.306  0.00  0.00    +0.004 A 
ATOM     27  C   UNL     1       7.807   7.678  -0.342  0.00  0.00    +0.042 A 
ATOM     28  C   UNL     1       7.067   6.533  -0.555  0.00  0.00    +0.166 A 
ATOM     29  C   UNL     1       5.746   6.470  -0.118  0.00  0.00    +0.171 A 
ATOM     30  O   UNL     1       4.798   5.515  -0.179  0.00  0.00    -0.447 OA
ATOM     31  C   UNL     1       3.653   5.938   0.396  0.00  0.00    +0.194 A 
ATOM     32  F   UNL     1       7.622   5.475  -1.186  0.00  0.00    -0.202 F 
ENDBRANCH  18  31
ENDBRANCH   1  20
TORSDOF 4
