REMARK  Name = ZINC16608666
REMARK  12 active torsions:
REMARK  status: ('A' for Active; 'I' for Inactive)
REMARK    1  A    between atoms: C_1  and  C_2
REMARK    2  A    between atoms: C_2  and  C_3
REMARK    3  A    between atoms: C_3  and  C_5
REMARK    4  A    between atoms: C_3  and  C_6
REMARK    5  A    between atoms: C_6  and  C_8
REMARK    6  A    between atoms: C_6  and  N_25
REMARK    7  A    between atoms: C_14  and  C_16
REMARK    8  A    between atoms: N_25  and  S_26
REMARK    9  A    between atoms: S_26  and  C_29
REMARK   10  A    between atoms: C_30  and  C_37
REMARK   11  A    between atoms: C_32  and  C_36
REMARK   12  A    between atoms: C_34  and  C_35
REMARK                            x       y       z     vdW  Elec       q    Type
REMARK                         _______ _______ _______ _____ _____    ______ ____
ROOT
ATOM      1  C   UNL     1      -0.436   0.035   2.627  0.00  0.00    +0.165 C 
ENDROOT
BRANCH   1   2
ATOM      2  C   UNL     1      -0.832   0.032   4.081  0.00  0.00    +0.238 C 
ATOM      3  O   UNL     1      -0.692  -0.973   4.745  0.00  0.00    -0.274 OA
ATOM      4  N   UNL     1      -1.342   1.146   4.643  0.00  0.00    -0.262 N 
ATOM      5  C   UNL     1      -1.708   1.143   5.984  0.00  0.00    +0.188 A 
ATOM      6  N   UNL     1      -1.641   0.170   6.883  0.00  0.00    -0.125 NA
ATOM      7  N   UNL     1      -2.020   0.337   8.074  0.00  0.00    -0.140 NA
ATOM      8  C   UNL     1      -2.508   1.496   8.499  0.00  0.00    +0.134 A 
ATOM      9  S   UNL     1      -2.394   2.454   6.991  0.00  0.00    -0.030 S 
ATOM     10  H   UNL     1      -1.454   1.949   4.111  0.00  0.00    +0.157 HD
BRANCH   8  11
ATOM     11  C   UNL     1      -2.998   1.887   9.838  0.00  0.00    +0.013 A 
ATOM     12  C   UNL     1      -3.473   3.180  10.059  0.00  0.00    +0.014 A 
ATOM     13  C   UNL     1      -3.929   3.543  11.309  0.00  0.00    +0.050 A 
ATOM     14  C   UNL     1      -3.920   2.625  12.349  0.00  0.00    +0.166 A 
ATOM     15  C   UNL     1      -3.447   1.331  12.135  0.00  0.00    +0.167 A 
ATOM     16  C   UNL     1      -2.993   0.961  10.883  0.00  0.00    +0.060 A 
ATOM     17  O   UNL     1      -3.543   0.633  13.304  0.00  0.00    -0.453 OA
ATOM     18  C   UNL     1      -4.455   1.383  14.127  0.00  0.00    +0.466 C 
ATOM     19  O   UNL     1      -4.310   2.735  13.653  0.00  0.00    -0.453 OA
ENDBRANCH   8  11
ENDBRANCH   1   2
BRANCH   1  20
ATOM     20  C   UNL     1      -1.659   0.356   1.766  0.00  0.00    +0.013 C 
ATOM     21  C   UNL     1      -1.249   0.399   0.292  0.00  0.00    +0.009 C 
BRANCH  20  23
ATOM     22  C   UNL     1      -3.993  -0.339   1.205  0.00  0.00    +0.004 C 
ATOM     23  C   UNL     1      -2.724  -0.724   1.968  0.00  0.00    +0.002 C 
ENDBRANCH  20  23
ENDBRANCH   1  20
BRANCH   1  24
ATOM     24  N   UNL     1       0.086  -1.284   2.260  0.00  0.00    -0.178 NA
ATOM     25  H   UNL     1      -0.472  -2.071   2.359  0.00  0.00    +0.149 HD
BRANCH  24  26
ATOM     26  S   UNL     1       1.629  -1.431   1.677  0.00  0.00    +0.060 S 
ATOM     27  O   UNL     1       1.850  -2.817   1.458  0.00  0.00    -0.153 OA
ATOM     28  O   UNL     1       1.766  -0.465   0.644  0.00  0.00    -0.153 OA
BRANCH  26  29
ATOM     29  C   UNL     1       2.723  -0.944   2.970  0.00  0.00    +0.111 A 
ATOM     30  C   UNL     1       3.329   0.297   2.932  0.00  0.00    -0.024 A 
ATOM     31  C   UNL     1       4.184   0.681   3.948  0.00  0.00    +0.008 A 
ATOM     32  C   UNL     1       4.440  -0.181   4.998  0.00  0.00    -0.050 A 
ATOM     33  C   UNL     1       3.838  -1.425   5.033  0.00  0.00    +0.008 A 
ATOM     34  C   UNL     1       2.979  -1.807   4.019  0.00  0.00    -0.024 A 
ATOM     35  C   UNL     1       2.323  -3.163   4.058  0.00  0.00    +0.046 C 
ATOM     36  C   UNL     1       5.375   0.235   6.104  0.00  0.00    +0.044 C 
ATOM     37  C   UNL     1       3.054   1.235   1.784  0.00  0.00    +0.046 C 
ENDBRANCH  26  29
ENDBRANCH  24  26
ENDBRANCH   1  24
TORSDOF 7
