REMARK  Name = ZINC44855767
REMARK  7 active torsions:
REMARK  status: ('A' for Active; 'I' for Inactive)
REMARK    1  A    between atoms: C_1  and  C_2
REMARK    2  A    between atoms: N_7  and  C_9
REMARK    3  A    between atoms: C_12  and  C_15
REMARK    4  A    between atoms: C_15  and  N_16
REMARK    5  A    between atoms: C_17  and  C_19
REMARK    6  A    between atoms: N_24  and  C_26
REMARK    7  A    between atoms: C_26  and  C_27
REMARK                            x       y       z     vdW  Elec       q    Type
REMARK                         _______ _______ _______ _____ _____    ______ ____
ROOT
ATOM      1  N   UNL     1       5.662  -5.318   3.149  0.00  0.00    -0.311 N 
ATOM      2  C   UNL     1       6.744  -6.042   3.498  0.00  0.00    +0.215 C 
ATOM      3  O   UNL     1       7.413  -6.583   2.643  0.00  0.00    -0.276 OA
ATOM      4  H   UNL     1       5.126  -4.885   3.832  0.00  0.00    +0.149 HD
ENDROOT
BRANCH   2   5
ATOM      5  C   UNL     1       7.121  -6.179   4.950  0.00  0.00    +0.058 C 
ATOM      6  C   UNL     1       7.400  -4.794   5.540  0.00  0.00    +0.009 C 
ATOM      7  C   UNL     1       7.859  -4.950   6.992  0.00  0.00    -0.018 C 
ATOM      8  C   UNL     1       9.089  -5.859   7.038  0.00  0.00    -0.078 C 
ATOM      9  N   UNL     1       8.751  -7.176   6.485  0.00  0.00    +0.383 N 
ATOM     10  C   UNL     1       8.379  -7.043   5.072  0.00  0.00    -0.066 C 
ATOM     11  H   UNL     1       7.976  -7.566   7.000  0.00  0.00    -0.081 HD
BRANCH   9  12
ATOM     12  C   UNL     1       9.913  -8.067   6.603  0.00  0.00    -0.043 C 
BRANCH  12  13
ATOM     13  C   UNL     1      10.214  -8.311   8.059  0.00  0.00    -0.064 A 
ATOM     14  C   UNL     1      11.076  -7.469   8.736  0.00  0.00    +0.003 A 
ATOM     15  C   UNL     1      11.353  -7.692  10.072  0.00  0.00    +0.015 A 
ATOM     16  C   UNL     1      10.766  -8.757  10.731  0.00  0.00    +0.018 A 
ATOM     17  C   UNL     1       9.903  -9.599  10.053  0.00  0.00    +0.015 A 
ATOM     18  C   UNL     1       9.623  -9.373   8.719  0.00  0.00    +0.003 A 
ATOM     19 BR   UNL     1      11.144  -9.063  12.559  0.00  0.00    -0.050 Br
ENDBRANCH  12  13
ENDBRANCH   9  12
ENDBRANCH   2   5
BRANCH   1  20
ATOM     20  C   UNL     1       5.295  -5.184   1.737  0.00  0.00    +0.139 C 
BRANCH  20  24
ATOM     21  C   UNL     1       1.786  -2.767   1.399  0.00  0.00    +0.030 A 
ATOM     22  C   UNL     1       3.043  -2.177   1.369  0.00  0.00    +0.023 A 
ATOM     23  C   UNL     1       4.175  -2.961   1.479  0.00  0.00    +0.007 A 
ATOM     24  C   UNL     1       4.057  -4.332   1.618  0.00  0.00    -0.030 A 
ATOM     25  C   UNL     1       2.807  -4.923   1.648  0.00  0.00    +0.007 A 
ATOM     26  C   UNL     1       1.671  -4.144   1.545  0.00  0.00    +0.023 A 
BRANCH  21  32
ATOM     27  C   UNL     1      -0.013   1.539   0.045  0.00  0.00    +0.009 C 
ATOM     28  C   UNL     1       0.010   0.010   0.019  0.00  0.00    +0.003 C 
ATOM     29  C   UNL     1      -1.425  -0.522   0.015  0.00  0.00    +0.006 C 
ATOM     30  C   UNL     1      -1.404  -2.052  -0.044  0.00  0.00    +0.019 C 
ATOM     31  C   UNL     1      -0.690  -2.596   1.198  0.00  0.00    +0.105 C 
ATOM     32  N   UNL     1       0.639  -1.977   1.288  0.00  0.00    -0.330 N 
ATOM     33  C   UNL     1       0.740  -0.512   1.261  0.00  0.00    +0.108 C 
ENDBRANCH  21  32
ENDBRANCH  20  24
ENDBRANCH   1  20
TORSDOF 6
