REMARK  Name = ZINC59116044
REMARK  3 active torsions:
REMARK  status: ('A' for Active; 'I' for Inactive)
REMARK    1  A    between atoms: C_6  and  C_7
REMARK    2  A    between atoms: C_7  and  C_8
REMARK    3  A    between atoms: C_12  and  N_17
REMARK                            x       y       z     vdW  Elec       q    Type
REMARK                         _______ _______ _______ _____ _____    ______ ____
ROOT
ATOM      1  C   UNL     1      -1.288  -0.783   0.011  0.00  0.00    +0.131 C 
ENDROOT
BRANCH   1   7
ATOM      2  C   UNL     1      -0.017   1.383   0.010  0.00  0.00    +0.006 A 
ATOM      3  C   UNL     1       1.142   2.115   0.003  0.00  0.00    +0.029 A 
ATOM      4  C   UNL     1       2.402   1.473  -0.013  0.00  0.00    +0.080 A 
ATOM      5  C   UNL     1       2.382   0.060  -0.021  0.00  0.00    +0.041 A 
ATOM      6  C   UNL     1       1.217  -0.665  -0.013  0.00  0.00    +0.021 A 
ATOM      7  C   UNL     1       0.002  -0.004   0.002  0.00  0.00    -0.037 A 
ATOM      8  S   UNL     1       4.113  -0.343  -0.040  0.00  0.00    -0.053 S 
ATOM      9  C   UNL     1       4.734   1.333  -0.037  0.00  0.00    +0.157 A 
ATOM     10  N   UNL     1       3.628   2.042  -0.022  0.00  0.00    -0.225 NA
ATOM     11  N   UNL     1       6.042   1.771  -0.047  0.00  0.00    -0.337 N 
ATOM     12  H   UNL     1       6.769   1.129  -0.057  0.00  0.00    +0.144 HD
ATOM     13  H   UNL     1       6.235   2.722  -0.043  0.00  0.00    +0.144 HD
ENDBRANCH   1   7
BRANCH   1  14
ATOM     14  C   UNL     1      -1.732  -1.035  -1.407  0.00  0.00    +0.201 A 
ATOM     15  N   UNL     1      -1.404  -2.074  -2.114  0.00  0.00    -0.213 NA
ATOM     16  C   UNL     1      -1.982  -1.970  -3.342  0.00  0.00    +0.111 A 
ATOM     17  C   UNL     1      -1.977  -2.775  -4.482  0.00  0.00    +0.054 A 
ATOM     18  C   UNL     1      -2.685  -2.380  -5.602  0.00  0.00    +0.027 A 
ATOM     19  C   UNL     1      -3.401  -1.184  -5.595  0.00  0.00    +0.026 A 
ATOM     20  C   UNL     1      -3.411  -0.384  -4.472  0.00  0.00    +0.050 A 
ATOM     21  C   UNL     1      -2.706  -0.768  -3.341  0.00  0.00    +0.155 A 
ATOM     22  O   UNL     1      -2.528  -0.221  -2.118  0.00  0.00    -0.439 OA
BRANCH  18  23
ATOM     23  N   UNL     1      -2.683  -3.183  -6.747  0.00  0.00    -0.358 N 
ATOM     24  H   UNL     1      -2.185  -4.015  -6.755  0.00  0.00    +0.142 HD
ATOM     25  H   UNL     1      -3.179  -2.907  -7.534  0.00  0.00    +0.142 HD
ENDBRANCH  18  23
ENDBRANCH   1  14
TORSDOF 3
