REMARK  Name = ZINC40684222
REMARK  9 active torsions:
REMARK  status: ('A' for Active; 'I' for Inactive)
REMARK    1  A    between atoms: C_1  and  C_2
REMARK    2  A    between atoms: C_5  and  O_28
REMARK    3  A    between atoms: C_6  and  N_8
REMARK    4  A    between atoms: C_10  and  N_27
REMARK    5  A    between atoms: C_11  and  N_15
REMARK    6  A    between atoms: C_17  and  C_26
REMARK    7  A    between atoms: C_22  and  C_24
REMARK    8  A    between atoms: C_22  and  C_25
REMARK    9  A    between atoms: O_28  and  C_29
REMARK                            x       y       z     vdW  Elec       q    Type
REMARK                         _______ _______ _______ _____ _____    ______ ____
ROOT
ATOM      1  N   UNL     1      -0.805  -2.453   2.455  0.00  0.00    -0.295 N 
ATOM      2  C   UNL     1      -0.272  -1.940   3.632  0.00  0.00    +0.149 A 
ATOM      3  C   UNL     1       0.338  -2.785   4.561  0.00  0.00    +0.106 A 
ATOM      4  C   UNL     1       0.858  -2.218   5.725  0.00  0.00    +0.147 A 
ATOM      5  N   UNL     1       0.753  -0.903   5.905  0.00  0.00    -0.219 NA
ATOM      6  C   UNL     1       0.169  -0.141   5.003  0.00  0.00    +0.225 A 
ATOM      7  N   UNL     1      -0.330  -0.635   3.888  0.00  0.00    -0.219 NA
ATOM      8  H   UNL     1      -0.674  -3.387   2.229  0.00  0.00    +0.154 HD
ENDROOT
BRANCH   4   9
ATOM      9  N   UNL     1       1.476  -3.014   6.683  0.00  0.00    -0.310 N 
ATOM     10  C   UNL     1       1.500  -4.485   6.695  0.00  0.00    +0.113 C 
ATOM     11  C   UNL     1       2.255  -4.899   7.979  0.00  0.00    -0.014 C 
ATOM     12  C   UNL     1       3.199  -3.688   8.210  0.00  0.00    +0.030 C 
ATOM     13  C   UNL     1       2.230  -2.532   7.857  0.00  0.00    +0.076 C 
ATOM     14  C   UNL     1       1.273  -2.369   9.035  0.00  0.00    +0.029 C 
ATOM     15  C   UNL     1       0.537  -3.642   9.413  0.00  0.00    -0.033 C 
ATOM     16  C   UNL     1       1.269  -4.942   9.144  0.00  0.00    +0.014 C 
ATOM     17  C   UNL     1      -0.839  -3.664   8.729  0.00  0.00    +0.011 C 
ATOM     18  C   UNL     1       0.266  -3.576  10.937  0.00  0.00    +0.011 C 
ATOM     19  C   UNL     1       3.025  -6.217   7.803  0.00  0.00    +0.013 C 
ENDBRANCH   4   9
BRANCH   1  25
ATOM     20  C   UNL     1      -3.458   1.627   1.755  0.00  0.00    +0.044 C 
ATOM     21  C   UNL     1      -2.829   0.363   1.228  0.00  0.00    -0.048 A 
ATOM     22  C   UNL     1      -2.973   0.025  -0.105  0.00  0.00    +0.007 A 
ATOM     23  C   UNL     1      -2.399  -1.134  -0.594  0.00  0.00    +0.048 A 
ATOM     24  C   UNL     1      -1.678  -1.961   0.252  0.00  0.00    +0.141 A 
ATOM     25  C   UNL     1      -1.533  -1.621   1.595  0.00  0.00    +0.075 A 
ATOM     26  C   UNL     1      -2.107  -0.453   2.078  0.00  0.00    +0.030 A 
BRANCH  24  27
ATOM     27  O   UNL     1      -1.114  -3.101  -0.228  0.00  0.00    -0.493 OA
ATOM     28  C   UNL     1      -1.305  -3.386  -1.615  0.00  0.00    +0.277 C 
ENDBRANCH  24  27
ENDBRANCH   1  25
BRANCH   3  29
ATOM     29  N   UNL     1       0.427  -4.167   4.329  0.00  0.00    -0.353 N 
ATOM     30  H   UNL     1       0.479  -4.505   3.422  0.00  0.00    +0.143 HD
ATOM     31  H   UNL     1       0.436  -4.785   5.078  0.00  0.00    +0.143 HD
ENDBRANCH   3  29
TORSDOF 4
