REMARK  Name = ZINC65061852
REMARK  8 active torsions:
REMARK  status: ('A' for Active; 'I' for Inactive)
REMARK    1  A    between atoms: C_1  and  C_2
REMARK    2  A    between atoms: C_2  and  C_4
REMARK    3  A    between atoms: C_2  and  C_18
REMARK    4  A    between atoms: N_7  and  S_10
REMARK    5  A    between atoms: S_10  and  C_13
REMARK    6  A    between atoms: N_20  and  C_21
REMARK    7  A    between atoms: C_21  and  C_22
REMARK    8  A    between atoms: C_22  and  C_23
REMARK                            x       y       z     vdW  Elec       q    Type
REMARK                         _______ _______ _______ _____ _____    ______ ____
ROOT
ATOM      1  C   UNL     1       0.731  -0.503   1.223  0.00  0.00    +0.216 C 
ATOM      2  O   UNL     1       1.725  -1.187   1.099  0.00  0.00    -0.276 OA
ATOM      3  N   UNL     1       0.278  -0.191   2.453  0.00  0.00    -0.315 N 
ATOM      4  H   UNL     1      -0.517   0.356   2.553  0.00  0.00    +0.149 HD
ENDROOT
BRANCH   1   6
ATOM      5  C   UNL     1      -0.019   1.526   0.010  0.00  0.00    +0.017 C 
ATOM      6  C   UNL     1       0.002  -0.004   0.002  0.00  0.00    +0.075 C 
BRANCH   6   7
ATOM      7  C   UNL     1       0.718  -0.497  -1.257  0.00  0.00    +0.003 C 
ATOM      8  C   UNL     1      -0.021   0.011  -2.497  0.00  0.00    +0.021 C 
ATOM      9  C   UNL     1       0.718  -0.456  -3.754  0.00  0.00    +0.110 C 
ATOM     10  N   UNL     1       0.870  -1.916  -3.699  0.00  0.00    -0.176 NA
ATOM     11  C   UNL     1       1.487  -2.518  -2.509  0.00  0.00    +0.110 C 
ATOM     12  C   UNL     1       0.739  -2.028  -1.265  0.00  0.00    +0.021 C 
BRANCH  10  13
ATOM     13  S   UNL     1       0.355  -2.866  -4.954  0.00  0.00    +0.067 S 
ATOM     14  O   UNL     1       0.112  -4.157  -4.413  0.00  0.00    -0.152 OA
ATOM     15  O   UNL     1      -0.646  -2.126  -5.639  0.00  0.00    -0.152 OA
BRANCH  13  16
ATOM     16  C   UNL     1       1.709  -3.035  -6.069  0.00  0.00    +0.143 A 
ATOM     17  C   UNL     1       2.682  -3.978  -6.094  0.00  0.00    +0.036 A 
ATOM     18  C   UNL     1       3.655  -3.912  -7.074  0.00  0.00    +0.010 A 
ATOM     19  C   UNL     1       3.607  -2.905  -7.981  0.00  0.00    +0.047 A 
ATOM     20  S   UNL     1       2.151  -2.012  -7.464  0.00  0.00    -0.077 S 
ENDBRANCH  13  16
ENDBRANCH  10  13
ENDBRANCH   6   7
ENDBRANCH   1   6
BRANCH   3  21
ATOM     21  C   UNL     1       0.986  -0.676   3.640  0.00  0.00    +0.108 C 
BRANCH  21  22
ATOM     22  C   UNL     1       0.270  -0.182   4.899  0.00  0.00    +0.052 C 
BRANCH  22  23
ATOM     23  C   UNL     1       0.999  -0.682   6.120  0.00  0.00    -0.040 C 
ATOM     24  C   UNL     1       1.935  -0.018   6.836  0.00  0.00    +0.000 A 
ATOM     25  C   UNL     1       2.533   1.315   6.697  0.00  0.00    +0.030 A 
ATOM     26  C   UNL     1       3.470   1.710   7.589  0.00  0.00    +0.042 A 
ATOM     27  C   UNL     1       3.885   0.879   8.640  0.00  0.00    +0.022 A 
ATOM     28  C   UNL     1       3.382  -0.359   8.832  0.00  0.00    +0.027 A 
ATOM     29  C   UNL     1       2.389  -0.876   7.954  0.00  0.00    +0.043 A 
ATOM     30  N   UNL     1       1.759  -2.025   7.929  0.00  0.00    -0.380 N 
ATOM     31  C   UNL     1       0.827  -2.023   6.796  0.00  0.00    +0.144 C 
ATOM     32 CL   UNL     1       4.179   3.287   7.429  0.00  0.00    -0.084 Cl
ATOM     33  H   UNL     1       1.884  -2.753   8.558  0.00  0.00    +0.160 HD
ENDBRANCH  22  23
ENDBRANCH  21  22
ENDBRANCH   3  21
TORSDOF 7
