REMARK  Name = ZINC09588477
REMARK  9 active torsions:
REMARK  status: ('A' for Active; 'I' for Inactive)
REMARK    1  A    between atoms: C_1  and  C_2
REMARK    2  A    between atoms: C_2  and  C_4
REMARK    3  A    between atoms: C_2  and  N_12
REMARK    4  A    between atoms: C_4  and  C_5
REMARK    5  A    between atoms: C_5  and  C_6
REMARK    6  A    between atoms: C_13  and  C_15
REMARK    7  A    between atoms: C_15  and  N_16
REMARK    8  A    between atoms: N_29  and  C_30
REMARK    9  A    between atoms: C_30  and  C_31
REMARK                            x       y       z     vdW  Elec       q    Type
REMARK                         _______ _______ _______ _____ _____    ______ ____
ROOT
ATOM      1  N   UNL     1      -4.240   2.641  -2.119  0.00  0.00    -0.260 N 
ATOM      2  C   UNL     1      -5.023   1.515  -2.396  0.00  0.00    +0.058 A 
ATOM      3  C   UNL     1      -4.435   0.285  -2.646  0.00  0.00    +0.025 A 
ATOM      4  C   UNL     1      -5.227  -0.814  -2.921  0.00  0.00    +0.002 A 
ATOM      5  C   UNL     1      -6.604  -0.693  -2.948  0.00  0.00    +0.002 A 
ATOM      6  C   UNL     1      -7.199   0.524  -2.687  0.00  0.00    +0.025 A 
ATOM      7  C   UNL     1      -6.413   1.629  -2.415  0.00  0.00    +0.060 A 
ATOM      8  N   UNL     1      -6.989   2.884  -2.157  0.00  0.00    -0.245 N 
ATOM      9  C   UNL     1      -6.262   3.805  -1.272  0.00  0.00    +0.211 C 
ATOM     10  C   UNL     1      -4.794   3.758  -1.612  0.00  0.00    +0.238 C 
ATOM     11  O   UNL     1      -4.104   4.737  -1.425  0.00  0.00    -0.273 OA
ATOM     12  C   UNL     1      -8.171   3.232  -2.704  0.00  0.00    +0.307 C 
ATOM     13  O   UNL     1      -8.707   2.497  -3.511  0.00  0.00    -0.252 OA
ATOM     14  N   UNL     1      -8.757   4.394  -2.357  0.00  0.00    -0.295 N 
ATOM     15  H   UNL     1      -8.297   5.014  -1.769  0.00  0.00    +0.151 HD
ENDROOT
BRANCH   1  16
ATOM     16  C   UNL     1      -2.800   2.606  -2.391  0.00  0.00    +0.209 C 
BRANCH  16  18
ATOM     17  N   UNL     1      -0.727   1.998  -1.186  0.00  0.00    -0.311 N 
ATOM     18  C   UNL     1      -2.070   2.113  -1.168  0.00  0.00    +0.231 C 
ATOM     19  O   UNL     1      -2.691   1.820  -0.168  0.00  0.00    -0.274 OA
ATOM     20  H   UNL     1      -0.231   2.233  -1.986  0.00  0.00    +0.149 HD
BRANCH  17  22
ATOM     21  C   UNL     1      -0.002  -0.010   0.005  0.00  0.00    +0.028 C 
ATOM     22  C   UNL     1      -0.017   1.520   0.003  0.00  0.00    +0.070 C 
BRANCH  22  23
ATOM     23  C   UNL     1       1.420   2.044  -0.016  0.00  0.00    +0.026 C 
BRANCH  23  24
ATOM     24  C   UNL     1       1.407   3.569   0.107  0.00  0.00    +0.037 C 
BRANCH  24  25
ATOM     25  C   UNL     1       2.823   4.086   0.089  0.00  0.00    -0.047 A 
ATOM     26  C   UNL     1       3.520   4.233   1.273  0.00  0.00    +0.003 A 
ATOM     27  C   UNL     1       4.820   4.702   1.256  0.00  0.00    +0.000 A 
ATOM     28  C   UNL     1       5.419   5.035   0.056  0.00  0.00    +0.000 A 
ATOM     29  C   UNL     1       4.720   4.894  -1.129  0.00  0.00    +0.000 A 
ATOM     30  C   UNL     1       3.422   4.419  -1.112  0.00  0.00    +0.003 A 
ENDBRANCH  24  25
ENDBRANCH  23  24
ENDBRANCH  22  23
ENDBRANCH  17  22
ENDBRANCH  16  18
ENDBRANCH   1  16
BRANCH  14  31
ATOM     31  C   UNL     1     -10.091   4.723  -2.866  0.00  0.00    +0.141 C 
BRANCH  31  32
ATOM     32  C   UNL     1     -10.516   6.067  -2.333  0.00  0.00    -0.030 A 
ATOM     33  C   UNL     1     -11.210   6.149  -1.141  0.00  0.00    +0.005 A 
ATOM     34  C   UNL     1     -11.596   7.382  -0.649  0.00  0.00    +0.000 A 
ATOM     35  C   UNL     1     -11.296   8.532  -1.355  0.00  0.00    +0.000 A 
ATOM     36  C   UNL     1     -10.606   8.449  -2.550  0.00  0.00    +0.000 A 
ATOM     37  C   UNL     1     -10.216   7.217  -3.039  0.00  0.00    +0.005 A 
ENDBRANCH  31  32
ENDBRANCH  14  31
TORSDOF 8
