REMARK  Name = ZINC16572403
REMARK  4 active torsions:
REMARK  status: ('A' for Active; 'I' for Inactive)
REMARK    1  A    between atoms: C_1  and  C_2
REMARK    2  A    between atoms: C_7  and  N_8
REMARK    3  A    between atoms: C_15  and  C_17
REMARK    4  A    between atoms: C_23  and  C_25
REMARK                            x       y       z     vdW  Elec       q    Type
REMARK                         _______ _______ _______ _____ _____    ______ ____
ROOT
ATOM      1  N   UNL     1       2.356   3.889   0.001  0.00  0.00    -0.269 N 
ATOM      2  C   UNL     1       3.532   3.236   0.088  0.00  0.00    +0.307 C 
ATOM      3  O   UNL     1       3.554   2.021   0.082  0.00  0.00    -0.252 OA
ATOM      4  N   UNL     1       4.682   3.931   0.183  0.00  0.00    -0.274 N 
ATOM      5  C   UNL     1       4.800   5.401   0.202  0.00  0.00    +0.110 C 
ATOM      6  C   UNL     1       6.237   5.691  -0.296  0.00  0.00    +0.021 C 
ATOM      7  C   UNL     1       7.031   4.522   0.345  0.00  0.00    +0.033 C 
ATOM      8  C   UNL     1       6.028   3.350   0.291  0.00  0.00    +0.164 C 
ATOM      9  H   UNL     1       2.341   4.857  -0.060  0.00  0.00    +0.156 HD
ENDROOT
BRANCH   8  10
ATOM     10  C   UNL     1       6.131   2.525   1.548  0.00  0.00    +0.239 C 
ATOM     11  O   UNL     1       5.331   2.685   2.445  0.00  0.00    -0.273 OA
ATOM     12  N   UNL     1       7.113   1.610   1.675  0.00  0.00    -0.262 N 
ATOM     13  C   UNL     1       7.208   0.850   2.834  0.00  0.00    +0.188 A 
ATOM     14  N   UNL     1       6.451   0.859   3.924  0.00  0.00    -0.125 NA
ATOM     15  N   UNL     1       6.678   0.093   4.900  0.00  0.00    -0.140 NA
ATOM     16  C   UNL     1       7.688  -0.768   4.895  0.00  0.00    +0.134 A 
ATOM     17  S   UNL     1       8.382  -0.426   3.280  0.00  0.00    -0.030 S 
ATOM     18  H   UNL     1       7.753   1.482   0.958  0.00  0.00    +0.157 HD
BRANCH  16  19
ATOM     19  C   UNL     1       8.116  -1.737   5.926  0.00  0.00    +0.009 A 
ATOM     20  C   UNL     1       9.221  -2.558   5.701  0.00  0.00    +0.012 A 
ATOM     21  C   UNL     1       9.618  -3.457   6.670  0.00  0.00    +0.016 A 
ATOM     22  C   UNL     1       8.916  -3.552   7.859  0.00  0.00    +0.018 A 
ATOM     23  C   UNL     1       7.815  -2.744   8.086  0.00  0.00    +0.016 A 
ATOM     24  C   UNL     1       7.412  -1.838   7.128  0.00  0.00    +0.012 A 
ATOM     25 BR   UNL     1       9.463  -4.792   9.178  0.00  0.00    -0.050 Br
ENDBRANCH  16  19
ENDBRANCH   8  10
BRANCH   1  32
ATOM     26  C   UNL     1       0.089   5.051   1.269  0.00  0.00    +0.045 C 
ATOM     27  C   UNL     1       0.025   3.700   0.605  0.00  0.00    -0.029 A 
ATOM     28  C   UNL     1      -1.159   2.987   0.600  0.00  0.00    +0.005 A 
ATOM     29  C   UNL     1      -1.220   1.750  -0.014  0.00  0.00    +0.000 A 
ATOM     30  C   UNL     1      -0.095   1.217  -0.616  0.00  0.00    +0.002 A 
ATOM     31  C   UNL     1       1.091   1.924  -0.614  0.00  0.00    +0.023 A 
ATOM     32  C   UNL     1       1.155   3.170  -0.003  0.00  0.00    +0.038 A 
ENDBRANCH   1  32
TORSDOF 3
