REMARK  Name = ZINC43769775
REMARK  7 active torsions:
REMARK  status: ('A' for Active; 'I' for Inactive)
REMARK    1  A    between atoms: C_1  and  C_2
REMARK    2  A    between atoms: C_17  and  C_38
REMARK    3  A    between atoms: C_25  and  C_27
REMARK    4  A    between atoms: C_25  and  C_28
REMARK    5  A    between atoms: C_29  and  C_31
REMARK    6  A    between atoms: C_31  and  S_32
REMARK    7  A    between atoms: S_32  and  C_33
REMARK                            x       y       z     vdW  Elec       q    Type
REMARK                         _______ _______ _______ _____ _____    ______ ____
ROOT
ATOM      1  C   UNL     1      -0.019   1.529   0.010  0.00  0.00    +0.012 C 
ATOM      2  C   UNL     1       0.002  -0.004   0.002  0.00  0.00    -0.026 C 
ATOM      3  C   UNL     1       0.746  -0.452  -1.258  0.00  0.00    +0.007 C 
ATOM      4  C   UNL     1       2.185   0.062  -1.243  0.00  0.00    +0.001 C 
ATOM      5  C   UNL     1       2.910  -0.450   0.001  0.00  0.00    +0.000 C 
ATOM      6  C   UNL     1       2.175   0.012   1.261  0.00  0.00    +0.004 C 
ATOM      7  C   UNL     1       0.737  -0.504   1.233  0.00  0.00    -0.005 C 
ATOM      8  C   UNL     1       0.001  -0.070   2.498  0.00  0.00    +0.004 C 
ATOM      9  C   UNL     1      -1.393  -0.670   2.511  0.00  0.00    +0.004 C 
ATOM     10  C   UNL     1      -2.208  -0.378   1.263  0.00  0.00    -0.004 C 
ATOM     11  C   UNL     1      -1.440  -0.451  -0.036  0.00  0.00    -0.001 C 
ATOM     12  C   UNL     1      -1.638  -1.792  -0.728  0.00  0.00    +0.005 C 
ATOM     13  C   UNL     1      -3.092  -1.940  -1.209  0.00  0.00    +0.010 C 
ATOM     14  C   UNL     1      -4.034  -1.366  -0.178  0.00  0.00    +0.002 C 
ATOM     15  C   UNL     1      -3.348  -1.389   1.208  0.00  0.00    +0.001 C 
ATOM     16  C   UNL     1      -4.523  -1.041   2.144  0.00  0.00    +0.007 C 
ATOM     17  C   UNL     1      -5.674  -1.910   1.561  0.00  0.00    +0.037 C 
ATOM     18  C   UNL     1      -5.324  -2.138   0.079  0.00  0.00    +0.093 C 
ATOM     19  C   UNL     1      -5.218  -3.638  -0.221  0.00  0.00    +0.146 C 
ATOM     20  N   UNL     1      -6.650  -4.002  -0.393  0.00  0.00    -0.270 N 
ATOM     21  C   UNL     1      -7.273  -2.799  -0.973  0.00  0.00    +0.133 C 
ATOM     22  O   UNL     1      -6.389  -1.684  -0.768  0.00  0.00    -0.348 OA
ATOM     23  C   UNL     1      -8.618  -2.534  -0.295  0.00  0.00    +0.063 C 
ATOM     24  C   UNL     1      -7.491  -3.012  -2.474  0.00  0.00    +0.063 C 
ATOM     25  C   UNL     1      -7.240  -5.169  -0.087  0.00  0.00    +0.228 C 
ATOM     26  O   UNL     1      -8.427  -5.319  -0.285  0.00  0.00    -0.275 OA
ATOM     27  C   UNL     1      -4.436   0.061  -0.575  0.00  0.00    +0.014 C 
ENDROOT
BRANCH  25  28
ATOM     28  C   UNL     1      -6.426  -6.293   0.501  0.00  0.00    +0.173 C 
BRANCH  28  29
ATOM     29  S   UNL     1      -7.500  -7.724   0.800  0.00  0.00    -0.083 S 
BRANCH  29  30
ATOM     30  C   UNL     1      -6.415  -8.936   1.479  0.00  0.00    +0.128 C 
ATOM     31  N   UNL     1      -5.125  -8.711   1.678  0.00  0.00    -0.366 N 
ATOM     32  C   UNL     1      -4.506  -9.915   2.253  0.00  0.00    +0.133 C 
ATOM     33  C   UNL     1      -5.682 -10.908   2.360  0.00  0.00    +0.124 C 
ATOM     34  N   UNL     1      -6.825 -10.143   1.837  0.00  0.00    -0.324 N 
ATOM     35  H   UNL     1      -7.735 -10.472   1.765  0.00  0.00    +0.148 HD
ATOM     36  H   UNL     1      -4.662  -7.883   1.476  0.00  0.00    +0.161 HD
ENDBRANCH  29  30
ENDBRANCH  28  29
ENDBRANCH  25  28
TORSDOF 3
