REMARK  Name = ZINC13988374
REMARK  10 active torsions:
REMARK  status: ('A' for Active; 'I' for Inactive)
REMARK    1  A    between atoms: C_1  and  C_2
REMARK    2  A    between atoms: C_2  and  C_3
REMARK    3  A    between atoms: C_2  and  C_4
REMARK    4  A    between atoms: C_2  and  C_5
REMARK    5  A    between atoms: N_7  and  C_8
REMARK    6  A    between atoms: C_8  and  N_10
REMARK    7  A    between atoms: N_10  and  N_11
REMARK    8  A    between atoms: C_12  and  C_14
REMARK    9  A    between atoms: C_14  and  O_15
REMARK   10  A    between atoms: O_15  and  C_16
REMARK                            x       y       z     vdW  Elec       q    Type
REMARK                         _______ _______ _______ _____ _____    ______ ____
ROOT
ATOM      1  N   UNL     1      -0.979  -5.007  -0.014  0.00  0.00    -0.232 N 
ATOM      2  C   UNL     1       0.099  -4.197  -0.020  0.00  0.00    +0.267 C 
ATOM      3  O   UNL     1       1.214  -4.672  -0.033  0.00  0.00    -0.271 OA
ATOM      4  H   UNL     1      -1.871  -4.627  -0.003  0.00  0.00    +0.173 HD
ENDROOT
BRANCH   1   5
ATOM      5  N   UNL     1      -0.809  -6.398  -0.022  0.00  0.00    -0.245 N 
ATOM      6  H   UNL     1       0.083  -6.778  -0.033  0.00  0.00    +0.172 HD
BRANCH   5   7
ATOM      7  C   UNL     1      -1.887  -7.208  -0.016  0.00  0.00    +0.153 C 
ATOM      8  S   UNL     1      -1.680  -8.907  -0.027  0.00  0.00    -0.017 S 
BRANCH   7  11
ATOM      9  C   UNL     1      -4.204  -7.490   0.005  0.00  0.00    +0.224 C 
ATOM     10  O   UNL     1      -4.058  -8.693  -0.002  0.00  0.00    -0.275 OA
ATOM     11  N   UNL     1      -3.127  -6.680  -0.001  0.00  0.00    -0.266 N 
ATOM     12  H   UNL     1      -3.244  -5.717   0.005  0.00  0.00    +0.157 HD
BRANCH   9  14
ATOM     13  C   UNL     1      -6.625  -8.027   0.026  0.00  0.00    +0.020 C 
ATOM     14  C   UNL     1      -5.590  -6.899   0.021  0.00  0.00    +0.039 C 
ATOM     15  C   UNL     1      -5.765  -6.042   1.277  0.00  0.00    +0.020 C 
ATOM     16  C   UNL     1      -5.789  -6.029  -1.221  0.00  0.00    +0.020 C 
ENDBRANCH   9  14
ENDBRANCH   7  11
ENDBRANCH   5   7
ENDBRANCH   1   5
BRANCH   2  17
ATOM     17  C   UNL     1      -0.083  -2.701  -0.011  0.00  0.00    +0.326 C 
BRANCH  17  18
ATOM     18  O   UNL     1       1.197  -2.066  -0.020  0.00  0.00    -0.482 OA
BRANCH  18  19
ATOM     19  C   UNL     1       1.211  -0.706  -0.013  0.00  0.00    +0.136 A 
ATOM     20  C   UNL     1       0.002  -0.004   0.002  0.00  0.00    +0.047 A 
ATOM     21  C   UNL     1      -0.016   1.356   0.009  0.00  0.00    +0.012 A 
ATOM     22  C   UNL     1       1.195   2.070   0.002  0.00  0.00    -0.016 A 
ATOM     23  C   UNL     1       1.211   3.475   0.010  0.00  0.00    +0.023 A 
ATOM     24  C   UNL     1       2.402   4.135   0.002  0.00  0.00    +0.018 A 
ATOM     25  C   UNL     1       3.610   3.437  -0.013  0.00  0.00    +0.016 A 
ATOM     26  C   UNL     1       3.632   2.076  -0.021  0.00  0.00    +0.011 A 
ATOM     27  C   UNL     1       2.422   1.361  -0.014  0.00  0.00    -0.000 A 
ATOM     28  C   UNL     1       2.406  -0.044  -0.021  0.00  0.00    +0.067 A 
ATOM     29 BR   UNL     1       4.030  -1.014  -0.043  0.00  0.00    -0.046 Br
ATOM     30 BR   UNL     1       2.420   6.026   0.013  0.00  0.00    -0.050 Br
ENDBRANCH  18  19
ENDBRANCH  17  18
ENDBRANCH   2  17
TORSDOF 7
