REMARK  Name = ZINC13078648
REMARK  10 active torsions:
REMARK  status: ('A' for Active; 'I' for Inactive)
REMARK    1  A    between atoms: C_1  and  C_2
REMARK    2  A    between atoms: C_5  and  C_30
REMARK    3  A    between atoms: N_6  and  C_7
REMARK    4  A    between atoms: C_10  and  C_13
REMARK    5  A    between atoms: N_15  and  N_16
REMARK    6  A    between atoms: N_16  and  S_17
REMARK    7  A    between atoms: S_17  and  C_20
REMARK    8  A    between atoms: C_22  and  C_28
REMARK    9  A    between atoms: C_24  and  C_27
REMARK   10  A    between atoms: C_25  and  C_26
REMARK                            x       y       z     vdW  Elec       q    Type
REMARK                         _______ _______ _______ _____ _____    ______ ____
ROOT
ATOM      1  C   UNL     1      -4.398  -3.342   0.215  0.00  0.00    +0.259 C 
ATOM      2  O   UNL     1      -4.591  -4.022  -0.774  0.00  0.00    -0.269 OA
ATOM      3  N   UNL     1      -5.265  -3.389   1.246  0.00  0.00    -0.228 N 
ATOM      4  H   UNL     1      -5.151  -2.794   2.003  0.00  0.00    +0.171 HD
ENDROOT
BRANCH   1   8
ATOM      5  C   UNL     1      -0.988  -0.818   0.423  0.00  0.00    +0.047 A 
ATOM      6  C   UNL     1      -1.935  -0.791   1.442  0.00  0.00    +0.027 A 
ATOM      7  C   UNL     1      -3.044  -1.604   1.375  0.00  0.00    +0.015 A 
ATOM      8  C   UNL     1      -3.212  -2.465   0.288  0.00  0.00    +0.038 A 
ATOM      9  C   UNL     1      -2.257  -2.493  -0.731  0.00  0.00    +0.015 A 
ATOM     10  C   UNL     1      -1.153  -1.673  -0.661  0.00  0.00    +0.027 A 
BRANCH   5  16
ATOM     11  C   UNL     1      -1.107   2.244   0.311  0.00  0.00    +0.064 C 
ATOM     12  C   UNL     1       0.119   1.379   0.448  0.00  0.00    +0.021 A 
ATOM     13  C   UNL     1       1.390   1.817   0.541  0.00  0.00    +0.023 A 
ATOM     14  C   UNL     1       2.222   0.684   0.647  0.00  0.00    +0.023 A 
ATOM     15  C   UNL     1       1.429  -0.406   0.614  0.00  0.00    +0.021 A 
ATOM     16  N   UNL     1       0.134   0.013   0.492  0.00  0.00    -0.318 N 
ATOM     17  C   UNL     1       1.891  -1.838   0.698  0.00  0.00    +0.064 C 
ENDBRANCH   5  16
ENDBRANCH   1   8
BRANCH   3  18
ATOM     18  N   UNL     1      -6.331  -4.298   1.223  0.00  0.00    -0.108 NA
ATOM     19  H   UNL     1      -6.955  -4.296   0.480  0.00  0.00    +0.172 HD
BRANCH  18  20
ATOM     20  S   UNL     1      -6.527  -5.377   2.465  0.00  0.00    +0.074 S 
ATOM     21  O   UNL     1      -6.557  -4.615   3.664  0.00  0.00    -0.152 OA
ATOM     22  O   UNL     1      -7.587  -6.244   2.086  0.00  0.00    -0.152 OA
BRANCH  20  23
ATOM     23  C   UNL     1      -5.068  -6.364   2.531  0.00  0.00    +0.111 A 
ATOM     24  C   UNL     1      -4.265  -6.329   3.653  0.00  0.00    +0.044 A 
ATOM     25  C   UNL     1      -3.110  -7.112   3.704  0.00  0.00    +0.065 A 
ATOM     26  C   UNL     1      -2.776  -7.925   2.619  0.00  0.00    +0.018 A 
ATOM     27  C   UNL     1      -3.588  -7.949   1.504  0.00  0.00    -0.045 A 
ATOM     28  C   UNL     1      -4.735  -7.175   1.462  0.00  0.00    -0.021 A 
ATOM     29  C   UNL     1      -5.620  -7.212   0.243  0.00  0.00    +0.046 C 
ATOM     30  C   UNL     1      -3.230  -8.826   0.332  0.00  0.00    +0.044 C 
BRANCH  25  31
ATOM     31  C   UNL     1      -2.245  -7.080   4.901  0.00  0.00    +0.387 C 
ATOM     32  O   UNL     1      -2.538  -6.372   5.843  0.00  0.00    -0.241 OA
ATOM     33  O   UNL     1      -1.131  -7.836   4.947  0.00  0.00    -0.241 OA
ENDBRANCH  25  31
ENDBRANCH  20  23
ENDBRANCH  18  20
ENDBRANCH   3  18
TORSDOF 6
