REMARK  Name = ZINC15946935
REMARK  9 active torsions:
REMARK  status: ('A' for Active; 'I' for Inactive)
REMARK    1  A    between atoms: C_1  and  C_2
REMARK    2  A    between atoms: C_2  and  C_4
REMARK    3  A    between atoms: C_2  and  N_57
REMARK    4  A    between atoms: C_10  and  C_11
REMARK    5  A    between atoms: C_10  and  N_57
REMARK    6  A    between atoms: C_11  and  C_12
REMARK    7  A    between atoms: N_14  and  C_15
REMARK    8  A    between atoms: C_16  and  C_23
REMARK    9  A    between atoms: N_25  and  C_26
REMARK                            x       y       z     vdW  Elec       q    Type
REMARK                         _______ _______ _______ _____ _____    ______ ____
ROOT
ATOM      1  C   UNL     1       0.229   0.933   4.850  0.00  0.00    +0.084 A 
ATOM      2  C   UNL     1      -0.085   1.150   6.180  0.00  0.00    +0.069 A 
ATOM      3  C   UNL     1       0.781   0.542   7.189  0.00  0.00    -0.023 A 
ATOM      4  C   UNL     1       1.815  -0.168   6.701  0.00  0.00    -0.004 A 
ATOM      5  S   UNL     1       1.653  -0.047   4.936  0.00  0.00    -0.077 S 
ATOM      6  C   UNL     1       2.661  -0.759   7.796  0.00  0.00    +0.043 C 
ATOM      7  C   UNL     1       1.772  -0.685   9.057  0.00  0.00    +0.010 C 
ATOM      8  C   UNL     1       0.841   0.496   8.716  0.00  0.00    +0.037 C 
ENDROOT
BRANCH   1  11
ATOM      9  C   UNL     1       0.029   1.082   2.495  0.00  0.00    +0.216 C 
ATOM     10  O   UNL     1       1.024   0.397   2.377  0.00  0.00    -0.276 OA
ATOM     11  N   UNL     1      -0.432   1.394   3.722  0.00  0.00    -0.279 N 
ATOM     12  H   UNL     1      -1.228   1.941   3.816  0.00  0.00    +0.155 HD
BRANCH   9  13
ATOM     13  C   UNL     1      -0.690   1.583   1.269  0.00  0.00    +0.077 C 
BRANCH  13  14
ATOM     14  C   UNL     1       0.036   1.089   0.015  0.00  0.00    -0.073 C 
BRANCH  14  15
ATOM     15  N   UNL     1      -0.674   1.584  -1.180  0.00  0.00    +0.384 N 
ATOM     16  H   UNL     1      -1.638   1.229  -1.172  0.00  0.00    -0.085 HD
ATOM     17  H   UNL     1      -0.687   2.610  -1.166  0.00  0.00    -0.085 HD
BRANCH  15  19
ATOM     18  C   UNL     1      -0.492  -0.279  -2.768  0.00  0.00    -0.009 C 
ATOM     19  C   UNL     1       0.004   1.122  -2.406  0.00  0.00    -0.044 C 
BRANCH  19  20
ATOM     20  C   UNL     1      -0.310   2.073  -3.532  0.00  0.00    -0.062 A 
ATOM     21  C   UNL     1      -1.585   2.591  -3.665  0.00  0.00    +0.002 A 
ATOM     22  C   UNL     1      -1.871   3.466  -4.696  0.00  0.00    +0.000 A 
ATOM     23  C   UNL     1      -0.886   3.816  -5.599  0.00  0.00    +0.000 A 
ATOM     24  C   UNL     1       0.388   3.295  -5.470  0.00  0.00    +0.000 A 
ATOM     25  C   UNL     1       0.676   2.423  -4.436  0.00  0.00    +0.002 A 
ENDBRANCH  19  20
ENDBRANCH  15  19
ENDBRANCH  14  15
ENDBRANCH  13  14
ENDBRANCH   9  13
ENDBRANCH   1  11
BRANCH   2  26
ATOM     26  C   UNL     1      -1.248   1.957   6.564  0.00  0.00    +0.251 C 
ATOM     27  O   UNL     1      -2.331   1.426   6.724  0.00  0.00    -0.270 OA
ATOM     28  N   UNL     1      -1.116   3.287   6.742  0.00  0.00    -0.281 N 
ATOM     29  H   UNL     1      -0.241   3.700   6.681  0.00  0.00    +0.155 HD
BRANCH  28  30
ATOM     30  C   UNL     1      -2.243   4.071   7.013  0.00  0.00    +0.034 A 
ATOM     31  C   UNL     1      -2.327   5.364   6.514  0.00  0.00    +0.024 A 
ATOM     32  C   UNL     1      -3.442   6.134   6.779  0.00  0.00    +0.017 A 
ATOM     33  C   UNL     1      -4.471   5.622   7.551  0.00  0.00    +0.018 A 
ATOM     34  C   UNL     1      -4.387   4.335   8.053  0.00  0.00    +0.017 A 
ATOM     35  C   UNL     1      -3.276   3.559   7.787  0.00  0.00    +0.024 A 
ATOM     36 BR   UNL     1      -5.993   6.682   7.918  0.00  0.00    -0.050 Br
ENDBRANCH  28  30
ENDBRANCH   2  26
TORSDOF 8
