REMARK  Name = ZINC36721865
REMARK  7 active torsions:
REMARK  status: ('A' for Active; 'I' for Inactive)
REMARK    1  A    between atoms: C_1  and  C_2
REMARK    2  A    between atoms: C_2  and  C_3
REMARK    3  A    between atoms: C_2  and  C_4
REMARK    4  A    between atoms: C_2  and  C_5
REMARK    5  A    between atoms: N_7  and  C_8
REMARK    6  A    between atoms: C_11  and  S_15
REMARK    7  A    between atoms: S_15  and  N_18
REMARK                            x       y       z     vdW  Elec       q    Type
REMARK                         _______ _______ _______ _____ _____    ______ ____
ROOT
ATOM      1  C   UNL     1       1.407  -2.265  -2.659  0.00  0.00    +0.048 A 
ATOM      2  C   UNL     1       2.424  -1.542  -3.269  0.00  0.00    +0.026 A 
ATOM      3  C   UNL     1       2.975  -1.992  -4.453  0.00  0.00    +0.030 A 
ATOM      4  C   UNL     1       2.517  -3.162  -5.031  0.00  0.00    +0.106 A 
ATOM      5  C   UNL     1       1.505  -3.885  -4.426  0.00  0.00    +0.045 A 
ATOM      6  C   UNL     1       0.953  -3.443  -3.239  0.00  0.00    +0.041 A 
ATOM      7 BR   UNL     1      -0.426  -4.436  -2.409  0.00  0.00    -0.048 Br
ENDROOT
BRANCH   1  10
ATOM      8  C   UNL     1       0.713  -0.490  -1.235  0.00  0.00    +0.223 C 
ATOM      9  O   UNL     1       1.152   0.308  -2.036  0.00  0.00    -0.275 OA
ATOM     10  N   UNL     1       0.847  -1.812  -1.460  0.00  0.00    -0.284 N 
ATOM     11  H   UNL     1       0.554  -2.450  -0.790  0.00  0.00    +0.155 HD
BRANCH   8  13
ATOM     12  C   UNL     1       0.001   1.527   0.020  0.00  0.00    +0.020 C 
ATOM     13  C   UNL     1       0.018  -0.003   0.010  0.00  0.00    +0.039 C 
ATOM     14  C   UNL     1       0.765  -0.514   1.244  0.00  0.00    +0.020 C 
ATOM     15  C   UNL     1      -1.419  -0.529   0.030  0.00  0.00    +0.020 C 
ENDBRANCH   8  13
ENDBRANCH   1  10
BRANCH   4  16
ATOM     16  S   UNL     1       3.224  -3.732  -6.541  0.00  0.00    +0.056 S 
ATOM     17  O   UNL     1       2.248  -4.559  -7.159  0.00  0.00    -0.153 OA
ATOM     18  O   UNL     1       3.776  -2.592  -7.186  0.00  0.00    -0.153 OA
BRANCH  16  19
ATOM     19  N   UNL     1       4.497  -4.715  -6.146  0.00  0.00    -0.204 NA
ATOM     20  H   UNL     1       4.744  -5.447  -6.732  0.00  0.00    +0.144 HD
ATOM     21  H   UNL     1       4.995  -4.558  -5.328  0.00  0.00    +0.144 HD
ENDBRANCH  16  19
ENDBRANCH   4  16
TORSDOF 4
