REMARK  Name = ZINC09611938
REMARK  15 active torsions:
REMARK  status: ('A' for Active; 'I' for Inactive)
REMARK    1  A    between atoms: C_1  and  C_2
REMARK    2  A    between atoms: C_2  and  C_4
REMARK    3  A    between atoms: C_2  and  N_24
REMARK    4  A    between atoms: C_4  and  C_6
REMARK    5  A    between atoms: C_4  and  N_72
REMARK    6  A    between atoms: N_13  and  C_16
REMARK    7  A    between atoms: C_19  and  O_22
REMARK    8  A    between atoms: O_22  and  C_23
REMARK    9  A    between atoms: C_25  and  C_27
REMARK   10  A    between atoms: C_29  and  O_37
REMARK   11  A    between atoms: C_30  and  O_35
REMARK   12  A    between atoms: C_31  and  O_33
REMARK   13  A    between atoms: O_33  and  C_34
REMARK   14  A    between atoms: O_35  and  C_36
REMARK   15  A    between atoms: O_37  and  C_38
REMARK                            x       y       z     vdW  Elec       q    Type
REMARK                         _______ _______ _______ _____ _____    ______ ____
ROOT
ATOM      1  C   UNL     1      -0.018   1.503   0.010  0.00  0.00    -0.010 C 
ENDROOT
BRANCH   1   7
ATOM      2  C   UNL     1      -0.691   3.457  -1.253  0.00  0.00    -0.059 C 
ATOM      3  C   UNL     1      -1.371   3.918  -2.544  0.00  0.00    +0.086 C 
ATOM      4  N   UNL     1      -2.756   3.429  -2.567  0.00  0.00    -0.333 N 
ATOM      5  C   UNL     1      -2.794   1.961  -2.494  0.00  0.00    +0.086 C 
ATOM      6  C   UNL     1      -2.114   1.500  -1.203  0.00  0.00    -0.059 C 
ATOM      7  N   UNL     1      -0.716   1.980  -1.203  0.00  0.00    +0.388 N 
ATOM      8  H   UNL     1      -0.236   1.610  -2.031  0.00  0.00    -0.081 HD
BRANCH   4   9
ATOM      9  C   UNL     1      -3.433   3.892  -3.701  0.00  0.00    +0.030 A 
ATOM     10  C   UNL     1      -4.021   2.989  -4.577  0.00  0.00    +0.027 A 
ATOM     11  C   UNL     1      -4.693   3.448  -5.692  0.00  0.00    +0.047 A 
ATOM     12  C   UNL     1      -4.772   4.809  -5.944  0.00  0.00    +0.120 A 
ATOM     13  C   UNL     1      -4.181   5.712  -5.072  0.00  0.00    +0.047 A 
ATOM     14  C   UNL     1      -3.512   5.255  -3.953  0.00  0.00    +0.027 A 
BRANCH  12  15
ATOM     15  O   UNL     1      -5.429   5.260  -7.046  0.00  0.00    -0.495 OA
ATOM     16  C   UNL     1      -6.014   4.275  -7.900  0.00  0.00    +0.277 C 
ENDBRANCH  12  15
ENDBRANCH   4   9
ENDBRANCH   1   7
BRANCH   1  17
ATOM     17  C   UNL     1       0.002  -0.004   0.002  0.00  0.00    -0.022 A 
ATOM     18  C   UNL     1      -0.154  -0.866   1.037  0.00  0.00    +0.009 A 
ATOM     19  C   UNL     1      -0.101  -2.225   0.791  0.00  0.00    +0.008 A 
ATOM     20  C   UNL     1       0.116  -2.656  -0.475  0.00  0.00    +0.045 A 
ATOM     21  S   UNL     1       0.246  -1.118  -1.372  0.00  0.00    -0.103 S 
ENDBRANCH   1  17
BRANCH   1  23
ATOM     22  C   UNL     1       2.094   1.644  -1.317  0.00  0.00    +0.026 C 
ATOM     23  C   UNL     1       1.417   2.032  -0.001  0.00  0.00    +0.061 C 
BRANCH  23  24
ATOM     24  N   UNL     1       2.160   1.452   1.121  0.00  0.00    -0.310 N 
ATOM     25  C   UNL     1       3.228   2.099   1.629  0.00  0.00    +0.244 C 
ATOM     26  O   UNL     1       3.574   3.165   1.156  0.00  0.00    -0.270 OA
ATOM     27  H   UNL     1       1.884   0.602   1.498  0.00  0.00    +0.149 HD
BRANCH  25  28
ATOM     28  C   UNL     1       3.977   1.514   2.758  0.00  0.00    +0.044 A 
ATOM     29  C   UNL     1       3.576   0.293   3.306  0.00  0.00    +0.062 A 
ATOM     30  C   UNL     1       4.282  -0.255   4.361  0.00  0.00    +0.166 A 
ATOM     31  C   UNL     1       5.384   0.415   4.885  0.00  0.00    +0.204 A 
ATOM     32  C   UNL     1       5.782   1.635   4.344  0.00  0.00    +0.166 A 
ATOM     33  C   UNL     1       5.083   2.184   3.286  0.00  0.00    +0.062 A 
BRANCH  32  34
ATOM     34  O   UNL     1       6.860   2.286   4.858  0.00  0.00    -0.491 OA
ATOM     35  C   UNL     1       7.212   3.533   4.255  0.00  0.00    +0.277 C 
ENDBRANCH  32  34
BRANCH  31  36
ATOM     36  O   UNL     1       6.073  -0.123   5.925  0.00  0.00    -0.488 OA
ATOM     37  C   UNL     1       5.642   0.232   7.241  0.00  0.00    +0.277 C 
ENDBRANCH  31  36
BRANCH  30  38
ATOM     38  O   UNL     1       3.896  -1.446   4.891  0.00  0.00    -0.491 OA
ATOM     39  C   UNL     1       2.756  -2.078   4.304  0.00  0.00    +0.277 C 
ENDBRANCH  30  38
ENDBRANCH  25  28
ENDBRANCH  23  24
ENDBRANCH   1  23
TORSDOF 10
