REMARK  Name = ZINC55084881
REMARK  3 active torsions:
REMARK  status: ('A' for Active; 'I' for Inactive)
REMARK    1  A    between atoms: C_4  and  N_7
REMARK    2  A    between atoms: N_10  and  C_11
REMARK    3  A    between atoms: N_18  and  C_20
REMARK                            x       y       z     vdW  Elec       q    Type
REMARK                         _______ _______ _______ _____ _____    ______ ____
ROOT
ATOM      1  C   UNL     1       4.848  -4.102   0.247  0.00  0.00    +0.077 C 
ATOM      2  C   UNL     1       4.720  -4.535   1.710  0.00  0.00    -0.007 C 
ATOM      3  C   UNL     1       4.620  -6.057   1.769  0.00  0.00    +0.003 C 
ATOM      4  C   UNL     1       5.829  -6.732   1.134  0.00  0.00    +0.001 C 
ATOM      5  C   UNL     1       6.157  -6.174  -0.243  0.00  0.00    +0.003 C 
ATOM      6  C   UNL     1       6.177  -4.651  -0.277  0.00  0.00    -0.007 C 
ATOM      7  C   UNL     1       7.327  -4.085   0.545  0.00  0.00    -0.073 C 
ATOM      8  N   UNL     1       7.198  -4.359   1.973  0.00  0.00    +0.382 N 
ATOM      9  C   UNL     1       5.893  -4.013   2.523  0.00  0.00    -0.073 C 
ATOM     10  H   UNL     1       7.418  -5.324   2.164  0.00  0.00    -0.081 HD
ENDROOT
BRANCH   1  14
ATOM     11  N   UNL     1       3.622  -0.651  -0.036  0.00  0.00    -0.269 N 
ATOM     12  C   UNL     1       3.645  -1.995   0.058  0.00  0.00    +0.304 C 
ATOM     13  O   UNL     1       2.603  -2.622   0.065  0.00  0.00    -0.253 OA
ATOM     14  N   UNL     1       4.823  -2.644   0.144  0.00  0.00    -0.296 N 
ATOM     15  H   UNL     1       4.452  -0.155  -0.110  0.00  0.00    +0.156 HD
ATOM     16  H   UNL     1       5.654  -2.144   0.139  0.00  0.00    +0.151 HD
BRANCH  11  20
ATOM     17  C   UNL     1      -0.018   1.377  -0.014  0.00  0.00    +0.000 A 
ATOM     18  C   UNL     1       1.092   1.944   0.587  0.00  0.00    +0.002 A 
ATOM     19  C   UNL     1       2.300   1.274   0.581  0.00  0.00    +0.023 A 
ATOM     20  C   UNL     1       2.399   0.030  -0.029  0.00  0.00    +0.035 A 
ATOM     21  C   UNL     1       1.283  -0.536  -0.631  0.00  0.00    +0.023 A 
ATOM     22  C   UNL     1       0.078   0.139  -0.622  0.00  0.00    +0.002 A 
ENDBRANCH  11  20
ENDBRANCH   1  14
BRANCH   8  23
ATOM     23  C   UNL     1       8.211  -3.563   2.678  0.00  0.00    -0.069 C 
ATOM     24  C   UNL     1       9.366  -4.317   3.341  0.00  0.00    -0.017 C 
ATOM     25  C   UNL     1       8.270  -3.685   4.202  0.00  0.00    -0.017 C 
ENDBRANCH   8  23
TORSDOF 3
