REMARK  Name = ZINC40372723
REMARK  7 active torsions:
REMARK  status: ('A' for Active; 'I' for Inactive)
REMARK    1  A    between atoms: C_1  and  C_2
REMARK    2  A    between atoms: C_2  and  C_3
REMARK    3  A    between atoms: C_6  and  C_9
REMARK    4  A    between atoms: C_6  and  N_13
REMARK    5  A    between atoms: N_10  and  O_11
REMARK    6  A    between atoms: C_14  and  C_16
REMARK    7  A    between atoms: C_20  and  C_21
REMARK                            x       y       z     vdW  Elec       q    Type
REMARK                         _______ _______ _______ _____ _____    ______ ____
ROOT
ATOM      1  C   UNL     1       0.729  -0.537  -1.191  0.00  0.00    -0.011 C 
ATOM      2  C   UNL     1      -0.043  -0.105  -2.440  0.00  0.00    +0.006 C 
ATOM      3  C   UNL     1      -1.447  -0.712  -2.406  0.00  0.00    +0.034 C 
ATOM      4  C   UNL     1      -1.343  -2.238  -2.373  0.00  0.00    +0.093 C 
ATOM      5  C   UNL     1      -0.572  -2.669  -1.124  0.00  0.00    +0.034 C 
ATOM      6  C   UNL     1       0.833  -2.063  -1.158  0.00  0.00    +0.006 C 
ENDROOT
BRANCH   4   7
ATOM      7  C   UNL     1      -2.727  -2.835  -2.340  0.00  0.00    +0.155 C 
ATOM      8  N   UNL     1      -3.760  -2.065  -2.244  0.00  0.00    -0.075 NA
ATOM      9  N   UNL     1      -2.889  -4.200  -2.413  0.00  0.00    -0.342 N 
ATOM     10  H   UNL     1      -2.113  -4.782  -2.412  0.00  0.00    +0.144 HD
ATOM     11  H   UNL     1      -3.780  -4.581  -2.465  0.00  0.00    +0.144 HD
BRANCH   8  12
ATOM     12  O   UNL     1      -5.060  -2.626  -2.213  0.00  0.00    -0.408 OA
ATOM     13  H   UNL     1      -5.769  -1.973  -2.139  0.00  0.00    +0.328 HD
ENDBRANCH   8  12
ENDBRANCH   4   7
BRANCH   4  14
ATOM     14  N   UNL     1      -0.638  -2.705  -3.569  0.00  0.00    -0.299 N 
ATOM     15  C   UNL     1      -1.093  -2.371  -4.793  0.00  0.00    +0.248 C 
ATOM     16  O   UNL     1      -2.142  -1.768  -4.908  0.00  0.00    -0.270 OA
ATOM     17  H   UNL     1       0.156  -3.256  -3.480  0.00  0.00    +0.150 HD
BRANCH  15  18
ATOM     18  C   UNL     1      -0.317  -2.737  -5.992  0.00  0.00    +0.077 A 
ATOM     19  C   UNL     1       0.959  -3.466  -6.037  0.00  0.00    +0.054 A 
ATOM     20  C   UNL     1       1.281  -3.567  -7.335  0.00  0.00    +0.196 A 
ATOM     21  O   UNL     1       0.329  -2.972  -8.072  0.00  0.00    -0.467 OA
ATOM     22  C   UNL     1      -0.636  -2.475  -7.292  0.00  0.00    +0.114 A 
ATOM     23  C   UNL     1      -1.867  -1.746  -7.768  0.00  0.00    +0.087 C 
ENDBRANCH  15  18
ENDBRANCH   4  14
BRANCH   1  25
ATOM     24  C   UNL     1      -0.003   1.481   0.087  0.00  0.00    +0.004 C 
ATOM     25  C   UNL     1      -0.008  -0.049   0.058  0.00  0.00    -0.000 C 
ENDBRANCH   1  25
TORSDOF 5
