REMARK  Name = ZINC01052587
REMARK  5 active torsions:
REMARK  status: ('A' for Active; 'I' for Inactive)
REMARK    1  A    between atoms: C_6  and  C_7
REMARK    2  A    between atoms: N_8  and  N_9
REMARK    3  A    between atoms: C_10  and  C_12
REMARK    4  A    between atoms: C_12  and  N_13
REMARK    5  A    between atoms: N_13  and  C_14
REMARK                            x       y       z     vdW  Elec       q    Type
REMARK                         _______ _______ _______ _____ _____    ______ ____
ROOT
ATOM      1  N   UNL     1      -3.933   0.382  -1.599  0.00  0.00    -0.206 N 
ATOM      2  C   UNL     1      -4.927   0.363  -0.690  0.00  0.00    +0.249 C 
ATOM      3  O   UNL     1      -4.714   0.722   0.449  0.00  0.00    -0.272 OA
ATOM      4  H   UNL     1      -4.103   0.094  -2.510  0.00  0.00    +0.177 HD
ENDROOT
BRANCH   1   6
ATOM      5  C   UNL     1      -1.696   0.834  -2.106  0.00  0.00    +0.138 C 
ATOM      6  N   UNL     1      -2.653   0.816  -1.230  0.00  0.00    -0.188 NA
BRANCH   5  12
ATOM      7  C   UNL     1      -0.102   1.705  -0.406  0.00  0.00    +0.013 A 
ATOM      8  C   UNL     1       1.159   2.132  -0.045  0.00  0.00    +0.050 A 
ATOM      9  C   UNL     1       2.184   2.152  -0.979  0.00  0.00    +0.166 A 
ATOM     10  C   UNL     1       1.944   1.740  -2.290  0.00  0.00    +0.167 A 
ATOM     11  C   UNL     1       0.683   1.312  -2.659  0.00  0.00    +0.059 A 
ATOM     12  C   UNL     1      -0.349   1.291  -1.717  0.00  0.00    -0.002 A 
ATOM     13  O   UNL     1       3.103   1.854  -3.002  0.00  0.00    -0.453 OA
ATOM     14  C   UNL     1       3.948   2.723  -2.224  0.00  0.00    +0.466 C 
ATOM     15  O   UNL     1       3.494   2.523  -0.873  0.00  0.00    -0.453 OA
ENDBRANCH   5  12
ENDBRANCH   1   6
BRANCH   2  16
ATOM     16  C   UNL     1      -6.304  -0.104  -1.087  0.00  0.00    +0.199 C 
BRANCH  16  17
ATOM     17  N   UNL     1      -7.198  -0.030   0.071  0.00  0.00    -0.334 N 
ATOM     18  H   UNL     1      -6.882   0.353   0.904  0.00  0.00    +0.147 HD
BRANCH  17  19
ATOM     19  C   UNL     1      -8.507  -0.512  -0.025  0.00  0.00    +0.056 A 
ATOM     20  C   UNL     1      -8.785  -1.838   0.284  0.00  0.00    +0.041 A 
ATOM     21  C   UNL     1     -10.080  -2.311   0.189  0.00  0.00    +0.032 A 
ATOM     22  C   UNL     1     -11.099  -1.466  -0.214  0.00  0.00    +0.020 A 
ATOM     23  C   UNL     1     -10.825  -0.146  -0.523  0.00  0.00    +0.032 A 
ATOM     24  C   UNL     1      -9.533   0.335  -0.424  0.00  0.00    +0.041 A 
ATOM     25 BR   UNL     1      -9.162   2.142  -0.839  0.00  0.00    -0.048 Br
ATOM     26 BR   UNL     1     -12.869  -2.118  -0.343  0.00  0.00    -0.050 Br
ATOM     27 BR   UNL     1      -7.393  -2.994   0.833  0.00  0.00    -0.048 Br
ENDBRANCH  17  19
ENDBRANCH  16  17
ENDBRANCH   2  16
TORSDOF 5
