REMARK  Name = ZINC18270741
REMARK  7 active torsions:
REMARK  status: ('A' for Active; 'I' for Inactive)
REMARK    1  A    between atoms: C_1  and  C_2
REMARK    2  A    between atoms: C_3  and  C_28
REMARK    3  A    between atoms: C_4  and  N_27
REMARK    4  A    between atoms: C_9  and  C_10
REMARK    5  A    between atoms: C_13  and  C_15
REMARK    6  A    between atoms: C_22  and  C_26
REMARK    7  A    between atoms: C_23  and  C_24
REMARK                            x       y       z     vdW  Elec       q    Type
REMARK                         _______ _______ _______ _____ _____    ______ ____
ROOT
ATOM      1  C   UNL     1       2.836   1.260   0.068  0.00  0.00    +0.046 C 
ATOM      2  C   UNL     1       4.157   0.547  -0.061  0.00  0.00    -0.020 A 
ATOM      3  C   UNL     1       5.360   1.261  -0.078  0.00  0.00    +0.095 A 
ATOM      4  C   UNL     1       6.574   0.556  -0.199  0.00  0.00    +0.135 A 
ATOM      5  N   UNL     1       6.591  -0.761  -0.287  0.00  0.00    -0.230 NA
ATOM      6  C   UNL     1       5.468  -1.477  -0.280  0.00  0.00    +0.092 A 
ATOM      7  C   UNL     1       4.214  -0.838  -0.164  0.00  0.00    +0.013 A 
ATOM      8  C   UNL     1       3.185  -1.895  -0.183  0.00  0.00    -0.008 C 
ATOM      9  C   UNL     1       1.809  -1.702  -0.090  0.00  0.00    +0.055 C 
ATOM     10  C   UNL     1       3.841  -3.132  -0.316  0.00  0.00    -0.023 C 
ATOM     11  C   UNL     1       5.208  -2.921  -0.378  0.00  0.00    +0.081 C 
ATOM     12  C   UNL     1       3.161  -4.476  -0.383  0.00  0.00    +0.046 C 
ENDROOT
BRANCH   9  13
ATOM     13  C   UNL     1       1.298  -0.681   0.722  0.00  0.00    +0.129 A 
ATOM     14  C   UNL     1       0.190   0.109   0.440  0.00  0.00    +0.050 A 
ATOM     15  C   UNL     1       0.038   0.987   1.509  0.00  0.00    +0.050 A 
ATOM     16  C   UNL     1       1.050   0.710   2.407  0.00  0.00    +0.136 A 
ATOM     17  O   UNL     1       1.796  -0.295   1.917  0.00  0.00    -0.455 OA
BRANCH  16  18
ATOM     18  C   UNL     1       1.275   1.402   3.690  0.00  0.00    +0.017 A 
ATOM     19  C   UNL     1       0.367   2.367   4.135  0.00  0.00    +0.014 A 
ATOM     20  C   UNL     1       0.580   3.006   5.338  0.00  0.00    +0.039 A 
ATOM     21  C   UNL     1       1.697   2.701   6.100  0.00  0.00    +0.123 A 
ATOM     22  C   UNL     1       2.604   1.748   5.662  0.00  0.00    +0.039 A 
ATOM     23  C   UNL     1       2.399   1.098   4.463  0.00  0.00    +0.014 A 
ATOM     24  F   UNL     1       1.903   3.334   7.276  0.00  0.00    -0.205 F 
ENDBRANCH  16  18
ENDBRANCH   9  13
BRANCH   4  25
ATOM     25  N   UNL     1       7.769   1.256  -0.217  0.00  0.00    -0.342 N 
ATOM     26  H   UNL     1       7.766   2.223  -0.147  0.00  0.00    +0.144 HD
ATOM     27  H   UNL     1       8.610   0.778  -0.300  0.00  0.00    +0.144 HD
ENDBRANCH   4  25
BRANCH  11  28
ATOM     28  C   UNL     1       6.204  -3.941  -0.514  0.00  0.00    +0.102 C 
ATOM     29  N   UNL     1       6.994  -4.750  -0.623  0.00  0.00    -0.191 NA
ENDBRANCH  11  28
BRANCH   3  30
ATOM     30  C   UNL     1       5.357   2.689   0.025  0.00  0.00    +0.103 C 
ATOM     31  N   UNL     1       5.355   3.822   0.107  0.00  0.00    -0.191 NA
ENDBRANCH   3  30
TORSDOF 5
