REMARK  Name = ZINC48585751
REMARK  4 active torsions:
REMARK  status: ('A' for Active; 'I' for Inactive)
REMARK    1  A    between atoms: C_4  and  N_16
REMARK    2  A    between atoms: C_5  and  C_7
REMARK    3  A    between atoms: C_17  and  C_19
REMARK    4  A    between atoms: N_21  and  C_22
REMARK                            x       y       z     vdW  Elec       q    Type
REMARK                         _______ _______ _______ _____ _____    ______ ____
ROOT
ATOM      1  C   UNL     1      -0.018   1.372  -0.022  0.00  0.00    +0.001 A 
ATOM      2  C   UNL     1       1.087   1.946  -0.627  0.00  0.00    +0.002 A 
ATOM      3  C   UNL     1       2.301   1.288  -0.633  0.00  0.00    +0.024 A 
ATOM      4  C   UNL     1       2.419   0.042  -0.031  0.00  0.00    +0.044 A 
ATOM      5  C   UNL     1       1.301  -0.542   0.582  0.00  0.00    +0.028 A 
ATOM      6  C   UNL     1       0.081   0.135   0.580  0.00  0.00    +0.012 A 
ENDROOT
BRANCH   5   7
ATOM      7  C   UNL     1       1.415  -1.867   1.225  0.00  0.00    +0.111 A 
ATOM      8  N   UNL     1       2.470  -2.645   1.331  0.00  0.00    -0.239 NA
ATOM      9  C   UNL     1       2.428  -3.841   1.950  0.00  0.00    +0.079 A 
ATOM     10  C   UNL     1       3.482  -4.769   2.132  0.00  0.00    +0.029 A 
ATOM     11  C   UNL     1       3.272  -5.942   2.786  0.00  0.00    +0.002 A 
ATOM     12  C   UNL     1       2.027  -6.278   3.299  0.00  0.00    +0.001 A 
ATOM     13  C   UNL     1       0.970  -5.400   3.143  0.00  0.00    +0.017 A 
ATOM     14  C   UNL     1       1.172  -4.212   2.485  0.00  0.00    +0.040 A 
ATOM     15  S   UNL     1       0.155  -2.817   2.064  0.00  0.00    -0.067 S 
ENDBRANCH   5   7
BRANCH   4  16
ATOM     16  N   UNL     1       3.643  -0.624  -0.036  0.00  0.00    -0.277 N 
ATOM     17  C   UNL     1       4.790   0.074  -0.146  0.00  0.00    +0.303 C 
ATOM     18  O   UNL     1       4.765   1.288  -0.139  0.00  0.00    -0.265 OA
ATOM     19  H   UNL     1       3.669  -1.591   0.039  0.00  0.00    +0.155 HD
BRANCH  17  20
ATOM     20  C   UNL     1       6.093  -0.645  -0.275  0.00  0.00    +0.300 C 
ATOM     21  O   UNL     1       6.118  -1.858  -0.282  0.00  0.00    -0.265 OA
ATOM     22  N   UNL     1       7.240   0.053  -0.384  0.00  0.00    -0.305 N 
ATOM     23  H   UNL     1       7.220   1.023  -0.379  0.00  0.00    +0.149 HD
BRANCH  22  24
ATOM     24  C   UNL     1       8.518  -0.652  -0.511  0.00  0.00    +0.073 C 
ATOM     25  C   UNL     1       9.042  -1.012   0.880  0.00  0.00    +0.022 C 
ATOM     26  C   UNL     1      10.376  -1.749   0.748  0.00  0.00    +0.002 C 
ATOM     27  C   UNL     1      11.389  -0.847   0.040  0.00  0.00    +0.000 C 
ATOM     28  C   UNL     1      10.865  -0.486  -1.352  0.00  0.00    +0.002 C 
ATOM     29  C   UNL     1       9.531   0.250  -1.219  0.00  0.00    +0.022 C 
ENDBRANCH  22  24
ENDBRANCH  17  20
ENDBRANCH   4  16
TORSDOF 4
