REMARK  Name = ZINC12485521
REMARK  12 active torsions:
REMARK  status: ('A' for Active; 'I' for Inactive)
REMARK    1  A    between atoms: C_1  and  C_2
REMARK    2  A    between atoms: C_5  and  C_8
REMARK    3  A    between atoms: C_8  and  N_9
REMARK    4  A    between atoms: N_9  and  C_10
REMARK    5  A    between atoms: C_10  and  C_12
REMARK    6  A    between atoms: C_10  and  C_19
REMARK    7  A    between atoms: C_15  and  C_18
REMARK    8  A    between atoms: N_21  and  C_22
REMARK    9  A    between atoms: C_22  and  C_23
REMARK   10  A    between atoms: C_28  and  C_30
REMARK   11  A    between atoms: C_30  and  N_31
REMARK   12  A    between atoms: C_32  and  C_34
REMARK                            x       y       z     vdW  Elec       q    Type
REMARK                         _______ _______ _______ _____ _____    ______ ____
ROOT
ATOM      1  N   UNL     1       1.241  -0.498   0.079  0.00  0.00    -0.280 N 
ATOM      2  C   UNL     1       1.047  -1.169  -1.074  0.00  0.00    +0.234 C 
ATOM      3  O   UNL     1       0.157  -0.836  -1.827  0.00  0.00    -0.274 OA
ENDROOT
BRANCH   1   4
ATOM      4  C   UNL     1       2.196  -1.003   1.069  0.00  0.00    +0.144 C 
BRANCH   4   9
ATOM      5  C   UNL     1       7.266   1.690   0.405  0.00  0.00    +0.044 C 
ATOM      6  C   UNL     1       5.944   0.987   0.579  0.00  0.00    -0.050 A 
ATOM      7  C   UNL     1       4.933   1.587   1.307  0.00  0.00    +0.003 A 
ATOM      8  C   UNL     1       3.720   0.942   1.466  0.00  0.00    +0.005 A 
ATOM      9  C   UNL     1       3.518  -0.300   0.895  0.00  0.00    -0.030 A 
ATOM     10  C   UNL     1       4.530  -0.902   0.171  0.00  0.00    +0.005 A 
ATOM     11  C   UNL     1       5.741  -0.256   0.009  0.00  0.00    +0.003 A 
ENDBRANCH   4   9
ENDBRANCH   1   4
BRANCH   1  12
ATOM     12  C   UNL     1       0.497   0.737   0.342  0.00  0.00    +0.193 C 
BRANCH  12  13
ATOM     13  C   UNL     1      -0.966   0.416   0.509  0.00  0.00    -0.018 A 
ATOM     14  C   UNL     1      -1.353  -0.653   1.295  0.00  0.00    +0.006 A 
ATOM     15  C   UNL     1      -2.695  -0.945   1.453  0.00  0.00    +0.004 A 
ATOM     16  C   UNL     1      -3.650  -0.174   0.815  0.00  0.00    -0.050 A 
ATOM     17  C   UNL     1      -3.262   0.892   0.024  0.00  0.00    +0.004 A 
ATOM     18  C   UNL     1      -1.920   1.186  -0.129  0.00  0.00    +0.006 A 
ATOM     19  C   UNL     1      -5.112  -0.496   0.981  0.00  0.00    +0.044 C 
ENDBRANCH  12  13
BRANCH  12  20
ATOM     20  C   UNL     1       1.018   1.378   1.602  0.00  0.00    +0.238 C 
ATOM     21  O   UNL     1       1.358   0.687   2.538  0.00  0.00    -0.273 OA
ATOM     22  N   UNL     1       1.111   2.720   1.686  0.00  0.00    -0.306 N 
ATOM     23  H   UNL     1       0.843   3.273   0.935  0.00  0.00    +0.149 HD
BRANCH  22  24
ATOM     24  C   UNL     1       1.617   3.344   2.911  0.00  0.00    +0.178 C 
BRANCH  24  25
ATOM     25  C   UNL     1       1.620   4.842   2.748  0.00  0.00    +0.122 A 
ATOM     26  C   UNL     1       0.606   5.670   3.059  0.00  0.00    +0.046 A 
ATOM     27  C   UNL     1       1.037   6.980   2.747  0.00  0.00    +0.041 A 
ATOM     28  C   UNL     1       2.288   6.875   2.264  0.00  0.00    +0.195 A 
ATOM     29  O   UNL     1       2.638   5.578   2.272  0.00  0.00    -0.466 OA
ENDBRANCH  24  25
ENDBRANCH  22  24
ENDBRANCH  12  20
ENDBRANCH   1  12
BRANCH   2  30
ATOM     30  C   UNL     1       1.937  -2.332  -1.427  0.00  0.00    +0.200 C 
BRANCH  30  31
ATOM     31  N   UNL     1       1.445  -2.969  -2.651  0.00  0.00    -0.302 N 
ATOM     32  C   UNL     1       2.089  -4.039  -3.160  0.00  0.00    +0.251 C 
ATOM     33  O   UNL     1       3.078  -4.476  -2.602  0.00  0.00    -0.270 OA
ATOM     34  H   UNL     1       0.657  -2.621  -3.096  0.00  0.00    +0.150 HD
BRANCH  32  35
ATOM     35  C   UNL     1       1.597  -4.676  -4.384  0.00  0.00    +0.074 A 
ATOM     36  C   UNL     1       2.108  -5.769  -5.067  0.00  0.00    +0.021 A 
ATOM     37  C   UNL     1       1.442  -6.166  -6.200  0.00  0.00    +0.008 A 
ATOM     38  C   UNL     1       0.341  -5.477  -6.598  0.00  0.00    +0.046 A 
ATOM     39  S   UNL     1       0.188  -4.244  -5.389  0.00  0.00    -0.092 S 
ENDBRANCH  32  35
ENDBRANCH  30  31
ENDBRANCH   2  30
TORSDOF 10
