REMARK  Name = ZINC13029503
REMARK  10 active torsions:
REMARK  status: ('A' for Active; 'I' for Inactive)
REMARK    1  A    between atoms: C_1  and  C_2
REMARK    2  A    between atoms: C_7  and  C_8
REMARK    3  A    between atoms: C_8  and  C_10
REMARK    4  A    between atoms: C_8  and  N_18
REMARK    5  A    between atoms: N_12  and  C_13
REMARK    6  A    between atoms: N_18  and  C_19
REMARK    7  A    between atoms: C_22  and  N_25
REMARK    8  A    between atoms: C_26  and  C_28
REMARK    9  A    between atoms: C_29  and  C_31
REMARK   10  A    between atoms: C_31  and  N_32
REMARK                            x       y       z     vdW  Elec       q    Type
REMARK                         _______ _______ _______ _____ _____    ______ ____
ROOT
ATOM      1  N   UNL     1      -5.057   2.741  -2.065  0.00  0.00    -0.254 N 
ATOM      2  C   UNL     1      -3.901   3.188  -1.535  0.00  0.00    +0.242 C 
ATOM      3  O   UNL     1      -2.935   3.365  -2.248  0.00  0.00    -0.273 OA
ENDROOT
BRANCH   1   4
ATOM      4  C   UNL     1      -5.119   2.398  -3.422  0.00  0.00    +0.038 A 
ATOM      5  C   UNL     1      -4.661   1.158  -3.847  0.00  0.00    +0.025 A 
ATOM      6  C   UNL     1      -4.726   0.819  -5.183  0.00  0.00    +0.025 A 
ATOM      7  C   UNL     1      -5.241   1.721  -6.104  0.00  0.00    +0.033 A 
ATOM      8  C   UNL     1      -5.695   2.963  -5.680  0.00  0.00    +0.025 A 
ATOM      9  C   UNL     1      -5.633   3.301  -4.343  0.00  0.00    +0.025 A 
BRANCH   7  10
ATOM     10  N   UNL     1      -5.304   1.378  -7.461  0.00  0.00    -0.286 N 
ATOM     11  C   UNL     1      -5.502   0.095  -7.823  0.00  0.00    +0.214 C 
ATOM     12  O   UNL     1      -5.718  -0.747  -6.978  0.00  0.00    -0.276 OA
ATOM     13  C   UNL     1      -5.455  -0.293  -9.279  0.00  0.00    +0.109 C 
ATOM     14  H   UNL     1      -5.206   2.064  -8.140  0.00  0.00    +0.155 HD
ENDBRANCH   7  10
ENDBRANCH   1   4
BRANCH   1  15
ATOM     15  C   UNL     1      -6.248   2.613  -1.222  0.00  0.00    +0.197 C 
BRANCH  15  22
ATOM     16  C   UNL     1      -6.131   5.477  -1.581  0.00  0.00    +0.044 C 
ATOM     17  C   UNL     1      -7.344   4.710  -2.039  0.00  0.00    -0.045 A 
ATOM     18  C   UNL     1      -8.401   5.376  -2.631  0.00  0.00    +0.004 A 
ATOM     19  C   UNL     1      -9.513   4.671  -3.052  0.00  0.00    +0.000 A 
ATOM     20  C   UNL     1      -9.569   3.301  -2.881  0.00  0.00    +0.000 A 
ATOM     21  C   UNL     1      -8.511   2.634  -2.293  0.00  0.00    +0.006 A 
ATOM     22  C   UNL     1      -7.400   3.339  -1.867  0.00  0.00    -0.015 A 
ENDBRANCH  15  22
BRANCH  15  23
ATOM     23  C   UNL     1      -6.598   1.156  -1.064  0.00  0.00    +0.239 C 
ATOM     24  O   UNL     1      -6.186   0.343  -1.865  0.00  0.00    -0.273 OA
ATOM     25  N   UNL     1      -7.369   0.756  -0.034  0.00  0.00    -0.311 N 
ATOM     26  H   UNL     1      -7.758   1.413   0.564  0.00  0.00    +0.149 HD
BRANCH  25  27
ATOM     27  C   UNL     1      -7.618  -0.672   0.183  0.00  0.00    +0.073 C 
ATOM     28  C   UNL     1      -8.850  -1.122  -0.629  0.00  0.00    +0.022 C 
ATOM     29  C   UNL     1      -9.558  -2.147   0.292  0.00  0.00    +0.002 C 
ATOM     30  C   UNL     1      -9.371  -1.528   1.699  0.00  0.00    +0.002 C 
ATOM     31  C   UNL     1      -7.950  -0.929   1.664  0.00  0.00    +0.022 C 
ENDBRANCH  25  27
ENDBRANCH  15  23
ENDBRANCH   1  15
BRANCH   2  32
ATOM     32  C   UNL     1      -3.808   3.467  -0.057  0.00  0.00    +0.242 C 
BRANCH  32  33
ATOM     33  N   UNL     1      -2.418   3.766   0.297  0.00  0.00    -0.235 N 
ATOM     34  C   UNL     1      -1.456   2.865   0.686  0.00  0.00    +0.090 A 
ATOM     35  C   UNL     1      -1.440   1.486   0.864  0.00  0.00    +0.029 A 
ATOM     36  C   UNL     1      -0.292   0.867   1.274  0.00  0.00    +0.002 A 
ATOM     37  C   UNL     1       0.863   1.603   1.505  0.00  0.00    +0.002 A 
ATOM     38  C   UNL     1       0.875   2.956   1.333  0.00  0.00    +0.032 A 
ATOM     39  C   UNL     1      -0.290   3.615   0.918  0.00  0.00    +0.113 A 
ATOM     40  N   UNL     1      -0.579   4.908   0.668  0.00  0.00    -0.129 NA
ATOM     41  N   UNL     1      -1.807   5.029   0.305  0.00  0.00    -0.064 NA
ENDBRANCH  32  33
ENDBRANCH   2  32
TORSDOF 8
