REMARK  Name = ZINC50695224
REMARK  4 active torsions:
REMARK  status: ('A' for Active; 'I' for Inactive)
REMARK    1  A    between atoms: C_3  and  N_12
REMARK    2  A    between atoms: C_4  and  C_8
REMARK    3  A    between atoms: C_13  and  C_15
REMARK    4  A    between atoms: C_17  and  N_21
REMARK                            x       y       z     vdW  Elec       q    Type
REMARK                         _______ _______ _______ _____ _____    ______ ____
ROOT
ATOM      1  N   UNL     1       3.563   2.105  -0.021  0.00  0.00    -0.207 NA
ATOM      2  C   UNL     1       3.550   3.409  -0.113  0.00  0.00    +0.294 C 
ATOM      3  O   UNL     1       2.373   4.077  -0.099  0.00  0.00    -0.264 OA
ENDROOT
BRANCH   1   6
ATOM      4  C   UNL     1       0.240   0.942  -0.994  0.00  0.00    +0.022 A 
ATOM      5  C   UNL     1       1.424   1.649  -1.002  0.00  0.00    +0.030 A 
ATOM      6  C   UNL     1       2.385   1.407  -0.018  0.00  0.00    +0.080 A 
ATOM      7  C   UNL     1       2.140   0.449   0.969  0.00  0.00    +0.082 A 
ATOM      8  C   UNL     1       0.952  -0.251   0.966  0.00  0.00    +0.034 A 
ATOM      9  C   UNL     1       0.003  -0.006  -0.013  0.00  0.00    +0.042 A 
ATOM     10 CL   UNL     1      -1.490  -0.891  -0.009  0.00  0.00    -0.084 Cl
BRANCH   7  11
ATOM     11  C   UNL     1       3.172   0.181   2.034  0.00  0.00    +0.419 C 
ATOM     12  F   UNL     1       2.701  -0.811   2.900  0.00  0.00    -0.166 F 
ATOM     13  F   UNL     1       4.361  -0.250   1.434  0.00  0.00    -0.166 F 
ATOM     14  F   UNL     1       3.413   1.355   2.756  0.00  0.00    -0.166 F 
ENDBRANCH   7  11
ENDBRANCH   1   6
BRANCH   2  15
ATOM     15  C   UNL     1       4.821   4.155  -0.233  0.00  0.00    +0.108 A 
ATOM     16  C   UNL     1       6.028   3.462  -0.253  0.00  0.00    +0.054 A 
ATOM     17  C   UNL     1       7.216   4.180  -0.367  0.00  0.00    +0.028 A 
ATOM     18  C   UNL     1       7.144   5.571  -0.457  0.00  0.00    +0.040 A 
ATOM     19  C   UNL     1       5.908   6.186  -0.430  0.00  0.00    +0.085 A 
ATOM     20  N   UNL     1       4.801   5.481  -0.326  0.00  0.00    -0.357 N 
ATOM     21  H   UNL     1       3.947   5.942  -0.314  0.00  0.00    +0.165 HD
BRANCH  17  22
ATOM     22  N   UNL     1       8.445   3.527  -0.391  0.00  0.00    -0.358 N 
ATOM     23  H   UNL     1       8.481   2.559  -0.328  0.00  0.00    +0.142 HD
ATOM     24  H   UNL     1       9.265   4.039  -0.471  0.00  0.00    +0.142 HD
ENDBRANCH  17  22
ENDBRANCH   2  15
TORSDOF 4
