REMARK  Name = ZINC02116562
REMARK  11 active torsions:
REMARK  status: ('A' for Active; 'I' for Inactive)
REMARK    1  A    between atoms: C_1  and  C_2
REMARK    2  A    between atoms: C_6  and  C_18
REMARK    3  A    between atoms: C_7  and  C_11
REMARK    4  A    between atoms: C_11  and  C_12
REMARK    5  A    between atoms: C_19  and  O_21
REMARK    6  A    between atoms: O_21  and  C_22
REMARK    7  A    between atoms: C_22  and  C_24
REMARK    8  A    between atoms: C_22  and  C_25
REMARK    9  A    between atoms: N_27  and  C_28
REMARK   10  A    between atoms: C_28  and  C_29
REMARK   11  A    between atoms: C_32  and  C_35
REMARK                            x       y       z     vdW  Elec       q    Type
REMARK                         _______ _______ _______ _____ _____    ______ ____
ROOT
ATOM      1  C   UNL     1       0.809   1.442   0.036  0.00  0.00    +0.044 C 
ATOM      2  C   UNL     1       0.582  -0.048   0.005  0.00  0.00    -0.043 A 
ATOM      3  C   UNL     1       0.709  -0.732  -1.187  0.00  0.00    +0.050 A 
ATOM      4  C   UNL     1       0.502  -2.104  -1.227  0.00  0.00    +0.143 A 
ATOM      5  C   UNL     1       0.163  -2.788  -0.046  0.00  0.00    +0.062 A 
ATOM      6  C   UNL     1      -0.053  -4.234  -0.099  0.00  0.00    -0.026 A 
ATOM      7  C   UNL     1       0.084  -4.860  -1.297  0.00  0.00    +0.045 A 
ATOM      8  C   UNL     1       0.425  -4.112  -2.443  0.00  0.00    +0.341 A 
ATOM      9  O   UNL     1       0.545  -4.685  -3.511  0.00  0.00    -0.245 OA
ATOM     10  O   UNL     1       0.622  -2.786  -2.387  0.00  0.00    -0.422 OA
ATOM     11  C   UNL     1      -0.417  -5.009   1.141  0.00  0.00    +0.045 C 
ATOM     12  C   UNL     1       0.037  -2.081   1.160  0.00  0.00    +0.133 A 
ATOM     13  C   UNL     1       0.255  -0.714   1.174  0.00  0.00    +0.050 A 
ENDROOT
BRANCH   7  14
ATOM     14  C   UNL     1      -0.129  -6.348  -1.402  0.00  0.00    +0.077 C 
BRANCH  14  15
ATOM     15  C   UNL     1      -1.553  -6.625  -1.807  0.00  0.00    -0.043 A 
ATOM     16  C   UNL     1      -2.529  -6.781  -0.840  0.00  0.00    +0.004 A 
ATOM     17  C   UNL     1      -3.836  -7.036  -1.211  0.00  0.00    +0.000 A 
ATOM     18  C   UNL     1      -4.167  -7.133  -2.550  0.00  0.00    +0.000 A 
ATOM     19  C   UNL     1      -3.192  -6.976  -3.517  0.00  0.00    +0.000 A 
ATOM     20  C   UNL     1      -1.886  -6.717  -3.145  0.00  0.00    +0.004 A 
ENDBRANCH  14  15
ENDBRANCH   7  14
BRANCH  12  21
ATOM     21  O   UNL     1      -0.290  -2.733   2.304  0.00  0.00    -0.479 OA
BRANCH  21  22
ATOM     22  C   UNL     1      -0.514  -1.932   3.466  0.00  0.00    +0.255 C 
ATOM     23  C   UNL     1       0.823  -1.638   4.149  0.00  0.00    +0.062 C 
BRANCH  22  24
ATOM     24  C   UNL     1      -1.414  -2.673   4.421  0.00  0.00    +0.254 C 
ATOM     25  O   UNL     1      -1.749  -3.813   4.178  0.00  0.00    -0.272 OA
ATOM     26  N   UNL     1      -1.846  -2.069   5.546  0.00  0.00    -0.312 N 
ATOM     27  H   UNL     1      -1.578  -1.157   5.741  0.00  0.00    +0.149 HD
BRANCH  26  28
ATOM     28  C   UNL     1      -2.721  -2.789   6.475  0.00  0.00    +0.107 C 
BRANCH  28  29
ATOM     29  C   UNL     1      -3.062  -1.885   7.660  0.00  0.00    +0.006 C 
ATOM     30  C   UNL     1      -1.790  -1.583   8.454  0.00  0.00    +0.006 C 
ATOM     31  C   UNL     1      -1.187  -2.892   8.969  0.00  0.00    +0.015 C 
ATOM     32  C   UNL     1      -2.198  -3.597   9.874  0.00  0.00    +0.102 C 
ATOM     33  C   UNL     1      -3.471  -3.899   9.080  0.00  0.00    +0.015 C 
ATOM     34  C   UNL     1      -4.073  -2.590   8.566  0.00  0.00    +0.006 C 
BRANCH  32  35
ATOM     35  C   UNL     1      -1.605  -4.886  10.381  0.00  0.00    +0.359 C 
ATOM     36  O   UNL     1      -1.791  -5.231  11.536  0.00  0.00    -0.246 OA
ATOM     37  O   UNL     1      -0.938  -5.585   9.637  0.00  0.00    -0.246 OA
ENDBRANCH  32  35
ENDBRANCH  28  29
ENDBRANCH  26  28
ENDBRANCH  22  24
ENDBRANCH  21  22
ENDBRANCH  12  21
TORSDOF 8
