REMARK  Name = ZINC40096525
REMARK  8 active torsions:
REMARK  status: ('A' for Active; 'I' for Inactive)
REMARK    1  A    between atoms: C_4  and  O_7
REMARK    2  A    between atoms: O_7  and  C_8
REMARK    3  A    between atoms: C_12  and  C_14
REMARK    4  A    between atoms: C_16  and  C_25
REMARK    5  A    between atoms: N_20  and  C_21
REMARK    6  A    between atoms: C_21  and  C_22
REMARK    7  A    between atoms: C_22  and  O_23
REMARK    8  A    between atoms: C_25  and  C_27
REMARK                            x       y       z     vdW  Elec       q    Type
REMARK                         _______ _______ _______ _____ _____    ______ ____
ROOT
ATOM      1  C   UNL     1       5.953  -4.820   0.371  0.00  0.00    +0.145 C 
ATOM      2  C   UNL     1       6.173  -5.363   1.764  0.00  0.00    +0.076 C 
ATOM      3  C   UNL     1       6.253  -6.709   1.650  0.00  0.00    +0.249 C 
ATOM      4  C   UNL     1       6.095  -7.087   0.229  0.00  0.00    +0.288 C 
ATOM      5  O   UNL     1       6.120  -8.224  -0.197  0.00  0.00    -0.266 OA
ATOM      6  N   UNL     1       5.920  -5.983  -0.523  0.00  0.00    -0.281 N 
ATOM      7  O   UNL     1       6.447  -7.572   2.673  0.00  0.00    -0.282 OA
ENDROOT
BRANCH   1  12
ATOM      8  C   UNL     1       3.428  -2.017   0.159  0.00  0.00    +0.129 A 
ATOM      9  C   UNL     1       2.233  -2.722   0.183  0.00  0.00    +0.046 A 
ATOM     10  C   UNL     1       2.247  -4.100   0.268  0.00  0.00    +0.004 A 
ATOM     11  C   UNL     1       3.451  -4.778   0.328  0.00  0.00    +0.006 A 
ATOM     12  C   UNL     1       4.643  -4.078   0.304  0.00  0.00    -0.019 A 
ATOM     13  C   UNL     1       4.635  -2.700   0.214  0.00  0.00    +0.052 A 
BRANCH   8  14
ATOM     14  O   UNL     1       3.417  -0.661   0.076  0.00  0.00    -0.456 OA
BRANCH  14  18
ATOM     15  C   UNL     1      -0.225   1.264   0.310  0.00  0.00    +0.000 A 
ATOM     16  C   UNL     1       0.280   0.606   1.416  0.00  0.00    +0.004 A 
ATOM     17  C   UNL     1       1.499  -0.039   1.340  0.00  0.00    +0.046 A 
ATOM     18  C   UNL     1       2.217  -0.027   0.153  0.00  0.00    +0.128 A 
ATOM     19  C   UNL     1       1.708   0.634  -0.956  0.00  0.00    +0.046 A 
ATOM     20  C   UNL     1       0.488   1.278  -0.875  0.00  0.00    +0.004 A 
ENDBRANCH  14  18
ENDBRANCH   8  14
ENDBRANCH   1  12
BRANCH   2  21
ATOM     21  C   UNL     1       6.279  -4.582   3.000  0.00  0.00    +0.195 C 
ATOM     22  O   UNL     1       5.420  -4.680   3.857  0.00  0.00    -0.287 OA
BRANCH  21  23
ATOM     23  C   UNL     1       7.427  -3.678   3.206  0.00  0.00    +0.026 A 
ATOM     24  C   UNL     1       8.366  -3.494   2.187  0.00  0.00    +0.015 A 
ATOM     25  C   UNL     1       9.437  -2.651   2.382  0.00  0.00    +0.050 A 
ATOM     26  C   UNL     1       9.589  -1.980   3.591  0.00  0.00    +0.162 A 
ATOM     27  C   UNL     1       8.655  -2.156   4.610  0.00  0.00    +0.163 A 
ATOM     28  C   UNL     1       7.576  -2.999   4.418  0.00  0.00    +0.061 A 
ATOM     29  O   UNL     1       8.786  -1.500   5.795  0.00  0.00    -0.485 OA
ATOM     30  C   UNL     1      10.074  -0.948   6.086  0.00  0.00    +0.270 C 
ATOM     31  C   UNL     1      10.575  -0.212   4.837  0.00  0.00    +0.270 C 
ATOM     32  O   UNL     1      10.656  -1.155   3.763  0.00  0.00    -0.485 OA
ENDBRANCH  21  23
ENDBRANCH   2  21
BRANCH   6  33
ATOM     33  C   UNL     1       5.730  -5.950  -1.975  0.00  0.00    +0.137 C 
BRANCH  33  34
ATOM     34  C   UNL     1       7.091  -5.836  -2.665  0.00  0.00    +0.175 C 
BRANCH  34  35
ATOM     35  O   UNL     1       7.854  -7.018  -2.411  0.00  0.00    -0.393 OA
ATOM     36  H   UNL     1       8.730  -7.016  -2.819  0.00  0.00    +0.209 HD
ENDBRANCH  34  35
ENDBRANCH  33  34
ENDBRANCH   6  33
TORSDOF 8
