REMARK  Name = ZINC21799089
REMARK  2 active torsions:
REMARK  status: ('A' for Active; 'I' for Inactive)
REMARK    1  A    between atoms: C_6  and  N_7
REMARK    2  A    between atoms: C_16  and  N_20
REMARK                            x       y       z     vdW  Elec       q    Type
REMARK                         _______ _______ _______ _____ _____    ______ ____
ROOT
ATOM      1  N   UNL     1       1.160   3.487   0.009  0.00  0.00    -0.269 N 
ATOM      2  C   UNL     1       2.315   4.174   0.104  0.00  0.00    +0.310 C 
ATOM      3  O   UNL     1       3.377   3.583   0.091  0.00  0.00    -0.252 OA
ATOM      4  N   UNL     1       2.294   5.517   0.212  0.00  0.00    -0.248 N 
ATOM      5  C   UNL     1       3.482   6.224   0.309  0.00  0.00    +0.167 A 
ATOM      6  N   UNL     1       4.712   5.769   0.313  0.00  0.00    -0.225 NA
ATOM      7  C   UNL     1       5.788   6.582   0.414  0.00  0.00    +0.080 A 
ATOM      8  C   UNL     1       7.155   6.221   0.430  0.00  0.00    +0.031 A 
ATOM      9  C   UNL     1       8.126   7.167   0.538  0.00  0.00    +0.025 A 
ATOM     10  C   UNL     1       7.817   8.522   0.638  0.00  0.00    +0.026 A 
ATOM     11  C   UNL     1       6.485   8.915   0.626  0.00  0.00    +0.040 A 
ATOM     12  C   UNL     1       5.503   7.962   0.517  0.00  0.00    +0.043 A 
ATOM     13  S   UNL     1       3.728   7.988   0.454  0.00  0.00    -0.052 S 
ATOM     14  H   UNL     1       0.204   4.026  -0.068  0.00  0.00    +0.156 HD
ATOM     15  H   UNL     1       1.333   6.053   0.224  0.00  0.00    +0.158 HD
ENDROOT
BRANCH   1  21
ATOM     16  C   UNL     1       2.133   1.402   0.746  0.00  0.00    +0.026 A 
ATOM     17  C   UNL     1       2.147   0.021   0.744  0.00  0.00    +0.040 A 
ATOM     18  C   UNL     1       1.208  -0.681   0.008  0.00  0.00    +0.124 A 
ATOM     19  C   UNL     1       0.253  -0.000  -0.728  0.00  0.00    +0.040 A 
ATOM     20  C   UNL     1       0.235   1.381  -0.729  0.00  0.00    +0.026 A 
ATOM     21  C   UNL     1       1.176   2.087   0.009  0.00  0.00    +0.035 A 
ATOM     22  F   UNL     1       1.224  -2.032   0.007  0.00  0.00    -0.205 F 
ENDBRANCH   1  21
BRANCH  10  23
ATOM     23  N   UNL     1       8.836   9.475   0.748  0.00  0.00    -0.358 N 
ATOM     24  H   UNL     1       8.584  10.542   0.826  0.00  0.00    +0.142 HD
ATOM     25  H   UNL     1       9.889   9.156   0.755  0.00  0.00    +0.142 HD
ENDBRANCH  10  23
TORSDOF 2
