REMARK  Name = ZINC13387839
REMARK  5 active torsions:
REMARK  status: ('A' for Active; 'I' for Inactive)
REMARK    1  A    between atoms: C_4  and  C_7
REMARK    2  A    between atoms: C_10  and  C_29
REMARK    3  A    between atoms: C_15  and  C_17
REMARK    4  A    between atoms: N_19  and  C_20
REMARK    5  A    between atoms: C_20  and  C_21
REMARK                            x       y       z     vdW  Elec       q    Type
REMARK                         _______ _______ _______ _____ _____    ______ ____
ROOT
ATOM      1  C   UNL     1       3.711  -0.707  -0.038  0.00  0.00    +0.104 C 
ATOM      2  C   UNL     1       4.048  -1.192   1.377  0.00  0.00    +0.063 C 
ATOM      3  C   UNL     1       2.911  -2.069   1.913  0.00  0.00    +0.215 C 
ATOM      4  N   UNL     1       2.581  -3.085   0.909  0.00  0.00    -0.237 N 
ATOM      5  C   UNL     1       2.918  -2.983  -0.411  0.00  0.00    +0.133 A 
ATOM      6  C   UNL     1       2.467  -4.084  -1.046  0.00  0.00    +0.089 A 
ATOM      7  C   UNL     1       1.826  -4.898  -0.084  0.00  0.00    +0.163 A 
ATOM      8  N   UNL     1       1.900  -4.288   1.086  0.00  0.00    -0.163 NA
ATOM      9 BR   UNL     1       2.658  -4.468  -2.887  0.00  0.00    -0.044 Br
ATOM     10  N   UNL     1       3.612  -1.879  -0.929  0.00  0.00    -0.321 N 
ATOM     11  H   UNL     1       4.004  -1.885  -1.816  0.00  0.00    +0.148 HD
ENDROOT
BRANCH   1  15
ATOM     12  C   UNL     1      -0.017   1.378   0.010  0.00  0.00    +0.000 A 
ATOM     13  C   UNL     1       1.171   2.086   0.002  0.00  0.00    +0.000 A 
ATOM     14  C   UNL     1       2.377   1.411  -0.013  0.00  0.00    +0.005 A 
ATOM     15  C   UNL     1       2.396   0.029  -0.020  0.00  0.00    -0.027 A 
ATOM     16  C   UNL     1       1.208  -0.679  -0.012  0.00  0.00    +0.005 A 
ATOM     17  C   UNL     1       0.002  -0.004   0.002  0.00  0.00    +0.000 A 
ENDBRANCH   1  15
BRANCH   7  18
ATOM     18  C   UNL     1       1.185  -6.203  -0.343  0.00  0.00    +0.265 C 
ATOM     19  O   UNL     1       1.179  -6.665  -1.468  0.00  0.00    -0.268 OA
ATOM     20  N   UNL     1       0.606  -6.881   0.667  0.00  0.00    -0.308 N 
ATOM     21  H   UNL     1       0.611  -6.513   1.565  0.00  0.00    +0.149 HD
BRANCH  20  22
ATOM     22  C   UNL     1      -0.030  -8.176   0.411  0.00  0.00    +0.136 C 
BRANCH  22  23
ATOM     23  C   UNL     1      -0.606  -8.729   1.716  0.00  0.00    +0.135 C 
ATOM     24  C   UNL     1      -1.171 -10.146   1.480  0.00  0.00    +0.035 C 
ATOM     25  C   UNL     1      -2.460 -10.135   2.346  0.00  0.00    +0.031 C 
ATOM     26  C   UNL     1      -2.905  -8.659   2.191  0.00  0.00    +0.160 C 
ATOM     27  O   UNL     1      -1.685  -7.899   2.162  0.00  0.00    -0.375 OA
ENDBRANCH  22  23
ENDBRANCH  20  22
ENDBRANCH   7  18
BRANCH   3  28
ATOM     28  C   UNL     1       3.357  -2.751   3.208  0.00  0.00    +0.412 C 
ATOM     29  F   UNL     1       3.682  -1.778   4.159  0.00  0.00    -0.168 F 
ATOM     30  F   UNL     1       2.317  -3.550   3.696  0.00  0.00    -0.168 F 
ATOM     31  F   UNL     1       4.478  -3.548   2.954  0.00  0.00    -0.168 F 
ENDBRANCH   3  28
TORSDOF 5
