REMARK  Name = ZINC10216061
REMARK  9 active torsions:
REMARK  status: ('A' for Active; 'I' for Inactive)
REMARK    1  A    between atoms: C_1  and  C_2
REMARK    2  A    between atoms: C_4  and  C_33
REMARK    3  A    between atoms: C_6  and  N_8
REMARK    4  A    between atoms: C_9  and  C_11
REMARK    5  A    between atoms: C_11  and  C_13
REMARK    6  A    between atoms: C_11  and  N_62
REMARK    7  A    between atoms: C_21  and  N_24
REMARK    8  A    between atoms: N_24  and  S_25
REMARK    9  A    between atoms: S_25  and  C_28
REMARK                            x       y       z     vdW  Elec       q    Type
REMARK                         _______ _______ _______ _____ _____    ______ ____
ROOT
ATOM      1  C   UNL     1      -1.004   3.600  -0.007  0.00  0.00    +0.050 C 
ENDROOT
BRANCH   1   7
ATOM      2  C   UNL     1      -2.984   3.785   1.373  0.00  0.00    -0.076 C 
ATOM      3  C   UNL     1      -4.306   4.539   1.540  0.00  0.00    +0.002 C 
ATOM      4  C   UNL     1      -4.014   6.012   1.837  0.00  0.00    +0.073 C 
ATOM      5  C   UNL     1      -3.171   6.597   0.701  0.00  0.00    +0.002 C 
ATOM      6  C   UNL     1      -1.882   5.784   0.558  0.00  0.00    -0.076 C 
ATOM      7  N   UNL     1      -2.231   4.381   0.248  0.00  0.00    +0.390 N 
ATOM      8  H   UNL     1      -2.819   4.363  -0.593  0.00  0.00    -0.080 HD
BRANCH   4   9
ATOM      9  N   UNL     1      -5.275   6.750   1.941  0.00  0.00    -0.187 NA
ATOM     10  H   UNL     1      -5.706   7.089   1.141  0.00  0.00    +0.148 HD
BRANCH   9  11
ATOM     11  S   UNL     1      -5.966   7.005   3.424  0.00  0.00    +0.065 S 
ATOM     12  O   UNL     1      -7.147   7.762   3.198  0.00  0.00    -0.153 OA
ATOM     13  O   UNL     1      -5.982   5.748   4.087  0.00  0.00    -0.153 OA
BRANCH  11  14
ATOM     14  C   UNL     1      -4.872   8.041   4.337  0.00  0.00    +0.142 A 
ATOM     15  C   UNL     1      -4.834   9.395   4.404  0.00  0.00    +0.036 A 
ATOM     16  C   UNL     1      -3.877  10.001   5.196  0.00  0.00    +0.010 A 
ATOM     17  C   UNL     1      -3.004   9.223   5.882  0.00  0.00    +0.047 A 
ATOM     18  S   UNL     1      -3.530   7.581   5.421  0.00  0.00    -0.077 S 
ENDBRANCH  11  14
ENDBRANCH   9  11
ENDBRANCH   4   9
ENDBRANCH   1   7
BRANCH   1  19
ATOM     19  C   UNL     1      -0.326   4.146  -1.237  0.00  0.00    -0.052 A 
ATOM     20  C   UNL     1      -1.070   4.429  -2.368  0.00  0.00    +0.002 A 
ATOM     21  C   UNL     1      -0.449   4.934  -3.495  0.00  0.00    +0.000 A 
ATOM     22  C   UNL     1       0.917   5.148  -3.495  0.00  0.00    +0.000 A 
ATOM     23  C   UNL     1       1.661   4.861  -2.365  0.00  0.00    +0.000 A 
ATOM     24  C   UNL     1       1.040   4.360  -1.237  0.00  0.00    +0.002 A 
ENDBRANCH   1  19
BRANCH   1  26
ATOM     25  N   UNL     1      -0.492   1.180   0.029  0.00  0.00    -0.287 N 
ATOM     26  C   UNL     1      -1.379   2.159  -0.238  0.00  0.00    +0.208 C 
ATOM     27  O   UNL     1      -2.479   1.879  -0.665  0.00  0.00    -0.277 OA
ATOM     28  H   UNL     1       0.364   1.398   0.431  0.00  0.00    +0.155 HD
BRANCH  25  34
ATOM     29  C   UNL     1       0.957  -3.256  -1.518  0.00  0.00    +0.044 C 
ATOM     30  C   UNL     1      -0.120  -2.321  -1.030  0.00  0.00    -0.048 A 
ATOM     31  C   UNL     1      -1.417  -2.778  -0.885  0.00  0.00    +0.006 A 
ATOM     32  C   UNL     1      -2.408  -1.923  -0.438  0.00  0.00    -0.048 A 
ATOM     33  C   UNL     1      -2.104  -0.611  -0.134  0.00  0.00    +0.026 A 
ATOM     34  C   UNL     1      -0.803  -0.149  -0.278  0.00  0.00    +0.034 A 
ATOM     35  C   UNL     1       0.189  -1.008  -0.734  0.00  0.00    +0.026 A 
ATOM     36  C   UNL     1      -3.820  -2.425  -0.281  0.00  0.00    +0.044 C 
ENDBRANCH  25  34
ENDBRANCH   1  26
TORSDOF 7
