REMARK  Name = ZINC40003429
REMARK  6 active torsions:
REMARK  status: ('A' for Active; 'I' for Inactive)
REMARK    1  A    between atoms: C_1  and  C_2
REMARK    2  A    between atoms: C_12  and  C_32
REMARK    3  A    between atoms: C_14  and  C_19
REMARK    4  A    between atoms: C_19  and  C_21
REMARK    5  A    between atoms: C_22  and  C_31
REMARK    6  A    between atoms: C_29  and  C_30
REMARK                            x       y       z     vdW  Elec       q    Type
REMARK                         _______ _______ _______ _____ _____    ______ ____
ROOT
ATOM      1  C   UNL     1       0.421   1.488   0.842  0.00  0.00    +0.044 C 
ATOM      2  C   UNL     1       0.420  -0.016   0.736  0.00  0.00    -0.049 A 
ATOM      3  C   UNL     1       0.684  -0.632  -0.479  0.00  0.00    +0.005 A 
ATOM      4  C   UNL     1       0.690  -1.997  -0.603  0.00  0.00    +0.029 A 
ATOM      5  C   UNL     1       0.426  -2.825   0.513  0.00  0.00    +0.080 A 
ATOM      6  C   UNL     1       0.162  -2.162   1.734  0.00  0.00    +0.041 A 
ATOM      7  C   UNL     1       0.164  -0.794   1.849  0.00  0.00    +0.020 A 
ATOM      8  S   UNL     1      -0.110  -3.518   2.850  0.00  0.00    -0.052 S 
ATOM      9  C   UNL     1       0.136  -4.835   1.667  0.00  0.00    +0.169 A 
ATOM     10  N   UNL     1       0.394  -4.174   0.562  0.00  0.00    -0.224 NA
ATOM     11  N   UNL     1       0.070  -6.202   1.865  0.00  0.00    -0.232 N 
ATOM     12  C   UNL     1       0.289  -7.235   0.845  0.00  0.00    +0.152 C 
ATOM     13  C   UNL     1       0.109  -8.562   1.545  0.00  0.00    +0.078 C 
ATOM     14  C   UNL     1      -0.184  -8.284   2.837  0.00  0.00    +0.250 C 
ATOM     15  C   UNL     1      -0.201  -6.822   3.028  0.00  0.00    +0.293 C 
ATOM     16  O   UNL     1      -0.428  -6.260   4.081  0.00  0.00    -0.266 OA
ATOM     17  O   UNL     1      -0.419  -9.204   3.803  0.00  0.00    -0.282 OA
ENDROOT
BRANCH  12  18
ATOM     18  C   UNL     1      -0.722  -7.091  -0.264  0.00  0.00    -0.022 A 
ATOM     19  C   UNL     1      -2.050  -6.855   0.039  0.00  0.00    +0.008 A 
ATOM     20  C   UNL     1      -2.977  -6.722  -0.977  0.00  0.00    +0.038 A 
ATOM     21  C   UNL     1      -2.576  -6.826  -2.298  0.00  0.00    +0.123 A 
ATOM     22  C   UNL     1      -1.246  -7.063  -2.600  0.00  0.00    +0.038 A 
ATOM     23  C   UNL     1      -0.319  -7.190  -1.583  0.00  0.00    +0.008 A 
ATOM     24  F   UNL     1      -3.482  -6.697  -3.292  0.00  0.00    -0.205 F 
ENDBRANCH  12  18
BRANCH  13  25
ATOM     25  C   UNL     1       0.228  -9.894   0.941  0.00  0.00    +0.213 C 
ATOM     26  O   UNL     1      -0.690 -10.347   0.278  0.00  0.00    -0.285 OA
BRANCH  25  27
ATOM     27  C   UNL     1       1.409 -10.654   1.129  0.00  0.00    +0.116 A 
ATOM     28  C   UNL     1       2.543 -10.270   1.833  0.00  0.00    +0.068 A 
ATOM     29  N   UNL     1       3.419 -11.258   1.773  0.00  0.00    -0.232 NA
ATOM     30  C   UNL     1       2.915 -12.269   1.066  0.00  0.00    +0.141 A 
ATOM     31  N   UNL     1       1.658 -11.929   0.652  0.00  0.00    -0.296 N 
ATOM     32  C   UNL     1       0.914 -12.792  -0.089  0.00  0.00    +0.093 A 
ATOM     33  C   UNL     1       1.403 -14.007  -0.429  0.00  0.00    +0.018 A 
ATOM     34  C   UNL     1       2.687 -14.388  -0.017  0.00  0.00    +0.008 A 
ATOM     35  C   UNL     1       3.443 -13.524   0.719  0.00  0.00    -0.008 A 
ATOM     36  C   UNL     1       4.826 -13.919   1.171  0.00  0.00    +0.047 C 
ATOM     37  C   UNL     1       2.740  -8.955   2.541  0.00  0.00    +0.068 C 
ENDBRANCH  25  27
ENDBRANCH  13  25
TORSDOF 3
