REMARK  Name = ZINC39963244
REMARK  7 active torsions:
REMARK  status: ('A' for Active; 'I' for Inactive)
REMARK    1  A    between atoms: C_1  and  C_2
REMARK    2  A    between atoms: C_2  and  C_3
REMARK    3  A    between atoms: C_3  and  C_4
REMARK    4  A    between atoms: C_6  and  C_18
REMARK    5  A    between atoms: C_8  and  C_16
REMARK    6  A    between atoms: C_9  and  N_15
REMARK    7  A    between atoms: C_23  and  O_24
REMARK                            x       y       z     vdW  Elec       q    Type
REMARK                         _______ _______ _______ _____ _____    ______ ____
ROOT
ATOM      1  C   UNL     1      -1.413  -2.041   0.005  0.00  0.00    +0.069 C 
ATOM      2  C   UNL     1      -1.491  -2.797   1.073  0.00  0.00    +0.030 C 
ATOM      3  C   UNL     1      -1.483  -2.509   2.549  0.00  0.00    +0.101 C 
ATOM      4  C   UNL     1      -0.593  -3.572   3.166  0.00  0.00    +0.098 C 
ATOM      5  C   UNL     1      -0.140  -4.621   2.448  0.00  0.00    +0.195 C 
ATOM      6  O   UNL     1      -0.367  -4.862   1.145  0.00  0.00    -0.448 OA
ATOM      7  C   UNL     1      -1.503  -4.232   0.545  0.00  0.00    +0.343 C 
ATOM      8  N   UNL     1      -1.327  -4.028  -0.896  0.00  0.00    -0.138 NA
ATOM      9  N   UNL     1      -1.316  -2.809  -1.110  0.00  0.00    -0.155 NA
ENDROOT
BRANCH   3  10
ATOM     10  C   UNL     1      -2.880  -2.608   3.107  0.00  0.00    +0.008 A 
ATOM     11  C   UNL     1      -3.577  -3.797   3.019  0.00  0.00    +0.023 A 
ATOM     12  C   UNL     1      -4.859  -3.889   3.530  0.00  0.00    +0.018 A 
ATOM     13  C   UNL     1      -5.446  -2.789   4.131  0.00  0.00    +0.019 A 
ATOM     14  C   UNL     1      -4.752  -1.598   4.222  0.00  0.00    +0.047 A 
ATOM     15  C   UNL     1      -3.464  -1.506   3.714  0.00  0.00    +0.121 A 
ATOM     16 BR   UNL     1      -5.811  -5.518   3.408  0.00  0.00    -0.050 Br
BRANCH  15  17
ATOM     17  O   UNL     1      -2.778  -0.337   3.806  0.00  0.00    -0.506 OA
ATOM     18  H   UNL     1      -2.909   0.257   3.054  0.00  0.00    +0.292 HD
ENDBRANCH  15  17
ENDBRANCH   3  10
BRANCH   5  19
ATOM     19  N   UNL     1       0.634  -5.537   3.117  0.00  0.00    -0.329 N 
ATOM     20  H   UNL     1       0.829  -5.411   4.059  0.00  0.00    +0.145 HD
ATOM     21  H   UNL     1       0.985  -6.309   2.648  0.00  0.00    +0.145 HD
ENDBRANCH   5  19
BRANCH   4  22
ATOM     22  C   UNL     1      -0.224  -3.459   4.545  0.00  0.00    +0.101 C 
ATOM     23  N   UNL     1       0.069  -3.369   5.639  0.00  0.00    -0.191 NA
ENDBRANCH   4  22
BRANCH   1  24
ATOM     24  C   UNL     1      -1.433  -0.534   0.013  0.00  0.00    +0.057 C 
BRANCH  24  26
ATOM     25  C   UNL     1      -0.019   1.526   0.010  0.00  0.00    +0.004 C 
ATOM     26  C   UNL     1       0.002  -0.004   0.002  0.00  0.00    +0.003 C 
ENDBRANCH  24  26
ENDBRANCH   1  24
TORSDOF 6
