REMARK  Name = ZINC16134262
REMARK  6 active torsions:
REMARK  status: ('A' for Active; 'I' for Inactive)
REMARK    1  A    between atoms: C_1  and  C_2
REMARK    2  A    between atoms: C_7  and  N_8
REMARK    3  A    between atoms: C_9  and  C_11
REMARK    4  A    between atoms: C_19  and  C_22
REMARK    5  A    between atoms: C_20  and  O_21
REMARK    6  A    between atoms: N_23  and  N_24
REMARK                            x       y       z     vdW  Elec       q    Type
REMARK                         _______ _______ _______ _____ _____    ______ ____
ROOT
ATOM      1  C   UNL     1      -0.164   0.036   4.855  0.00  0.00    +0.080 A 
ATOM      2  C   UNL     1      -0.187   1.421   4.845  0.00  0.00    +0.025 A 
ATOM      3  C   UNL     1      -0.289   2.141   6.043  0.00  0.00    -0.016 A 
ATOM      4  C   UNL     1      -0.314   3.548   6.046  0.00  0.00    +0.008 A 
ATOM      5  C   UNL     1      -0.414   4.218   7.226  0.00  0.00    +0.001 A 
ATOM      6  C   UNL     1      -0.493   3.531   8.436  0.00  0.00    +0.001 A 
ATOM      7  C   UNL     1      -0.472   2.169   8.471  0.00  0.00    +0.009 A 
ATOM      8  C   UNL     1      -0.371   1.446   7.276  0.00  0.00    -0.006 A 
ATOM      9  C   UNL     1      -0.346  -0.015   7.275  0.00  0.00    +0.044 A 
ATOM     10  C   UNL     1      -0.249  -0.686   6.059  0.00  0.00    +0.138 A 
ENDROOT
BRANCH   1  12
ATOM     11  N   UNL     1       0.026  -0.015   2.417  0.00  0.00    -0.281 N 
ATOM     12  C   UNL     1      -0.056  -0.695   3.578  0.00  0.00    +0.252 C 
ATOM     13  O   UNL     1      -0.040  -1.911   3.572  0.00  0.00    -0.270 OA
ATOM     14  H   UNL     1       0.079   0.953   2.424  0.00  0.00    +0.155 HD
BRANCH  11  21
ATOM     15  C   UNL     1      -1.266   1.183   0.182  0.00  0.00    +0.045 C 
ATOM     16  C   UNL     1      -0.585  -0.158   0.085  0.00  0.00    -0.029 A 
ATOM     17  C   UNL     1      -0.570  -0.840  -1.116  0.00  0.00    +0.005 A 
ATOM     18  C   UNL     1       0.054  -2.070  -1.206  0.00  0.00    +0.000 A 
ATOM     19  C   UNL     1       0.665  -2.622  -0.096  0.00  0.00    +0.002 A 
ATOM     20  C   UNL     1       0.654  -1.945   1.108  0.00  0.00    +0.023 A 
ATOM     21  C   UNL     1       0.033  -0.706   1.201  0.00  0.00    +0.037 A 
ENDBRANCH  11  21
ENDBRANCH   1  12
BRANCH  10  22
ATOM     22  O   UNL     1      -0.230  -2.042   6.035  0.00  0.00    -0.505 OA
ATOM     23  H   UNL     1       0.657  -2.424   6.096  0.00  0.00    +0.292 HD
ENDBRANCH  10  22
BRANCH   9  24
ATOM     24  C   UNL     1      -0.429  -0.765   8.537  0.00  0.00    +0.142 C 
ATOM     25  N   UNL     1      -0.406  -2.065   8.524  0.00  0.00    -0.188 NA
BRANCH  25  26
ATOM     26  N   UNL     1      -0.484  -2.779   9.726  0.00  0.00    -0.215 N 
ATOM     27  C   UNL     1      -0.460  -4.158   9.713  0.00  0.00    +0.179 A 
ATOM     28  N   UNL     1      -0.363  -4.970   8.684  0.00  0.00    -0.224 NA
ATOM     29  C   UNL     1      -0.350  -6.314   8.820  0.00  0.00    +0.080 A 
ATOM     30  C   UNL     1      -0.252  -7.293   7.804  0.00  0.00    +0.029 A 
ATOM     31  C   UNL     1      -0.255  -8.628   8.115  0.00  0.00    +0.002 A 
ATOM     32  C   UNL     1      -0.354  -9.066   9.428  0.00  0.00    +0.001 A 
ATOM     33  C   UNL     1      -0.451  -8.135  10.447  0.00  0.00    +0.017 A 
ATOM     34  C   UNL     1      -0.449  -6.797  10.145  0.00  0.00    +0.041 A 
ATOM     35  S   UNL     1      -0.544  -5.295  11.089  0.00  0.00    -0.051 S 
ATOM     36  H   UNL     1      -0.556  -2.304  10.569  0.00  0.00    +0.176 HD
ENDBRANCH  25  26
ENDBRANCH   9  24
TORSDOF 5
