REMARK  Name = ZINC49853174
REMARK  4 active torsions:
REMARK  status: ('A' for Active; 'I' for Inactive)
REMARK    1  A    between atoms: C_1  and  C_2
REMARK    2  A    between atoms: C_2  and  C_4
REMARK    3  A    between atoms: C_2  and  N_10
REMARK    4  A    between atoms: C_11  and  N_16
REMARK                            x       y       z     vdW  Elec       q    Type
REMARK                         _______ _______ _______ _____ _____    ______ ____
ROOT
ATOM      1  N   UNL     1       0.711  -0.489   1.189  0.00  0.00    -0.247 N 
ATOM      2  C   UNL     1       0.195  -1.290   2.157  0.00  0.00    +0.128 A 
ATOM      3  C   UNL     1       1.177  -1.506   3.075  0.00  0.00    +0.072 A 
ATOM      4  C   UNL     1       2.317  -0.817   2.653  0.00  0.00    +0.150 A 
ATOM      5  N   UNL     1       2.043  -0.215   1.524  0.00  0.00    -0.177 NA
ATOM      6  I   UNL     1       1.008  -2.663   4.814  0.00  0.00    -0.039 I 
ENDROOT
BRANCH   2   7
ATOM      7  N   UNL     1      -1.101  -1.798   2.202  0.00  0.00    -0.343 N 
ATOM      8  H   UNL     1      -1.730  -1.585   1.495  0.00  0.00    +0.144 HD
ATOM      9  H   UNL     1      -1.375  -2.365   2.940  0.00  0.00    +0.144 HD
ENDBRANCH   2   7
BRANCH   1  11
ATOM     10  C   UNL     1      -0.019   1.526   0.010  0.00  0.00    +0.033 C 
ATOM     11  C   UNL     1       0.002  -0.004   0.002  0.00  0.00    +0.109 C 
BRANCH  11  12
ATOM     12  C   UNL     1       0.718  -0.497  -1.257  0.00  0.00    +0.013 C 
ATOM     13  C   UNL     1      -0.022   0.009  -2.496  0.00  0.00    +0.005 C 
ATOM     14  C   UNL     1       0.694  -0.484  -3.755  0.00  0.00    +0.000 C 
ATOM     15  C   UNL     1       0.715  -2.014  -3.764  0.00  0.00    +0.000 C 
ATOM     16  C   UNL     1       1.455  -2.521  -2.524  0.00  0.00    +0.000 C 
ATOM     17  C   UNL     1       0.739  -2.027  -1.265  0.00  0.00    +0.005 C 
ENDBRANCH  11  12
ENDBRANCH   1  11
TORSDOF 3
