REMARK  Name = ZINC48572242
REMARK  5 active torsions:
REMARK  status: ('A' for Active; 'I' for Inactive)
REMARK    1  A    between atoms: C_1  and  C_2
REMARK    2  A    between atoms: C_2  and  C_4
REMARK    3  A    between atoms: C_2  and  N_13
REMARK    4  A    between atoms: N_6  and  C_7
REMARK    5  A    between atoms: C_14  and  C_16
REMARK                            x       y       z     vdW  Elec       q    Type
REMARK                         _______ _______ _______ _____ _____    ______ ____
ROOT
ATOM      1  C   UNL     1      -0.019   1.526   0.010  0.00  0.00    +0.038 C 
ATOM      2  C   UNL     1       0.002  -0.004   0.002  0.00  0.00    +0.161 C 
ENDROOT
BRANCH   2   3
ATOM      3  N   UNL     1      -1.372  -0.511   0.012  0.00  0.00    -0.300 N 
ATOM      4  C   UNL     1      -2.051  -0.643  -1.145  0.00  0.00    +0.251 C 
ATOM      5  O   UNL     1      -1.522  -0.340  -2.198  0.00  0.00    -0.270 OA
ATOM      6  H   UNL     1      -1.794  -0.752   0.852  0.00  0.00    +0.150 HD
BRANCH   4   7
ATOM      7  C   UNL     1      -3.425  -1.150  -1.134  0.00  0.00    +0.075 A 
ATOM      8  C   UNL     1      -4.286  -1.364  -2.200  0.00  0.00    +0.022 A 
ATOM      9  C   UNL     1      -5.528  -1.853  -1.876  0.00  0.00    +0.024 A 
ATOM     10  C   UNL     1      -5.824  -2.087  -0.572  0.00  0.00    +0.056 A 
ATOM     11  S   UNL     1      -4.424  -1.660   0.251  0.00  0.00    -0.077 S 
ATOM     12 BR   UNL     1      -7.441  -2.752   0.150  0.00  0.00    -0.043 Br
ENDBRANCH   4   7
ENDBRANCH   2   3
BRANCH   2  13
ATOM     13  C   UNL     1       0.731  -0.503   1.223  0.00  0.00    +0.269 C 
ATOM     14  O   UNL     1       0.040  -0.839   2.329  0.00  0.00    -0.269 OA
ATOM     15  N   UNL     1       2.029  -0.610   1.208  0.00  0.00    -0.174 NA
BRANCH  15  16
ATOM     16  C   UNL     1       2.688  -1.062   2.313  0.00  0.00    +0.249 A 
ATOM     17  N   UNL     1       2.136  -1.423   3.456  0.00  0.00    -0.198 NA
ATOM     18  H   UNL     1       4.698  -1.046   1.755  0.00  0.00    +0.192 HD
ATOM     19  C   UNL     1       3.082  -1.809   4.309  0.00  0.00    +0.247 A 
ATOM     20  N   UNL     1       4.250  -1.704   3.734  0.00  0.00    -0.159 NA
ATOM     21  N   UNL     1       4.027  -1.226   2.432  0.00  0.00    -0.243 N 
ENDBRANCH  15  16
ENDBRANCH   2  13
TORSDOF 4
