REMARK  Name = ZINC38547000
REMARK  9 active torsions:
REMARK  status: ('A' for Active; 'I' for Inactive)
REMARK    1  A    between atoms: C_1  and  C_2
REMARK    2  A    between atoms: C_6  and  N_8
REMARK    3  A    between atoms: N_8  and  C_9
REMARK    4  A    between atoms: C_9  and  C_11
REMARK    5  A    between atoms: C_9  and  C_21
REMARK    6  A    between atoms: C_14  and  C_17
REMARK    7  A    between atoms: C_23  and  C_34
REMARK    8  A    between atoms: C_25  and  N_26
REMARK    9  A    between atoms: C_27  and  C_29
REMARK                            x       y       z     vdW  Elec       q    Type
REMARK                         _______ _______ _______ _____ _____    ______ ____
ROOT
ATOM      1  C   UNL     1       0.157  -4.098   2.400  0.00  0.00    +0.135 C 
ENDROOT
BRANCH   1   2
ATOM      2  C   UNL     1      -1.131  -4.539   1.754  0.00  0.00    -0.023 A 
ATOM      3  C   UNL     1      -1.570  -3.923   0.597  0.00  0.00    +0.006 A 
ATOM      4  C   UNL     1      -2.751  -4.327   0.004  0.00  0.00    +0.013 A 
ATOM      5  C   UNL     1      -3.494  -5.348   0.568  0.00  0.00    +0.055 A 
ATOM      6  C   UNL     1      -3.054  -5.964   1.725  0.00  0.00    +0.013 A 
ATOM      7  C   UNL     1      -1.871  -5.563   2.315  0.00  0.00    +0.006 A 
BRANCH   5   8
ATOM      8  C   UNL     1      -4.782  -5.788  -0.077  0.00  0.00    +0.417 C 
ATOM      9  F   UNL     1      -4.518  -6.806  -1.000  0.00  0.00    -0.166 F 
ATOM     10  F   UNL     1      -5.657  -6.264   0.905  0.00  0.00    -0.166 F 
ATOM     11  F   UNL     1      -5.368  -4.702  -0.737  0.00  0.00    -0.166 F 
ENDBRANCH   5   8
ENDBRANCH   1   2
BRANCH   1  12
ATOM     12  C   UNL     1       1.323  -4.585   1.579  0.00  0.00    +0.006 A 
ATOM     13  C   UNL     1       1.891  -3.775   0.613  0.00  0.00    +0.018 A 
ATOM     14  C   UNL     1       2.939  -4.244  -0.107  0.00  0.00    -0.011 A 
ATOM     15  S   UNL     1       3.158  -5.879   0.575  0.00  0.00    -0.078 S 
ATOM     16  C   UNL     1       1.841  -5.829   1.780  0.00  0.00    +0.078 A 
ATOM     17  C   UNL     1       3.718  -3.562  -1.202  0.00  0.00    +0.051 C 
BRANCH  16  18
ATOM     18  N   UNL     1       1.444  -6.811   2.689  0.00  0.00    -0.273 N 
ATOM     19  C   UNL     1       2.092  -7.992   2.733  0.00  0.00    +0.284 C 
ATOM     20  O   UNL     1       3.025  -8.202   1.979  0.00  0.00    -0.266 OA
ATOM     21  H   UNL     1       0.701  -6.644   3.290  0.00  0.00    +0.156 HD
BRANCH  19  22
ATOM     22  C   UNL     1       1.675  -9.023   3.688  0.00  0.00    +0.189 A 
ATOM     23  C   UNL     1       2.246 -10.254   3.840  0.00  0.00    +0.054 A 
ATOM     24  C   UNL     1       1.534 -10.906   4.860  0.00  0.00    +0.042 A 
ATOM     25  C   UNL     1       0.572 -10.054   5.280  0.00  0.00    +0.196 A 
ATOM     26  O   UNL     1       0.664  -8.919   4.575  0.00  0.00    -0.458 OA
ENDBRANCH  19  22
ENDBRANCH  16  18
ENDBRANCH   1  12
BRANCH   1  27
ATOM     27  N   UNL     1       0.190  -2.635   2.475  0.00  0.00    -0.320 N 
ATOM     28  H   UNL     1      -0.368  -2.106   1.883  0.00  0.00    +0.148 HD
BRANCH  27  34
ATOM     29  C   UNL     1       1.980   1.457   4.199  0.00  0.00    +0.063 C 
ATOM     30  C   UNL     1       1.900  -0.047   4.244  0.00  0.00    +0.014 A 
ATOM     31  C   UNL     1       2.641  -0.741   5.180  0.00  0.00    +0.021 A 
ATOM     32  C   UNL     1       2.563  -2.127   5.218  0.00  0.00    +0.005 A 
ATOM     33  C   UNL     1       1.740  -2.767   4.309  0.00  0.00    +0.041 A 
ATOM     34  C   UNL     1       1.021  -2.005   3.394  0.00  0.00    +0.097 A 
ATOM     35  N   UNL     1       1.118  -0.684   3.393  0.00  0.00    -0.347 N 
ATOM     36  H   UNL     1       0.605  -0.172   2.749  0.00  0.00    +0.167 HD
ENDBRANCH  27  34
ENDBRANCH   1  27
TORSDOF 7
