REMARK  Name = ZINC29388898
REMARK  7 active torsions:
REMARK  status: ('A' for Active; 'I' for Inactive)
REMARK    1  A    between atoms: C_4  and  N_7
REMARK    2  A    between atoms: N_10  and  C_11
REMARK    3  A    between atoms: N_14  and  C_17
REMARK    4  A    between atoms: C_17  and  C_18
REMARK    5  A    between atoms: N_20  and  C_21
REMARK    6  A    between atoms: C_31  and  C_33
REMARK    7  A    between atoms: C_33  and  C_34
REMARK                            x       y       z     vdW  Elec       q    Type
REMARK                         _______ _______ _______ _____ _____    ______ ____
ROOT
ATOM      1  C   UNL     1      11.750   0.941  -3.065  0.00  0.00    +0.197 C 
ATOM      2  O   UNL     1      10.884   0.487  -3.782  0.00  0.00    -0.278 OA
ATOM      3  N   UNL     1      12.826   1.545  -3.607  0.00  0.00    -0.313 N 
ATOM      4  H   UNL     1      13.611   1.957  -2.956  0.00  0.00    +0.149 HD
ENDROOT
BRANCH   3   5
ATOM      5  C   UNL     1      12.950   1.653  -5.062  0.00  0.00    +0.081 C 
ATOM      6  C   UNL     1      13.586   0.376  -5.623  0.00  0.00    +0.027 C 
ATOM      7  C   UNL     1      14.847   0.073  -4.817  0.00  0.00    +0.037 C 
ATOM      8  C   UNL     1      15.733   1.289  -4.740  0.00  0.00    -0.041 A 
ATOM      9  C   UNL     1      17.060   1.100  -4.376  0.00  0.00    +0.042 A 
ATOM     10  C   UNL     1      17.920   2.176  -4.276  0.00  0.00    +0.124 A 
ATOM     11  C   UNL     1      17.455   3.454  -4.541  0.00  0.00    +0.038 A 
ATOM     12  C   UNL     1      16.139   3.640  -4.905  0.00  0.00    +0.007 A 
ATOM     13  C   UNL     1      15.273   2.559  -5.008  0.00  0.00    -0.039 A 
ATOM     14  C   UNL     1      13.850   2.836  -5.415  0.00  0.00    +0.044 C 
ATOM     15  F   UNL     1      19.209   1.984  -3.920  0.00  0.00    -0.205 F 
BRANCH  14  16
ATOM     16  C   UNL     1      13.350   4.085  -4.687  0.00  0.00    +0.046 C 
BRANCH  16  17
ATOM     17  C   UNL     1      11.996   4.472  -5.223  0.00  0.00    -0.029 A 
ATOM     18  C   UNL     1      11.886   5.389  -6.257  0.00  0.00    +0.006 A 
ATOM     19  C   UNL     1      10.620   5.711  -6.721  0.00  0.00    +0.020 A 
ATOM     20  C   UNL     1       9.517   5.119  -6.136  0.00  0.00    +0.111 A 
ATOM     21  N   UNL     1       9.659   4.255  -5.150  0.00  0.00    -0.263 NA
ATOM     22  C   UNL     1      10.848   3.921  -4.686  0.00  0.00    +0.114 A 
ENDBRANCH  16  17
ENDBRANCH  14  16
ENDBRANCH   3   5
BRANCH   1  23
ATOM     23  C   UNL     1      11.623   0.829  -1.567  0.00  0.00    +0.019 C 
BRANCH  23  27
ATOM     24  C   UNL     1       7.831  -0.261   0.080  0.00  0.00    +0.071 C 
ATOM     25  C   UNL     1       7.929   0.120  -1.399  0.00  0.00    +0.004 C 
ATOM     26  C   UNL     1       9.205   0.933  -1.629  0.00  0.00    -0.076 C 
ATOM     27  N   UNL     1      10.373   0.135  -1.232  0.00  0.00    +0.385 N 
ATOM     28  C   UNL     1      10.325  -0.203   0.196  0.00  0.00    -0.076 C 
ATOM     29  C   UNL     1       9.081  -1.049   0.480  0.00  0.00    +0.004 C 
ATOM     30  H   UNL     1      10.344  -0.807  -1.801  0.00  0.00    -0.081 HD
BRANCH  24  34
ATOM     31  N   UNL     1       4.350  -1.266   0.704  0.00  0.00    -0.269 N 
ATOM     32  C   UNL     1       5.444  -0.505   0.507  0.00  0.00    +0.304 C 
ATOM     33  O   UNL     1       5.353   0.707   0.519  0.00  0.00    -0.253 OA
ATOM     34  N   UNL     1       6.641  -1.088   0.295  0.00  0.00    -0.296 N 
ATOM     35  H   UNL     1       4.445  -2.360   0.773  0.00  0.00    +0.156 HD
ATOM     36  H   UNL     1       6.724  -2.185   0.284  0.00  0.00    +0.151 HD
BRANCH  31  40
ATOM     37  C   UNL     1       0.604   0.524   1.058  0.00  0.00    +0.000 A 
ATOM     38  C   UNL     1       1.723   1.159   1.565  0.00  0.00    +0.002 A 
ATOM     39  C   UNL     1       2.966   0.568   1.450  0.00  0.00    +0.023 A 
ATOM     40  C   UNL     1       3.092  -0.664   0.823  0.00  0.00    +0.035 A 
ATOM     41  C   UNL     1       1.966  -1.299   0.314  0.00  0.00    +0.023 A 
ATOM     42  C   UNL     1       0.726  -0.703   0.433  0.00  0.00    +0.002 A 
ENDBRANCH  31  40
ENDBRANCH  24  34
ENDBRANCH  23  27
ENDBRANCH   1  23
TORSDOF 7
