REMARK  Name = ZINC03166611
REMARK  7 active torsions:
REMARK  status: ('A' for Active; 'I' for Inactive)
REMARK    1  A    between atoms: C_1  and  C_2
REMARK    2  A    between atoms: N_5  and  S_11
REMARK    3  A    between atoms: C_7  and  C_10
REMARK    4  A    between atoms: S_11  and  C_14
REMARK    5  A    between atoms: C_17  and  C_20
REMARK    6  A    between atoms: C_28  and  S_32
REMARK    7  A    between atoms: S_32  and  N_35
REMARK                            x       y       z     vdW  Elec       q    Type
REMARK                         _______ _______ _______ _____ _____    ______ ____
ROOT
ATOM      1  C   UNL     1      -7.810  -4.266  -0.592  0.00  0.00    +0.250 C 
ATOM      2  O   UNL     1      -7.540  -4.022   0.568  0.00  0.00    -0.270 OA
ATOM      3  N   UNL     1      -7.154  -3.632  -1.584  0.00  0.00    -0.261 N 
ATOM      4  C   UNL     1      -6.174  -2.702  -1.283  0.00  0.00    +0.166 A 
ATOM      5  N   UNL     1      -5.747  -2.308  -0.105  0.00  0.00    -0.225 NA
ATOM      6  C   UNL     1      -4.774  -1.383   0.042  0.00  0.00    +0.080 A 
ATOM      7  C   UNL     1      -4.227  -0.875   1.243  0.00  0.00    +0.031 A 
ATOM      8  C   UNL     1      -3.235   0.070   1.215  0.00  0.00    +0.030 A 
ATOM      9  C   UNL     1      -2.733   0.560   0.018  0.00  0.00    +0.106 A 
ATOM     10  C   UNL     1      -3.248   0.089  -1.175  0.00  0.00    +0.045 A 
ATOM     11  C   UNL     1      -4.239  -0.861  -1.158  0.00  0.00    +0.043 A 
ATOM     12  S   UNL     1      -5.168  -1.732  -2.397  0.00  0.00    -0.052 S 
ATOM     13  H   UNL     1      -7.369  -3.827  -2.510  0.00  0.00    +0.157 HD
ENDROOT
BRANCH   1  17
ATOM     14  C   UNL     1     -10.818  -7.118  -1.518  0.00  0.00    +0.106 A 
ATOM     15  C   UNL     1     -10.513  -6.843  -0.197  0.00  0.00    +0.029 A 
ATOM     16  C   UNL     1      -9.537  -5.918   0.111  0.00  0.00    +0.015 A 
ATOM     17  C   UNL     1      -8.856  -5.259  -0.914  0.00  0.00    +0.037 A 
ATOM     18  C   UNL     1      -9.172  -5.537  -2.245  0.00  0.00    +0.015 A 
ATOM     19  C   UNL     1     -10.146  -6.469  -2.539  0.00  0.00    +0.029 A 
BRANCH  14  20
ATOM     20  S   UNL     1     -12.065  -8.302  -1.902  0.00  0.00    +0.061 S 
ATOM     21  O   UNL     1     -11.783  -8.779  -3.210  0.00  0.00    -0.153 OA
ATOM     22  O   UNL     1     -12.163  -9.167  -0.779  0.00  0.00    -0.153 OA
BRANCH  20  26
ATOM     23  C   UNL     1     -15.018  -4.886  -4.290  0.00  0.00    +0.039 C 
ATOM     24  C   UNL     1     -14.350  -5.449  -3.034  0.00  0.00    +0.131 C 
ATOM     25  C   UNL     1     -13.967  -6.914  -3.271  0.00  0.00    +0.140 C 
ATOM     26  N   UNL     1     -13.502  -7.484  -1.996  0.00  0.00    -0.172 NA
ATOM     27  C   UNL     1     -14.355  -7.312  -0.810  0.00  0.00    +0.140 C 
ATOM     28  C   UNL     1     -14.717  -5.823  -0.692  0.00  0.00    +0.131 C 
ATOM     29  O   UNL     1     -15.261  -5.373  -1.935  0.00  0.00    -0.371 OA
ATOM     30  C   UNL     1     -13.462  -5.014  -0.359  0.00  0.00    +0.039 C 
ENDBRANCH  20  26
ENDBRANCH  14  20
ENDBRANCH   1  17
BRANCH   9  31
ATOM     31  S   UNL     1      -1.456   1.774   0.019  0.00  0.00    +0.056 S 
ATOM     32  O   UNL     1      -1.536   2.446   1.268  0.00  0.00    -0.153 OA
ATOM     33  O   UNL     1      -1.548   2.460  -1.223  0.00  0.00    -0.153 OA
BRANCH  31  34
ATOM     34  N   UNL     1      -0.011   0.966   0.007  0.00  0.00    -0.204 NA
ATOM     35  H   UNL     1       0.002  -0.004   0.002  0.00  0.00    +0.144 HD
ATOM     36  H   UNL     1       0.822   1.462   0.002  0.00  0.00    +0.144 HD
ENDBRANCH  31  34
ENDBRANCH   9  31
TORSDOF 5
