REMARK  Name = ZINC23182370
REMARK  7 active torsions:
REMARK  status: ('A' for Active; 'I' for Inactive)
REMARK    1  A    between atoms: C_4  and  N_7
REMARK    2  A    between atoms: N_10  and  C_11
REMARK    3  A    between atoms: C_14  and  N_17
REMARK    4  A    between atoms: C_18  and  C_20
REMARK    5  A    between atoms: C_25  and  S_26
REMARK    6  A    between atoms: S_26  and  C_27
REMARK    7  A    between atoms: C_27  and  C_28
REMARK                            x       y       z     vdW  Elec       q    Type
REMARK                         _______ _______ _______ _____ _____    ______ ____
ROOT
ATOM      1  C   UNL     1      -2.534  -1.747  -8.835  0.00  0.00    +0.035 A 
ATOM      2  C   UNL     1      -3.756  -2.398  -8.741  0.00  0.00    +0.025 A 
ATOM      3  C   UNL     1      -4.310  -2.652  -7.502  0.00  0.00    +0.025 A 
ATOM      4  C   UNL     1      -3.644  -2.255  -6.350  0.00  0.00    +0.034 A 
ATOM      5  C   UNL     1      -2.424  -1.598  -6.444  0.00  0.00    +0.025 A 
ATOM      6  C   UNL     1      -1.868  -1.350  -7.683  0.00  0.00    +0.025 A 
ENDROOT
BRANCH   1  10
ATOM      7  N   UNL     1      -0.101  -1.385 -11.485  0.00  0.00    -0.269 N 
ATOM      8  C   UNL     1      -0.636  -1.541 -10.257  0.00  0.00    +0.308 C 
ATOM      9  O   UNL     1       0.088  -1.727  -9.298  0.00  0.00    -0.252 OA
ATOM     10  N   UNL     1      -1.972  -1.490 -10.093  0.00  0.00    -0.269 N 
ATOM     11  H   UNL     1      -0.747  -1.129 -12.338  0.00  0.00    +0.156 HD
ATOM     12  H   UNL     1      -2.622  -1.246 -10.946  0.00  0.00    +0.156 HD
BRANCH   7  16
ATOM     13  C   UNL     1       3.997  -1.877 -12.050  0.00  0.00    +0.000 A 
ATOM     14  C   UNL     1       3.330  -2.658 -11.124  0.00  0.00    +0.002 A 
ATOM     15  C   UNL     1       1.972  -2.497 -10.934  0.00  0.00    +0.023 A 
ATOM     16  C   UNL     1       1.276  -1.550 -11.675  0.00  0.00    +0.035 A 
ATOM     17  C   UNL     1       1.948  -0.771 -12.607  0.00  0.00    +0.023 A 
ATOM     18  C   UNL     1       3.307  -0.934 -12.789  0.00  0.00    +0.002 A 
ENDBRANCH   7  16
ENDBRANCH   1  10
BRANCH   4  19
ATOM     19  N   UNL     1      -4.205  -2.513  -5.093  0.00  0.00    -0.281 N 
ATOM     20  C   UNL     1      -4.907  -3.644  -4.888  0.00  0.00    +0.249 C 
ATOM     21  O   UNL     1      -5.126  -4.401  -5.814  0.00  0.00    -0.270 OA
ATOM     22  H   UNL     1      -4.072  -1.791  -4.273  0.00  0.00    +0.155 HD
BRANCH  20  23
ATOM     23  C   UNL     1      -5.410  -3.965  -3.540  0.00  0.00    +0.050 A 
ATOM     24  C   UNL     1      -5.165  -3.096  -2.473  0.00  0.00    +0.014 A 
ATOM     25  C   UNL     1      -5.634  -3.405  -1.215  0.00  0.00    +0.001 A 
ATOM     26  C   UNL     1      -6.353  -4.571  -1.001  0.00  0.00    +0.001 A 
ATOM     27  C   UNL     1      -6.607  -5.436  -2.044  0.00  0.00    +0.015 A 
ATOM     28  C   UNL     1      -6.143  -5.143  -3.321  0.00  0.00    +0.020 A 
BRANCH  28  29
ATOM     29  S   UNL     1      -6.466  -6.247  -4.656  0.00  0.00    -0.118 S 
BRANCH  29  30
ATOM     30  C   UNL     1      -7.413  -7.592  -3.894  0.00  0.00    +0.130 C 
BRANCH  30  31
ATOM     31  C   UNL     1      -7.759  -8.620  -4.941  0.00  0.00    +0.059 A 
ATOM     32  C   UNL     1      -8.910  -8.525  -5.654  0.00  0.00    +0.070 A 
ATOM     33  S   UNL     1      -8.769  -9.969  -6.698  0.00  0.00    -0.084 S 
ATOM     34  C   UNL     1      -7.240 -10.532  -6.096  0.00  0.00    +0.156 A 
ATOM     35  N   UNL     1      -6.952  -9.630  -5.187  0.00  0.00    -0.252 NA
ENDBRANCH  30  31
ENDBRANCH  29  30
ENDBRANCH  28  29
ENDBRANCH  20  23
ENDBRANCH   4  19
TORSDOF 7
