REMARK  Name = ZINC09884220
REMARK  8 active torsions:
REMARK  status: ('A' for Active; 'I' for Inactive)
REMARK    1  A    between atoms: C_1  and  N_2
REMARK    2  A    between atoms: N_2  and  C_3
REMARK    3  A    between atoms: N_2  and  S_9
REMARK    4  A    between atoms: S_9  and  C_12
REMARK    5  A    between atoms: C_16  and  C_18
REMARK    6  A    between atoms: N_20  and  N_21
REMARK    7  A    between atoms: C_22  and  C_24
REMARK    8  A    between atoms: N_28  and  C_29
REMARK                            x       y       z     vdW  Elec       q    Type
REMARK                         _______ _______ _______ _____ _____    ______ ____
ROOT
ATOM      1  C   UNL     1      -1.809   1.159   0.586  0.00  0.00    +0.260 C 
ATOM      2  O   UNL     1      -1.768  -0.054   0.529  0.00  0.00    -0.269 OA
ATOM      3  N   UNL     1      -0.698   1.883   0.347  0.00  0.00    -0.230 N 
ATOM      4  H   UNL     1      -0.730   2.852   0.393  0.00  0.00    +0.173 HD
ENDROOT
BRANCH   1   9
ATOM      5  C   UNL     1      -5.413   1.737   1.473  0.00  0.00    +0.109 A 
ATOM      6  C   UNL     1      -5.456   3.118   1.537  0.00  0.00    +0.029 A 
ATOM      7  C   UNL     1      -4.317   3.864   1.293  0.00  0.00    +0.003 A 
ATOM      8  C   UNL     1      -3.128   3.234   0.988  0.00  0.00    +0.013 A 
ATOM      9  C   UNL     1      -3.079   1.841   0.917  0.00  0.00    +0.040 A 
ATOM     10  C   UNL     1      -4.231   1.094   1.164  0.00  0.00    +0.042 A 
BRANCH   5  11
ATOM     11  S   UNL     1      -6.869   0.796   1.786  0.00  0.00    +0.074 S 
ATOM     12  O   UNL     1      -7.965   1.693   1.668  0.00  0.00    -0.150 OA
ATOM     13  O   UNL     1      -6.765  -0.387   1.005  0.00  0.00    -0.150 OA
BRANCH  11  15
ATOM     14  C   UNL     1      -6.122  -0.915   3.744  0.00  0.00    +0.157 C 
ATOM     15  N   UNL     1      -6.814   0.322   3.372  0.00  0.00    -0.206 N 
BRANCH  15  16
ATOM     16  C   UNL     1      -7.427   1.102   4.356  0.00  0.00    +0.051 A 
ATOM     17  C   UNL     1      -7.603   2.465   4.154  0.00  0.00    +0.025 A 
ATOM     18  C   UNL     1      -8.214   3.232   5.127  0.00  0.00    +0.002 A 
ATOM     19  C   UNL     1      -8.641   2.646   6.304  0.00  0.00    +0.000 A 
ATOM     20  C   UNL     1      -8.463   1.290   6.510  0.00  0.00    +0.002 A 
ATOM     21  C   UNL     1      -7.858   0.517   5.540  0.00  0.00    +0.025 A 
ENDBRANCH  15  16
ENDBRANCH  11  15
ENDBRANCH   5  11
ENDBRANCH   1   9
BRANCH   3  22
ATOM     22  N   UNL     1       0.505   1.237   0.034  0.00  0.00    -0.229 N 
ATOM     23  C   UNL     1       1.616   1.962  -0.210  0.00  0.00    +0.278 C 
ATOM     24  O   UNL     1       1.554   3.176  -0.245  0.00  0.00    -0.267 OA
ATOM     25  H   UNL     1       0.538   0.269  -0.011  0.00  0.00    +0.173 HD
BRANCH  23  26
ATOM     26  C   UNL     1       2.898   1.285  -0.433  0.00  0.00    +0.130 A 
ATOM     27  C   UNL     1       3.117  -0.064  -0.481  0.00  0.00    +0.144 A 
ATOM     28  N   UNL     1       4.416  -0.259  -0.705  0.00  0.00    -0.243 NA
ATOM     29  C   UNL     1       5.027   0.895  -0.801  0.00  0.00    +0.204 A 
ATOM     30  N   UNL     1       4.127   1.885  -0.645  0.00  0.00    -0.295 N 
BRANCH  30  31
ATOM     31  C   UNL     1       4.386   3.262  -0.686  0.00  0.00    +0.048 A 
ATOM     32  C   UNL     1       3.689   4.074  -1.570  0.00  0.00    +0.029 A 
ATOM     33  C   UNL     1       3.942   5.431  -1.606  0.00  0.00    +0.040 A 
ATOM     34  C   UNL     1       4.899   5.980  -0.769  0.00  0.00    +0.124 A 
ATOM     35  C   UNL     1       5.599   5.171   0.110  0.00  0.00    +0.040 A 
ATOM     36  C   UNL     1       5.345   3.814   0.152  0.00  0.00    +0.029 A 
ATOM     37  F   UNL     1       5.149   7.307  -0.809  0.00  0.00    -0.205 F 
ENDBRANCH  30  31
ENDBRANCH  23  26
ENDBRANCH   3  22
TORSDOF 7
