REMARK  Name = ZINC09463383
REMARK  6 active torsions:
REMARK  status: ('A' for Active; 'I' for Inactive)
REMARK    1  A    between atoms: C_1  and  C_2
REMARK    2  A    between atoms: C_5  and  C_8
REMARK    3  A    between atoms: C_10  and  C_11
REMARK    4  A    between atoms: C_11  and  C_12
REMARK    5  A    between atoms: C_31  and  C_38
REMARK    6  A    between atoms: C_33  and  C_37
REMARK                            x       y       z     vdW  Elec       q    Type
REMARK                         _______ _______ _______ _____ _____    ______ ____
ROOT
ATOM      1  C   UNL     1       0.194  -3.669  -0.022  0.00  0.00    +0.152 C 
ATOM      2  C   UNL     1       1.413  -4.555   0.082  0.00  0.00    +0.077 C 
ATOM      3  C   UNL     1       1.203  -5.387   1.128  0.00  0.00    +0.250 C 
ATOM      4  O   UNL     1       2.062  -6.340   1.557  0.00  0.00    -0.282 OA
ATOM      5  C   UNL     1      -0.114  -5.090   1.728  0.00  0.00    +0.293 C 
ATOM      6  O   UNL     1      -0.590  -5.667   2.686  0.00  0.00    -0.266 OA
ATOM      7  N   UNL     1      -0.708  -4.085   1.058  0.00  0.00    -0.232 N 
ATOM      8  C   UNL     1      -1.948  -3.541   1.339  0.00  0.00    +0.169 A 
ATOM      9  N   UNL     1      -2.794  -3.865   2.290  0.00  0.00    -0.224 NA
ATOM     10  C   UNL     1      -3.982  -3.243   2.448  0.00  0.00    +0.083 A 
ATOM     11  C   UNL     1      -4.976  -3.493   3.423  0.00  0.00    -0.024 A 
ATOM     12  C   UNL     1      -6.135  -2.764   3.443  0.00  0.00    +0.009 A 
ATOM     13  C   UNL     1      -6.377  -1.760   2.516  0.00  0.00    -0.049 A 
ATOM     14  C   UNL     1      -5.427  -1.488   1.549  0.00  0.00    +0.020 A 
ATOM     15  C   UNL     1      -4.262  -2.213   1.521  0.00  0.00    +0.041 A 
ATOM     16  S   UNL     1      -2.804  -2.212   0.505  0.00  0.00    -0.052 S 
ATOM     17  C   UNL     1      -7.662  -0.975   2.562  0.00  0.00    +0.044 C 
ATOM     18  C   UNL     1      -4.757  -4.574   4.450  0.00  0.00    +0.046 C 
ENDROOT
BRANCH   1  23
ATOM     19  C   UNL     1       1.693   1.869   0.667  0.00  0.00    +0.044 C 
ATOM     20  C   UNL     1       1.302   0.425   0.487  0.00  0.00    -0.050 A 
ATOM     21  C   UNL     1       1.030  -0.065  -0.776  0.00  0.00    +0.004 A 
ATOM     22  C   UNL     1       0.671  -1.390  -0.941  0.00  0.00    +0.006 A 
ATOM     23  C   UNL     1       0.586  -2.225   0.157  0.00  0.00    -0.022 A 
ATOM     24  C   UNL     1       0.859  -1.735   1.421  0.00  0.00    +0.006 A 
ATOM     25  C   UNL     1       1.222  -0.411   1.585  0.00  0.00    +0.004 A 
ENDBRANCH   1  23
BRANCH   2  26
ATOM     26  C   UNL     1       2.596  -4.519  -0.783  0.00  0.00    +0.195 C 
ATOM     27  O   UNL     1       3.680  -4.218  -0.320  0.00  0.00    -0.287 OA
BRANCH  26  28
ATOM     28  C   UNL     1       2.472  -4.849  -2.217  0.00  0.00    +0.026 A 
ATOM     29  C   UNL     1       1.254  -5.304  -2.729  0.00  0.00    +0.015 A 
ATOM     30  C   UNL     1       1.142  -5.612  -4.066  0.00  0.00    +0.050 A 
ATOM     31  C   UNL     1       2.237  -5.472  -4.912  0.00  0.00    +0.162 A 
ATOM     32  C   UNL     1       3.454  -5.017  -4.408  0.00  0.00    +0.163 A 
ATOM     33  C   UNL     1       3.572  -4.703  -3.067  0.00  0.00    +0.061 A 
ATOM     34  O   UNL     1       4.532  -4.867  -5.225  0.00  0.00    -0.485 OA
ATOM     35  C   UNL     1       4.481  -5.538  -6.489  0.00  0.00    +0.270 C 
ATOM     36  C   UNL     1       3.105  -5.277  -7.116  0.00  0.00    +0.270 C 
ATOM     37  O   UNL     1       2.104  -5.785  -6.228  0.00  0.00    -0.485 OA
ENDBRANCH  26  28
ENDBRANCH   2  26
TORSDOF 3
