REMARK  Name = ZINC13184045
REMARK  8 active torsions:
REMARK  status: ('A' for Active; 'I' for Inactive)
REMARK    1  A    between atoms: C_1  and  N_2
REMARK    2  A    between atoms: N_2  and  C_3
REMARK    3  A    between atoms: C_3  and  C_4
REMARK    4  A    between atoms: N_6  and  C_7
REMARK    5  A    between atoms: C_12  and  C_13
REMARK    6  A    between atoms: C_15  and  C_17
REMARK    7  A    between atoms: C_21  and  S_23
REMARK    8  A    between atoms: S_23  and  N_26
REMARK                            x       y       z     vdW  Elec       q    Type
REMARK                         _______ _______ _______ _____ _____    ______ ____
ROOT
ATOM      1  C   UNL     1       6.335  -1.377  -4.625  0.00  0.00    +0.133 C 
ATOM      2  N   UNL     1       6.733  -0.125  -3.977  0.00  0.00    -0.292 N 
ATOM      3  C   UNL     1       6.146   0.254  -2.824  0.00  0.00    +0.247 C 
ATOM      4  O   UNL     1       6.427   1.324  -2.322  0.00  0.00    -0.270 OA
ENDROOT
BRANCH   3   5
ATOM      5  C   UNL     1       5.160  -0.633  -2.171  0.00  0.00    +0.039 A 
ATOM      6  C   UNL     1       4.359  -1.479  -2.941  0.00  0.00    +0.013 A 
ATOM      7  C   UNL     1       3.442  -2.304  -2.325  0.00  0.00    +0.003 A 
ATOM      8  C   UNL     1       3.317  -2.299  -0.946  0.00  0.00    +0.028 A 
ATOM      9  C   UNL     1       4.103  -1.459  -0.178  0.00  0.00    +0.106 A 
ATOM     10  C   UNL     1       5.025  -0.629  -0.782  0.00  0.00    +0.041 A 
BRANCH   9  11
ATOM     11  S   UNL     1       3.932  -1.455   1.576  0.00  0.00    +0.061 S 
ATOM     12  O   UNL     1       5.165  -0.984   2.103  0.00  0.00    -0.153 OA
ATOM     13  O   UNL     1       3.384  -2.716   1.933  0.00  0.00    -0.153 OA
BRANCH  11  14
ATOM     14  N   UNL     1       2.790  -0.318   1.954  0.00  0.00    -0.177 NA
ATOM     15  C   UNL     1       1.369  -0.683   2.038  0.00  0.00    +0.109 C 
ATOM     16  C   UNL     1       0.564   0.254   1.132  0.00  0.00    +0.017 C 
ATOM     17  C   UNL     1       0.863   1.706   1.512  0.00  0.00    +0.003 C 
ATOM     18  C   UNL     1       2.352   1.993   1.303  0.00  0.00    +0.017 C 
ATOM     19  C   UNL     1       3.177   1.076   2.211  0.00  0.00    +0.109 C 
ENDBRANCH  11  14
ENDBRANCH   9  11
ENDBRANCH   3   5
BRANCH   2  20
ATOM     20  C   UNL     1       7.770   0.715  -4.581  0.00  0.00    +0.203 C 
BRANCH  20  21
ATOM     21  C   UNL     1       9.120   0.305  -4.052  0.00  0.00    +0.235 C 
ATOM     22  O   UNL     1       9.208  -0.600  -3.249  0.00  0.00    -0.274 OA
ATOM     23  N   UNL     1      10.230   0.944  -4.471  0.00  0.00    -0.283 N 
ATOM     24  H   UNL     1      10.168   1.623  -5.160  0.00  0.00    +0.155 HD
BRANCH  23  25
ATOM     25  C   UNL     1      11.467   0.629  -3.914  0.00  0.00    +0.048 A 
ATOM     26  C   UNL     1      11.761  -0.682  -3.562  0.00  0.00    +0.024 A 
ATOM     27  C   UNL     1      12.989  -0.993  -3.014  0.00  0.00    +0.002 A 
ATOM     28  C   UNL     1      13.934  -0.001  -2.802  0.00  0.00    +0.001 A 
ATOM     29  C   UNL     1      13.659   1.306  -3.140  0.00  0.00    +0.017 A 
ATOM     30  C   UNL     1      12.421   1.636  -3.700  0.00  0.00    +0.084 A 
BRANCH  30  31
ATOM     31  C   UNL     1      12.120   3.032  -4.063  0.00  0.00    +0.388 C 
ATOM     32  O   UNL     1      11.008   3.333  -4.448  0.00  0.00    -0.241 OA
ATOM     33  O   UNL     1      13.078   3.975  -3.967  0.00  0.00    -0.241 OA
ENDBRANCH  30  31
ENDBRANCH  23  25
ENDBRANCH  20  21
ENDBRANCH   2  20
TORSDOF 7
