REMARK  Name = ZINC13197819
REMARK  7 active torsions:
REMARK  status: ('A' for Active; 'I' for Inactive)
REMARK    1  A    between atoms: C_3  and  N_14
REMARK    2  A    between atoms: C_4  and  N_11
REMARK    3  A    between atoms: C_6  and  C_7
REMARK    4  A    between atoms: N_17  and  S_20
REMARK    5  A    between atoms: S_20  and  C_23
REMARK    6  A    between atoms: C_26  and  O_31
REMARK    7  A    between atoms: C_27  and  C_29
REMARK                            x       y       z     vdW  Elec       q    Type
REMARK                         _______ _______ _______ _____ _____    ______ ____
ROOT
ATOM      1  N   UNL     1      -3.111   4.146  -4.309  0.00  0.00    -0.326 N 
ATOM      2  C   UNL     1      -3.232   2.906  -3.531  0.00  0.00    +0.122 C 
ATOM      3  C   UNL     1      -3.930   3.207  -2.200  0.00  0.00    +0.128 C 
ATOM      4  N   UNL     1      -3.202   4.294  -1.528  0.00  0.00    -0.174 NA
ATOM      5  C   UNL     1      -2.926   5.522  -2.288  0.00  0.00    +0.128 C 
ATOM      6  C   UNL     1      -2.263   5.127  -3.618  0.00  0.00    +0.122 C 
ENDROOT
BRANCH   1   9
ATOM      7  C   UNL     1      -0.876   3.119  -7.040  0.00  0.00    +0.014 A 
ATOM      8  C   UNL     1      -1.349   3.375  -5.767  0.00  0.00    +0.026 A 
ATOM      9  C   UNL     1      -2.629   3.886  -5.594  0.00  0.00    +0.060 A 
ATOM     10  C   UNL     1      -3.431   4.133  -6.701  0.00  0.00    +0.148 A 
ATOM     11  C   UNL     1      -2.950   3.880  -7.970  0.00  0.00    +0.047 A 
ATOM     12  C   UNL     1      -1.675   3.371  -8.140  0.00  0.00    +0.057 A 
BRANCH  12  13
ATOM     13  C   UNL     1      -1.155   3.090  -9.526  0.00  0.00    +0.417 C 
ATOM     14  F   UNL     1       0.146   2.584  -9.443  0.00  0.00    -0.166 F 
ATOM     15  F   UNL     1      -1.982   2.151 -10.152  0.00  0.00    -0.166 F 
ATOM     16  F   UNL     1      -1.148   4.275 -10.270  0.00  0.00    -0.166 F 
ENDBRANCH  12  13
BRANCH  10  17
ATOM     17  N   UNL     1      -4.797   4.672  -6.521  0.00  0.00    +0.058 N 
ATOM     18  O   UNL     1      -5.533   4.801  -7.483  0.00  0.00    -0.126 OA
ATOM     19  O   UNL     1      -5.186   4.987  -5.410  0.00  0.00    -0.126 OA
ENDBRANCH  10  17
ENDBRANCH   1   9
BRANCH   4  20
ATOM     20  S   UNL     1      -2.713   4.142   0.047  0.00  0.00    +0.061 S 
ATOM     21  O   UNL     1      -3.568   3.179   0.647  0.00  0.00    -0.153 OA
ATOM     22  O   UNL     1      -2.573   5.460   0.558  0.00  0.00    -0.153 OA
BRANCH  20  23
ATOM     23  C   UNL     1      -1.098   3.437   0.025  0.00  0.00    +0.106 A 
ATOM     24  C   UNL     1      -0.947   2.060   0.053  0.00  0.00    +0.032 A 
ATOM     25  C   UNL     1       0.313   1.495   0.042  0.00  0.00    +0.048 A 
ATOM     26  C   UNL     1       1.438   2.305  -0.010  0.00  0.00    +0.131 A 
ATOM     27  C   UNL     1       1.289   3.699  -0.044  0.00  0.00    +0.106 A 
ATOM     28  C   UNL     1       0.008   4.257  -0.027  0.00  0.00    +0.047 A 
BRANCH  27  29
ATOM     29  C   UNL     1       2.477   4.570  -0.099  0.00  0.00    +0.390 C 
ATOM     30  O   UNL     1       3.589   4.081  -0.114  0.00  0.00    -0.240 OA
ATOM     31  O   UNL     1       2.329   5.909  -0.132  0.00  0.00    -0.240 OA
ENDBRANCH  27  29
BRANCH  26  32
ATOM     32  O   UNL     1       2.676   1.752  -0.027  0.00  0.00    -0.506 OA
ATOM     33  H   UNL     1       3.012   1.567  -0.915  0.00  0.00    +0.292 HD
ENDBRANCH  26  32
ENDBRANCH  20  23
ENDBRANCH   4  20
TORSDOF 7
