REMARK  Name = ZINC33009757
REMARK  5 active torsions:
REMARK  status: ('A' for Active; 'I' for Inactive)
REMARK    1  A    between atoms: C_4  and  N_7
REMARK    2  A    between atoms: N_10  and  C_11
REMARK    3  A    between atoms: C_13  and  N_22
REMARK    4  A    between atoms: C_16  and  N_17
REMARK    5  A    between atoms: C_23  and  C_25
REMARK                            x       y       z     vdW  Elec       q    Type
REMARK                         _______ _______ _______ _____ _____    ______ ____
ROOT
ATOM      1  C   UNL     1       2.187  -1.635  -1.572  0.00  0.00    +0.058 A 
ATOM      2  C   UNL     1       3.459  -1.635  -2.122  0.00  0.00    +0.048 A 
ATOM      3  C   UNL     1       4.165  -2.825  -2.235  0.00  0.00    +0.036 A 
ATOM      4  C   UNL     1       3.597  -4.014  -1.796  0.00  0.00    +0.025 A 
ATOM      5  C   UNL     1       2.329  -4.016  -1.247  0.00  0.00    +0.027 A 
ATOM      6  C   UNL     1       1.622  -2.829  -1.128  0.00  0.00    +0.051 A 
ENDROOT
BRANCH   1  10
ATOM      7  N   UNL     1       1.442   1.900  -1.426  0.00  0.00    -0.269 N 
ATOM      8  C   UNL     1       2.131   0.741  -1.418  0.00  0.00    +0.308 C 
ATOM      9  O   UNL     1       3.346   0.756  -1.382  0.00  0.00    -0.252 OA
ATOM     10  N   UNL     1       1.472  -0.434  -1.456  0.00  0.00    -0.267 N 
ATOM     11  H   UNL     1       0.343   1.887  -1.385  0.00  0.00    +0.156 HD
ATOM     12  H   UNL     1       0.374  -0.452  -1.397  0.00  0.00    +0.156 HD
BRANCH   7  16
ATOM     13  C   UNL     1       3.477   5.531  -1.605  0.00  0.00    +0.000 A 
ATOM     14  C   UNL     1       2.276   5.379  -2.273  0.00  0.00    +0.002 A 
ATOM     15  C   UNL     1       1.599   4.177  -2.216  0.00  0.00    +0.023 A 
ATOM     16  C   UNL     1       2.126   3.119  -1.486  0.00  0.00    +0.035 A 
ATOM     17  C   UNL     1       3.329   3.277  -0.811  0.00  0.00    +0.023 A 
ATOM     18  C   UNL     1       4.004   4.480  -0.876  0.00  0.00    +0.002 A 
ENDBRANCH   7  16
ENDBRANCH   1  10
BRANCH   6  19
ATOM     19  N   UNL     1       0.338  -2.832  -0.565  0.00  0.00    -0.328 N 
ATOM     20  C   UNL     1      -0.023  -4.184  -0.068  0.00  0.00    +0.105 C 
ATOM     21  C   UNL     1      -1.161  -3.897   0.944  0.00  0.00    +0.020 C 
ATOM     22  C   UNL     1      -0.705  -2.580   1.613  0.00  0.00    +0.020 C 
ATOM     23  C   UNL     1       0.274  -1.938   0.612  0.00  0.00    +0.105 C 
ENDBRANCH   6  19
BRANCH   3  24
ATOM     24  N   UNL     1       5.450  -2.827  -2.791  0.00  0.00    -0.281 N 
ATOM     25  C   UNL     1       5.875  -3.889  -3.503  0.00  0.00    +0.248 C 
ATOM     26  O   UNL     1       5.113  -4.807  -3.740  0.00  0.00    -0.270 OA
ATOM     27  H   UNL     1       6.113  -1.960  -2.647  0.00  0.00    +0.155 HD
BRANCH  25  28
ATOM     28  C   UNL     1       7.267  -3.939  -3.995  0.00  0.00    +0.037 A 
ATOM     29  C   UNL     1       8.143  -2.885  -3.730  0.00  0.00    +0.016 A 
ATOM     30  C   UNL     1       9.442  -2.939  -4.187  0.00  0.00    +0.039 A 
ATOM     31  C   UNL     1       9.876  -4.034  -4.919  0.00  0.00    +0.123 A 
ATOM     32  C   UNL     1       9.009  -5.081  -5.190  0.00  0.00    +0.039 A 
ATOM     33  C   UNL     1       7.710  -5.040  -4.733  0.00  0.00    +0.016 A 
ATOM     34  F   UNL     1      11.149  -4.080  -5.369  0.00  0.00    -0.205 F 
ENDBRANCH  25  28
ENDBRANCH   3  24
TORSDOF 5
