REMARK  Name = ZINC39666173
REMARK  11 active torsions:
REMARK  status: ('A' for Active; 'I' for Inactive)
REMARK    1  A    between atoms: C_1  and  C_2
REMARK    2  A    between atoms: C_5  and  O_8
REMARK    3  A    between atoms: O_8  and  C_9
REMARK    4  A    between atoms: C_9  and  C_11
REMARK    5  A    between atoms: C_9  and  C_12
REMARK    6  A    between atoms: C_12  and  N_13
REMARK    7  A    between atoms: C_14  and  C_16
REMARK    8  A    between atoms: C_27  and  C_29
REMARK    9  A    between atoms: C_32  and  O_39
REMARK   10  A    between atoms: C_33  and  C_35
REMARK   11  A    between atoms: O_39  and  C_40
REMARK                            x       y       z     vdW  Elec       q    Type
REMARK                         _______ _______ _______ _____ _____    ______ ____
ROOT
ATOM      1  C   UNL     1      -3.999  -6.703   0.531  0.00  0.00    +0.100 C 
ATOM      2  C   UNL     1      -4.652  -5.810   1.609  0.00  0.00    +0.121 C 
ATOM      3  N   UNL     1      -6.043  -6.309   1.717  0.00  0.00    -0.296 N 
ATOM      4  C   UNL     1      -5.915  -7.782   1.608  0.00  0.00    +0.115 C 
ATOM      5  C   UNL     1      -4.830  -7.997   0.534  0.00  0.00    -0.004 C 
ATOM      6  C   UNL     1      -3.952  -9.189   0.903  0.00  0.00    -0.010 C 
ATOM      7  C   UNL     1      -4.786 -10.471   0.842  0.00  0.00    -0.082 C 
ATOM      8  N   UNL     1      -5.330 -10.639  -0.511  0.00  0.00    +0.379 N 
ATOM      9  C   UNL     1      -6.247  -9.536  -0.822  0.00  0.00    -0.082 C 
ATOM     10  C   UNL     1      -5.475  -8.214  -0.832  0.00  0.00    -0.010 C 
ATOM     11  C   UNL     1      -7.170  -5.588   1.878  0.00  0.00    +0.247 C 
ATOM     12  O   UNL     1      -7.106  -4.381   2.013  0.00  0.00    -0.270 OA
ATOM     13  H   UNL     1      -4.574 -10.644  -1.178  0.00  0.00    -0.086 HD
ATOM     14  H   UNL     1      -5.829 -11.515  -0.565  0.00  0.00    -0.086 HD
ENDROOT
BRANCH  11  15
ATOM     15  C   UNL     1      -8.483  -6.263   1.891  0.00  0.00    +0.038 A 
ATOM     16  C   UNL     1      -8.607  -7.543   2.438  0.00  0.00    +0.016 A 
ATOM     17  C   UNL     1      -9.834  -8.168   2.449  0.00  0.00    +0.047 A 
ATOM     18  C   UNL     1     -10.947  -7.529   1.916  0.00  0.00    +0.132 A 
ATOM     19  C   UNL     1     -10.828  -6.256   1.371  0.00  0.00    +0.097 A 
ATOM     20  C   UNL     1      -9.605  -5.621   1.361  0.00  0.00    +0.029 A 
BRANCH  19  21
ATOM     21  C   UNL     1     -12.038  -5.568   0.794  0.00  0.00    +0.421 C 
ATOM     22  F   UNL     1     -11.671  -4.308   0.309  0.00  0.00    -0.166 F 
ATOM     23  F   UNL     1     -12.557  -6.337  -0.253  0.00  0.00    -0.166 F 
ATOM     24  F   UNL     1     -13.009  -5.419   1.790  0.00  0.00    -0.166 F 
ENDBRANCH  19  21
BRANCH  18  25
ATOM     25  O   UNL     1     -12.154  -8.149   1.928  0.00  0.00    -0.495 OA
ATOM     26  C   UNL     1     -12.206  -9.457   2.503  0.00  0.00    +0.277 C 
ENDBRANCH  18  25
ENDBRANCH  11  15
BRANCH   1  28
ATOM     27  N   UNL     1      -1.654  -7.198  -0.079  0.00  0.00    -0.312 N 
ATOM     28  C   UNL     1      -2.566  -6.999   0.892  0.00  0.00    +0.218 C 
ATOM     29  O   UNL     1      -2.234  -7.058   2.057  0.00  0.00    -0.275 OA
ATOM     30  H   UNL     1      -1.919  -7.151  -1.011  0.00  0.00    +0.149 HD
BRANCH  27  31
ATOM     31  C   UNL     1      -0.261  -7.486   0.272  0.00  0.00    +0.148 C 
BRANCH  31  32
ATOM     32  C   UNL     1       0.560  -7.668  -1.006  0.00  0.00    +0.187 C 
ATOM     33  C   UNL     1       2.015  -7.969  -0.640  0.00  0.00    +0.053 C 
BRANCH  32  34
ATOM     34  O   UNL     1       0.026  -8.756  -1.764  0.00  0.00    -0.488 OA
BRANCH  34  39
ATOM     35  C   UNL     1       1.028  -8.746  -7.307  0.00  0.00    +0.044 C 
ATOM     36  C   UNL     1       0.759  -8.748  -5.824  0.00  0.00    -0.050 A 
ATOM     37  C   UNL     1       1.165  -7.678  -5.047  0.00  0.00    +0.007 A 
ATOM     38  C   UNL     1       0.921  -7.679  -3.688  0.00  0.00    +0.046 A 
ATOM     39  C   UNL     1       0.267  -8.753  -3.102  0.00  0.00    +0.121 A 
ATOM     40  C   UNL     1      -0.139  -9.825  -3.883  0.00  0.00    +0.046 A 
ATOM     41  C   UNL     1       0.103  -9.818  -5.243  0.00  0.00    +0.007 A 
ENDBRANCH  34  39
ENDBRANCH  32  34
ENDBRANCH  31  32
ENDBRANCH  27  31
ENDBRANCH   1  28
TORSDOF 8
