REMARK  Name = ZINC21323028
REMARK  12 active torsions:
REMARK  status: ('A' for Active; 'I' for Inactive)
REMARK    1  A    between atoms: C_1  and  C_2
REMARK    2  A    between atoms: C_2  and  C_26
REMARK    3  A    between atoms: N_3  and  N_4
REMARK    4  A    between atoms: C_8  and  S_11
REMARK    5  A    between atoms: N_9  and  N_10
REMARK    6  A    between atoms: S_11  and  C_12
REMARK    7  A    between atoms: C_12  and  C_13
REMARK    8  A    between atoms: N_15  and  C_16
REMARK    9  A    between atoms: C_19  and  O_24
REMARK   10  A    between atoms: C_21  and  O_22
REMARK   11  A    between atoms: O_22  and  C_23
REMARK   12  A    between atoms: O_24  and  C_25
REMARK                            x       y       z     vdW  Elec       q    Type
REMARK                         _______ _______ _______ _____ _____    ______ ____
ROOT
ATOM      1  N   UNL     1      -9.999   2.563  -0.702  0.00  0.00    -0.204 N 
ATOM      2  C   UNL     1      -8.616   2.588  -0.587  0.00  0.00    +0.254 A 
ATOM      3  N   UNL     1      -7.869   3.663  -0.518  0.00  0.00    -0.109 NA
ATOM      4  N   UNL     1      -6.533   3.255  -0.405  0.00  0.00    -0.119 NA
ATOM      5  C   UNL     1      -6.508   1.943  -0.417  0.00  0.00    +0.210 A 
ATOM      6  N   UNL     1      -7.794   1.497  -0.526  0.00  0.00    -0.211 N 
ATOM      7  H   UNL     1     -10.528   1.600  -0.752  0.00  0.00    +0.178 HD
ENDROOT
BRANCH   1  10
ATOM      8  C   UNL     1     -12.740   2.420  -0.930  0.00  0.00    +0.068 C 
ATOM      9  C   UNL     1     -12.014   3.739  -0.861  0.00  0.00    +0.063 C 
ATOM     10  N   UNL     1     -10.720   3.763  -0.753  0.00  0.00    -0.184 NA
BRANCH   9  11
ATOM     11  C   UNL     1     -12.772   5.001  -0.915  0.00  0.00    -0.002 A 
ATOM     12  C   UNL     1     -14.164   4.979  -1.037  0.00  0.00    +0.011 A 
ATOM     13  C   UNL     1     -14.868   6.164  -1.083  0.00  0.00    +0.016 A 
ATOM     14  C   UNL     1     -14.198   7.374  -1.019  0.00  0.00    +0.018 A 
ATOM     15  C   UNL     1     -12.818   7.404  -0.904  0.00  0.00    +0.016 A 
ATOM     16  C   UNL     1     -12.102   6.226  -0.852  0.00  0.00    +0.011 A 
ATOM     17 BR   UNL     1     -15.171   8.994  -1.089  0.00  0.00    -0.050 Br
ENDBRANCH   9  11
ENDBRANCH   1  10
BRANCH   6  18
ATOM     18  N   UNL     1      -8.190   0.191  -0.567  0.00  0.00    -0.294 N 
ATOM     19  H   UNL     1      -7.441  -0.613  -0.510  0.00  0.00    +0.163 HD
ATOM     20  H   UNL     1      -9.258  -0.058  -0.656  0.00  0.00    +0.163 HD
ENDBRANCH   6  18
BRANCH   5  21
ATOM     21  S   UNL     1      -5.068   0.934  -0.304  0.00  0.00    -0.075 S 
BRANCH  21  22
ATOM     22  C   UNL     1      -3.705   2.125  -0.184  0.00  0.00    +0.173 C 
BRANCH  22  23
ATOM     23  C   UNL     1      -2.397   1.384  -0.081  0.00  0.00    +0.228 C 
ATOM     24  O   UNL     1      -2.386   0.171  -0.088  0.00  0.00    -0.275 OA
ATOM     25  N   UNL     1      -1.241   2.068   0.019  0.00  0.00    -0.282 N 
ATOM     26  H   UNL     1      -1.257   3.164   0.117  0.00  0.00    +0.155 HD
BRANCH  25  27
ATOM     27  C   UNL     1      -0.016   1.384  -0.002  0.00  0.00    +0.076 A 
ATOM     28  C   UNL     1       0.075   0.144  -0.616  0.00  0.00    +0.030 A 
ATOM     29  C   UNL     1       1.282  -0.528  -0.642  0.00  0.00    +0.047 A 
ATOM     30  C   UNL     1       2.405   0.036  -0.053  0.00  0.00    +0.124 A 
ATOM     31  C   UNL     1       2.319   1.275   0.562  0.00  0.00    +0.093 A 
ATOM     32  C   UNL     1       1.110   1.951   0.590  0.00  0.00    +0.145 A 
BRANCH  32  33
ATOM     33  O   UNL     1       1.023   3.167   1.193  0.00  0.00    -0.493 OA
ATOM     34  C   UNL     1       2.218   3.687   1.779  0.00  0.00    +0.277 C 
ENDBRANCH  32  33
BRANCH  30  35
ATOM     35  O   UNL     1       3.592  -0.627  -0.081  0.00  0.00    -0.495 OA
ATOM     36  C   UNL     1       3.609  -1.899  -0.732  0.00  0.00    +0.277 C 
ENDBRANCH  30  35
ENDBRANCH  25  27
ENDBRANCH  22  23
ENDBRANCH  21  22
ENDBRANCH   5  21
TORSDOF 9
