REMARK  Name = ZINC45581458
REMARK  9 active torsions:
REMARK  status: ('A' for Active; 'I' for Inactive)
REMARK    1  A    between atoms: C_1  and  C_2
REMARK    2  A    between atoms: C_2  and  C_3
REMARK    3  A    between atoms: C_3  and  C_5
REMARK    4  A    between atoms: C_3  and  C_6
REMARK    5  A    between atoms: C_9  and  C_12
REMARK    6  A    between atoms: C_12  and  C_14
REMARK    7  A    between atoms: C_12  and  N_19
REMARK    8  A    between atoms: C_20  and  C_22
REMARK    9  A    between atoms: C_22  and  N_23
REMARK                            x       y       z     vdW  Elec       q    Type
REMARK                         _______ _______ _______ _____ _____    ______ ____
ROOT
ATOM      1  N   UNL     1      -1.146  -6.675   1.855  0.00  0.00    -0.303 N 
ATOM      2  C   UNL     1      -0.600  -7.871   2.153  0.00  0.00    +0.232 C 
ATOM      3  O   UNL     1      -0.286  -8.632   1.263  0.00  0.00    -0.274 OA
ATOM      4  H   UNL     1      -1.397  -6.066   2.566  0.00  0.00    +0.150 HD
ENDROOT
BRANCH   1   5
ATOM      5  C   UNL     1      -1.358  -6.295   0.456  0.00  0.00    +0.140 C 
BRANCH   5   9
ATOM      6  C   UNL     1      -1.414  -2.036   0.129  0.00  0.00    -0.045 A 
ATOM      7  C   UNL     1      -0.780  -2.795  -0.837  0.00  0.00    +0.004 A 
ATOM      8  C   UNL     1      -0.762  -4.173  -0.731  0.00  0.00    +0.006 A 
ATOM      9  C   UNL     1      -1.377  -4.792   0.341  0.00  0.00    -0.022 A 
ATOM     10  C   UNL     1      -2.010  -4.033   1.307  0.00  0.00    +0.006 A 
ATOM     11  C   UNL     1      -2.024  -2.655   1.203  0.00  0.00    +0.004 A 
BRANCH   6  12
ATOM     12  C   UNL     1      -1.433  -0.534   0.013  0.00  0.00    +0.016 C 
ATOM     13  C   UNL     1      -2.135  -0.131  -1.286  0.00  0.00    +0.012 C 
BRANCH  12  15
ATOM     14  C   UNL     1      -0.019   1.526   0.010  0.00  0.00    +0.004 C 
ATOM     15  C   UNL     1       0.002  -0.004   0.002  0.00  0.00    +0.004 C 
ENDBRANCH  12  15
ENDBRANCH   6  12
ENDBRANCH   5   9
BRANCH   5  16
ATOM     16  C   UNL     1      -2.674  -6.852  -0.022  0.00  0.00    +0.014 A 
ATOM     17  C   UNL     1      -2.981  -7.411  -1.218  0.00  0.00    +0.013 A 
ATOM     18  C   UNL     1      -4.270  -7.859  -1.438  0.00  0.00    +0.008 A 
ATOM     19  C   UNL     1      -5.189  -7.726  -0.450  0.00  0.00    +0.045 A 
ATOM     20  S   UNL     1      -4.232  -6.954   0.844  0.00  0.00    -0.099 S 
ENDBRANCH   5  16
ENDBRANCH   1   5
BRANCH   2  21
ATOM     21  C   UNL     1      -0.382  -8.262   3.592  0.00  0.00    +0.213 C 
BRANCH  21  22
ATOM     22  N   UNL     1       0.218  -9.597   3.649  0.00  0.00    -0.215 N 
ATOM     23  C   UNL     1      -0.489 -10.746   3.704  0.00  0.00    +0.251 C 
ATOM     24  O   UNL     1      -1.695 -10.868   3.715  0.00  0.00    -0.272 OA
ATOM     25  C   UNL     1       0.541 -11.844   3.749  0.00  0.00    +0.138 C 
ATOM     26  C   UNL     1       0.387 -12.799   2.558  0.00  0.00    +0.045 C 
ATOM     27  C   UNL     1      -0.466 -13.937   3.162  0.00  0.00    +0.038 C 
ATOM     28  C   UNL     1      -0.183 -13.900   4.650  0.00  0.00    -0.042 A 
ATOM     29  C   UNL     1       0.398 -12.689   4.986  0.00  0.00    -0.012 A 
ATOM     30  C   UNL     1       0.743 -12.436   6.303  0.00  0.00    +0.006 A 
ATOM     31  C   UNL     1       0.509 -13.384   7.280  0.00  0.00    +0.000 A 
ATOM     32  C   UNL     1      -0.071 -14.592   6.943  0.00  0.00    +0.000 A 
ATOM     33  C   UNL     1      -0.416 -14.848   5.630  0.00  0.00    +0.004 A 
ATOM     34  N   UNL     1       1.826 -11.146   3.712  0.00  0.00    -0.281 N 
ATOM     35  C   UNL     1       1.538  -9.830   3.648  0.00  0.00    +0.310 C 
ATOM     36  O   UNL     1       2.379  -8.955   3.598  0.00  0.00    -0.252 OA
ATOM     37  H   UNL     1       2.709 -11.548   3.727  0.00  0.00    +0.152 HD
ENDBRANCH  21  22
ENDBRANCH   2  21
TORSDOF 7
