REMARK  Name = ZINC00987200
REMARK  8 active torsions:
REMARK  status: ('A' for Active; 'I' for Inactive)
REMARK    1  A    between atoms: C_1  and  O_2
REMARK    2  A    between atoms: O_2  and  C_3
REMARK    3  A    between atoms: C_6  and  C_11
REMARK    4  A    between atoms: C_8  and  O_9
REMARK    5  A    between atoms: O_9  and  C_10
REMARK    6  A    between atoms: C_14  and  C_25
REMARK    7  A    between atoms: C_20  and  N_24
REMARK    8  A    between atoms: C_21  and  C_22
REMARK                            x       y       z     vdW  Elec       q    Type
REMARK                         _______ _______ _______ _____ _____    ______ ____
ROOT
ATOM      1  C   UNL     1       2.639  -2.651   4.380  0.00  0.00    +0.102 C 
ATOM      2  C   UNL     1       2.027  -2.105   5.644  0.00  0.00    +0.054 A 
ATOM      3  C   UNL     1       0.760  -2.341   6.186  0.00  0.00    +0.100 A 
ATOM      4  N   UNL     1       0.662  -1.649   7.306  0.00  0.00    -0.171 NA
ATOM      5  N   UNL     1       1.866  -0.956   7.503  0.00  0.00    -0.246 N 
ATOM      6  H   UNL     1       2.071  -0.369   8.248  0.00  0.00    +0.192 HD
ATOM      7  C   UNL     1       2.690  -1.249   6.476  0.00  0.00    +0.223 A 
ATOM      8  O   UNL     1       3.954  -0.823   6.231  0.00  0.00    -0.423 OA
ATOM      9  C   UNL     1       4.660  -1.474   5.284  0.00  0.00    +0.200 C 
ATOM     10  C   UNL     1       4.115  -2.337   4.397  0.00  0.00    +0.098 C 
ENDROOT
BRANCH   3  11
ATOM     11  C   UNL     1      -0.290  -3.214   5.605  0.00  0.00    +0.003 A 
ATOM     12  C   UNL     1       0.051  -4.454   5.067  0.00  0.00    +0.011 A 
ATOM     13  C   UNL     1      -0.929  -5.262   4.529  0.00  0.00    +0.016 A 
ATOM     14  C   UNL     1      -2.248  -4.844   4.522  0.00  0.00    +0.018 A 
ATOM     15  C   UNL     1      -2.592  -3.614   5.054  0.00  0.00    +0.016 A 
ATOM     16  C   UNL     1      -1.620  -2.800   5.601  0.00  0.00    +0.011 A 
ATOM     17 BR   UNL     1      -3.586  -5.957   3.781  0.00  0.00    -0.050 Br
ENDBRANCH   3  11
BRANCH   1  21
ATOM     18  C   UNL     1       0.814  -0.804   0.982  0.00  0.00    +0.162 A 
ATOM     19  C   UNL     1       1.394  -0.024   1.970  0.00  0.00    +0.050 A 
ATOM     20  C   UNL     1       1.983  -0.624   3.067  0.00  0.00    +0.008 A 
ATOM     21  C   UNL     1       1.995  -2.002   3.182  0.00  0.00    -0.031 A 
ATOM     22  C   UNL     1       1.418  -2.785   2.200  0.00  0.00    +0.054 A 
ATOM     23  C   UNL     1       0.821  -2.190   1.101  0.00  0.00    +0.162 A 
BRANCH  18  25
ATOM     24  C   UNL     1       0.263   1.212  -0.153  0.00  0.00    +0.277 C 
ATOM     25  O   UNL     1       0.233  -0.215  -0.097  0.00  0.00    -0.491 OA
ENDBRANCH  18  25
BRANCH  23  26
ATOM     26  O   UNL     1       0.247  -2.960   0.137  0.00  0.00    -0.491 OA
ATOM     27  C   UNL     1       0.292  -4.376   0.326  0.00  0.00    +0.277 C 
ENDBRANCH  23  26
ENDBRANCH   1  21
BRANCH   9  28
ATOM     28  N   UNL     1       6.013  -1.248   5.218  0.00  0.00    -0.328 N 
ATOM     29  H   UNL     1       6.434  -0.636   5.841  0.00  0.00    +0.145 HD
ATOM     30  H   UNL     1       6.548  -1.702   4.548  0.00  0.00    +0.145 HD
ENDBRANCH   9  28
BRANCH  10  31
ATOM     31  C   UNL     1       4.967  -2.974   3.439  0.00  0.00    +0.101 C 
ATOM     32  N   UNL     1       5.643  -3.480   2.679  0.00  0.00    -0.191 NA
ENDBRANCH  10  31
TORSDOF 6
