REMARK  Name = ZINC38902596
REMARK  13 active torsions:
REMARK  status: ('A' for Active; 'I' for Inactive)
REMARK    1  A    between atoms: C_1  and  C_2
REMARK    2  A    between atoms: C_2  and  C_3
REMARK    3  A    between atoms: C_2  and  N_4
REMARK    4  A    between atoms: C_5  and  C_7
REMARK    5  A    between atoms: C_12  and  N_13
REMARK    6  A    between atoms: C_14  and  C_16
REMARK    7  A    between atoms: N_21  and  C_23
REMARK    8  A    between atoms: C_23  and  C_24
REMARK    9  A    between atoms: C_26  and  C_29
REMARK   10  A    between atoms: C_32  and  C_35
REMARK   11  A    between atoms: C_35  and  C_36
REMARK   12  A    between atoms: C_35  and  C_37
REMARK   13  A    between atoms: C_35  and  C_38
REMARK                            x       y       z     vdW  Elec       q    Type
REMARK                         _______ _______ _______ _____ _____    ______ ____
ROOT
ATOM      1  C   UNL     1      -1.378  -6.113  -2.876  0.00  0.00    +0.059 C 
ATOM      2  C   UNL     1      -0.561  -5.274  -3.864  0.00  0.00    +0.009 C 
ATOM      3  C   UNL     1       0.540  -6.147  -4.471  0.00  0.00    -0.018 C 
ATOM      4  C   UNL     1      -0.094  -7.370  -5.136  0.00  0.00    -0.078 C 
ATOM      5  N   UNL     1      -0.839  -8.145  -4.135  0.00  0.00    +0.386 N 
ATOM      6  C   UNL     1      -1.942  -7.338  -3.600  0.00  0.00    -0.065 C 
ATOM      7  H   UNL     1      -0.218  -8.405  -3.383  0.00  0.00    -0.081 HD
ENDROOT
BRANCH   1   9
ATOM      8  N   UNL     1      -2.253  -4.149  -1.653  0.00  0.00    -0.285 N 
ATOM      9  C   UNL     1      -2.513  -5.285  -2.331  0.00  0.00    +0.219 C 
ATOM     10  O   UNL     1      -3.660  -5.640  -2.502  0.00  0.00    -0.275 OA
ATOM     11  H   UNL     1      -1.340  -3.833  -1.568  0.00  0.00    +0.155 HD
BRANCH   8  17
ATOM     12  C   UNL     1      -3.155  -2.898   0.216  0.00  0.00    +0.058 A 
ATOM     13  C   UNL     1      -4.206  -2.173   0.782  0.00  0.00    +0.015 A 
ATOM     14  C   UNL     1      -5.374  -1.990   0.075  0.00  0.00    +0.001 A 
ATOM     15  C   UNL     1      -5.512  -2.520  -1.198  0.00  0.00    +0.002 A 
ATOM     16  C   UNL     1      -4.482  -3.239  -1.770  0.00  0.00    +0.024 A 
ATOM     17  C   UNL     1      -3.296  -3.429  -1.075  0.00  0.00    +0.046 A 
BRANCH  12  19
ATOM     18  N   UNL     1      -1.724  -2.487   2.156  0.00  0.00    -0.309 N 
ATOM     19  C   UNL     1      -1.902  -3.098   0.968  0.00  0.00    +0.246 C 
ATOM     20  O   UNL     1      -1.029  -3.814   0.516  0.00  0.00    -0.270 OA
ATOM     21  H   UNL     1      -2.420  -1.916   2.517  0.00  0.00    +0.149 HD
BRANCH  18  23
ATOM     22  C   UNL     1      -0.242  -1.489   3.825  0.00  0.00    +0.027 C 
ATOM     23  C   UNL     1      -0.479  -2.686   2.903  0.00  0.00    +0.067 C 
ATOM     24  C   UNL     1      -0.585  -3.962   3.740  0.00  0.00    +0.027 C 
ENDBRANCH  18  23
ENDBRANCH  12  19
ENDBRANCH   8  17
ENDBRANCH   1   9
BRANCH   5  25
ATOM     25  C   UNL     1      -1.380  -9.358  -4.761  0.00  0.00    +0.022 C 
BRANCH  25  26
ATOM     26  C   UNL     1      -0.245 -10.251  -5.193  0.00  0.00    +0.211 A 
ATOM     27  N   UNL     1       0.307 -11.183  -4.471  0.00  0.00    -0.193 NA
ATOM     28  C   UNL     1       1.289 -11.784  -5.166  0.00  0.00    +0.202 A 
ATOM     29  N   UNL     1       1.365 -11.226  -6.349  0.00  0.00    -0.056 NA
ATOM     30  O   UNL     1       0.362 -10.222  -6.386  0.00  0.00    -0.340 OA
BRANCH  28  31
ATOM     31  C   UNL     1       2.145 -12.892  -4.675  0.00  0.00    +0.022 A 
ATOM     32  C   UNL     1       1.960 -13.402  -3.391  0.00  0.00    +0.012 A 
ATOM     33  C   UNL     1       2.759 -14.433  -2.939  0.00  0.00    +0.005 A 
ATOM     34  C   UNL     1       3.742 -14.959  -3.758  0.00  0.00    -0.042 A 
ATOM     35  C   UNL     1       3.930 -14.457  -5.033  0.00  0.00    +0.005 A 
ATOM     36  C   UNL     1       3.133 -13.430  -5.497  0.00  0.00    +0.012 A 
BRANCH  34  37
ATOM     37  C   UNL     1       4.612 -16.084  -3.258  0.00  0.00    -0.013 C 
ATOM     38  C   UNL     1       3.736 -17.289  -2.907  0.00  0.00    +0.015 C 
ATOM     39  C   UNL     1       5.610 -16.479  -4.348  0.00  0.00    +0.015 C 
ATOM     40  C   UNL     1       5.372 -15.626  -2.012  0.00  0.00    +0.015 C 
ENDBRANCH  34  37
ENDBRANCH  28  31
ENDBRANCH  25  26
ENDBRANCH   5  25
TORSDOF 8
