REMARK  Name = ZINC33252477
REMARK  9 active torsions:
REMARK  status: ('A' for Active; 'I' for Inactive)
REMARK    1  A    between atoms: C_1  and  C_2
REMARK    2  A    between atoms: C_2  and  C_3
REMARK    3  A    between atoms: C_10  and  C_35
REMARK    4  A    between atoms: C_11  and  S_15
REMARK    5  A    between atoms: S_15  and  N_18
REMARK    6  A    between atoms: C_21  and  C_24
REMARK    7  A    between atoms: N_26  and  C_27
REMARK    8  A    between atoms: C_30  and  C_34
REMARK    9  A    between atoms: C_32  and  C_33
REMARK                            x       y       z     vdW  Elec       q    Type
REMARK                         _______ _______ _______ _____ _____    ______ ____
ROOT
ATOM      1  S   UNL     1       4.173   1.689   0.380  0.00  0.00    +0.061 S 
ATOM      2  O   UNL     1       5.162   1.199  -0.515  0.00  0.00    -0.153 OA
ATOM      3  O   UNL     1       3.773   3.053   0.401  0.00  0.00    -0.153 OA
ENDROOT
BRANCH   1  11
ATOM      4  C   UNL     1       0.706  -3.033  -1.930  0.00  0.00    +0.259 C 
ATOM      5  C   UNL     1      -0.633  -2.610  -1.381  0.00  0.00    +0.258 C 
ATOM      6  O   UNL     1      -1.632  -3.236  -1.664  0.00  0.00    -0.271 OA
ATOM      7  N   UNL     1      -0.715  -1.532  -0.573  0.00  0.00    -0.280 N 
ATOM      8  C   UNL     1       0.427  -0.749  -0.358  0.00  0.00    +0.076 A 
ATOM      9  C   UNL     1       0.442   0.216   0.637  0.00  0.00    +0.032 A 
ATOM     10  C   UNL     1       1.587   0.959   0.857  0.00  0.00    -0.022 A 
ATOM     11  C   UNL     1       2.715   0.743   0.087  0.00  0.00    +0.112 A 
ATOM     12  C   UNL     1       2.704  -0.214  -0.911  0.00  0.00    +0.076 A 
ATOM     13  C   UNL     1       1.560  -0.958  -1.141  0.00  0.00    +0.145 A 
ATOM     14  O   UNL     1       1.527  -1.881  -2.139  0.00  0.00    -0.478 OA
ATOM     15  C   UNL     1       1.606   2.008   1.939  0.00  0.00    +0.046 C 
ATOM     16  H   UNL     1      -1.671  -1.278  -0.092  0.00  0.00    +0.155 HD
BRANCH   4  18
ATOM     17  C   UNL     1       2.692  -4.500  -1.544  0.00  0.00    +0.008 C 
ATOM     18  C   UNL     1       1.391  -3.972  -0.935  0.00  0.00    +0.051 C 
ENDBRANCH   4  18
ENDBRANCH   1  11
BRANCH   1  19
ATOM     19  N   UNL     1       4.694   1.325   1.908  0.00  0.00    -0.177 NA
ATOM     20  C   UNL     1       4.345   2.188   3.045  0.00  0.00    +0.110 C 
ATOM     21  C   UNL     1       5.624   2.588   3.777  0.00  0.00    +0.030 C 
ATOM     22  C   UNL     1       6.405   1.329   4.161  0.00  0.00    +0.078 C 
ATOM     23  C   UNL     1       6.792   0.561   2.895  0.00  0.00    +0.030 C 
ATOM     24  C   UNL     1       5.521   0.135   2.153  0.00  0.00    +0.110 C 
BRANCH  22  25
ATOM     25  C   UNL     1       7.652   1.721   4.911  0.00  0.00    +0.220 C 
ATOM     26  O   UNL     1       8.742   1.416   4.476  0.00  0.00    -0.275 OA
ATOM     27  N   UNL     1       7.556   2.411   6.065  0.00  0.00    -0.285 N 
ATOM     28  H   UNL     1       6.573   2.758   6.418  0.00  0.00    +0.155 HD
BRANCH  27  29
ATOM     29  C   UNL     1       8.705   2.685   6.814  0.00  0.00    +0.036 A 
ATOM     30  C   UNL     1       9.861   1.941   6.614  0.00  0.00    +0.024 A 
ATOM     31  C   UNL     1      10.995   2.217   7.351  0.00  0.00    +0.005 A 
ATOM     32  C   UNL     1      10.978   3.227   8.296  0.00  0.00    -0.050 A 
ATOM     33  C   UNL     1       9.828   3.966   8.502  0.00  0.00    +0.008 A 
ATOM     34  C   UNL     1       8.691   3.697   7.764  0.00  0.00    -0.029 A 
ATOM     35  C   UNL     1       7.438   4.503   7.989  0.00  0.00    +0.045 C 
ATOM     36  C   UNL     1      12.216   3.521   9.104  0.00  0.00    +0.044 C 
ENDBRANCH  27  29
ENDBRANCH  22  25
ENDBRANCH   1  19
TORSDOF 5
