REMARK  Name = ZINC59844913
REMARK  7 active torsions:
REMARK  status: ('A' for Active; 'I' for Inactive)
REMARK    1  A    between atoms: C_4  and  N_7
REMARK    2  A    between atoms: C_8  and  C_24
REMARK    3  A    between atoms: C_11  and  S_12
REMARK    4  A    between atoms: S_12  and  C_13
REMARK    5  A    between atoms: C_13  and  C_14
REMARK    6  A    between atoms: N_16  and  N_17
REMARK    7  A    between atoms: C_18  and  C_20
REMARK                            x       y       z     vdW  Elec       q    Type
REMARK                         _______ _______ _______ _____ _____    ______ ____
ROOT
ATOM      1  N   UNL     1       3.643  -0.619  -0.059  0.00  0.00    -0.270 N 
ATOM      2  C   UNL     1       4.076  -1.528  -1.000  0.00  0.00    +0.170 A 
ATOM      3  N   UNL     1       5.248  -1.966  -0.601  0.00  0.00    -0.128 NA
ATOM      4  N   UNL     1       5.573  -1.403   0.508  0.00  0.00    -0.122 NA
ATOM      5  C   UNL     1       4.632  -0.566   0.884  0.00  0.00    +0.197 A 
ENDROOT
BRANCH   2   6
ATOM      6  C   UNL     1       3.358  -1.933  -2.227  0.00  0.00    +0.034 A 
ATOM      7  C   UNL     1       2.813  -0.965  -3.072  0.00  0.00    +0.013 A 
ATOM      8  C   UNL     1       2.145  -1.350  -4.216  0.00  0.00    +0.001 A 
ATOM      9  C   UNL     1       2.014  -2.693  -4.526  0.00  0.00    +0.001 A 
ATOM     10  C   UNL     1       2.551  -3.657  -3.693  0.00  0.00    +0.016 A 
ATOM     11  C   UNL     1       3.227  -3.286  -2.548  0.00  0.00    +0.029 A 
ATOM     12 BR   UNL     1       3.968  -4.606  -1.414  0.00  0.00    -0.050 Br
ENDBRANCH   2   6
BRANCH   1  16
ATOM     13  C   UNL     1       0.071   1.530  -0.092  0.00  0.00    +0.000 A 
ATOM     14  C   UNL     1       1.276   2.192  -0.241  0.00  0.00    +0.002 A 
ATOM     15  C   UNL     1       2.461   1.482  -0.231  0.00  0.00    +0.026 A 
ATOM     16  C   UNL     1       2.442   0.104  -0.070  0.00  0.00    +0.051 A 
ATOM     17  C   UNL     1       1.230  -0.558   0.081  0.00  0.00    +0.026 A 
ATOM     18  C   UNL     1       0.048   0.157   0.069  0.00  0.00    +0.002 A 
ENDBRANCH   1  16
BRANCH   5  19
ATOM     19  S   UNL     1       4.641   0.435   2.334  0.00  0.00    -0.076 S 
BRANCH  19  20
ATOM     20  C   UNL     1       6.219   0.033   3.135  0.00  0.00    +0.174 C 
BRANCH  20  21
ATOM     21  C   UNL     1       6.355   0.832   4.405  0.00  0.00    +0.239 C 
ATOM     22  O   UNL     1       5.475   1.598   4.737  0.00  0.00    -0.273 OA
ATOM     23  N   UNL     1       7.455   0.696   5.172  0.00  0.00    -0.234 N 
ATOM     24  H   UNL     1       8.159   0.084   4.906  0.00  0.00    +0.173 HD
BRANCH  23  25
ATOM     25  N   UNL     1       7.582   1.439   6.353  0.00  0.00    -0.234 N 
ATOM     26  C   UNL     1       8.682   1.303   7.120  0.00  0.00    +0.232 C 
ATOM     27  O   UNL     1       9.562   0.537   6.787  0.00  0.00    -0.274 OA
ATOM     28  H   UNL     1       6.878   2.051   6.619  0.00  0.00    +0.173 HD
BRANCH  26  29
ATOM     29  C   UNL     1       8.819   2.102   8.390  0.00  0.00    +0.076 C 
ATOM     30  C   UNL     1       9.335   3.533   8.165  0.00  0.00    +0.013 C 
ATOM     31  C   UNL     1      10.181   3.343   9.435  0.00  0.00    +0.001 C 
ATOM     32  C   UNL     1      10.129   1.833   9.149  0.00  0.00    +0.013 C 
ENDBRANCH  26  29
ENDBRANCH  23  25
ENDBRANCH  20  21
ENDBRANCH  19  20
ENDBRANCH   5  19
TORSDOF 7
