REMARK  Name = ZINC34969882
REMARK  11 active torsions:
REMARK  status: ('A' for Active; 'I' for Inactive)
REMARK    1  A    between atoms: C_1  and  C_2
REMARK    2  A    between atoms: C_2  and  C_3
REMARK    3  A    between atoms: C_3  and  C_5
REMARK    4  A    between atoms: C_3  and  C_6
REMARK    5  A    between atoms: C_6  and  C_8
REMARK    6  A    between atoms: C_6  and  N_25
REMARK    7  A    between atoms: N_13  and  C_16
REMARK    8  A    between atoms: C_16  and  C_17
REMARK    9  A    between atoms: C_18  and  C_19
REMARK   10  A    between atoms: N_28  and  C_29
REMARK   11  A    between atoms: C_33  and  C_35
REMARK                            x       y       z     vdW  Elec       q    Type
REMARK                         _______ _______ _______ _____ _____    ______ ____
ROOT
ATOM      1  C   UNL     1       0.758  -2.047  -1.242  0.00  0.00    +0.163 C 
ENDROOT
BRANCH   1   2
ATOM      2  C   UNL     1       1.659  -2.422  -0.094  0.00  0.00    +0.236 C 
ATOM      3  O   UNL     1       1.185  -2.892   0.919  0.00  0.00    -0.274 OA
ATOM      4  N   UNL     1       2.990  -2.236  -0.192  0.00  0.00    -0.298 N 
ATOM      5  C   UNL     1       3.572  -1.554  -1.358  0.00  0.00    +0.123 C 
ATOM      6  C   UNL     1       4.498  -0.439  -0.859  0.00  0.00    +0.103 C 
ATOM      7  N   UNL     1       5.474  -1.003   0.083  0.00  0.00    -0.296 NA
ATOM      8  C   UNL     1       4.811  -1.548   1.276  0.00  0.00    +0.103 C 
ATOM      9  C   UNL     1       3.898  -2.702   0.867  0.00  0.00    +0.123 C 
BRANCH   7  10
ATOM     10  C   UNL     1       6.485  -0.004   0.454  0.00  0.00    +0.111 C 
BRANCH  10  11
ATOM     11  C   UNL     1       7.598  -0.675   1.217  0.00  0.00    -0.011 C 
ATOM     12  C   UNL     1       8.852  -0.554   0.804  0.00  0.00    +0.005 C 
BRANCH  12  13
ATOM     13  C   UNL     1       9.944  -1.212   1.552  0.00  0.00    -0.025 A 
ATOM     14  C   UNL     1       9.657  -1.966   2.691  0.00  0.00    +0.008 A 
ATOM     15  C   UNL     1      10.680  -2.578   3.385  0.00  0.00    +0.001 A 
ATOM     16  C   UNL     1      11.988  -2.444   2.955  0.00  0.00    +0.000 A 
ATOM     17  C   UNL     1      12.279  -1.697   1.827  0.00  0.00    +0.001 A 
ATOM     18  C   UNL     1      11.264  -1.086   1.120  0.00  0.00    +0.008 A 
ENDBRANCH  12  13
ENDBRANCH  10  11
ENDBRANCH   7  10
ENDBRANCH   1   2
BRANCH   1  19
ATOM     19  N   UNL     1      -0.495  -2.799  -1.146  0.00  0.00    -0.288 N 
ATOM     20  C   UNL     1      -1.226  -3.035  -2.254  0.00  0.00    +0.304 C 
ATOM     21  O   UNL     1      -0.845  -2.623  -3.333  0.00  0.00    -0.252 OA
ATOM     22  N   UNL     1      -2.379  -3.727  -2.166  0.00  0.00    -0.269 N 
ATOM     23  H   UNL     1      -0.799  -3.127  -0.286  0.00  0.00    +0.151 HD
ATOM     24  H   UNL     1      -2.648  -4.115  -1.318  0.00  0.00    +0.156 HD
BRANCH  22  25
ATOM     25  C   UNL     1      -3.189  -3.885  -3.296  0.00  0.00    +0.035 A 
ATOM     26  C   UNL     1      -4.572  -3.887  -3.167  0.00  0.00    +0.023 A 
ATOM     27  C   UNL     1      -5.368  -4.043  -4.284  0.00  0.00    +0.002 A 
ATOM     28  C   UNL     1      -4.789  -4.197  -5.531  0.00  0.00    +0.012 A 
ATOM     29  C   UNL     1      -3.413  -4.196  -5.663  0.00  0.00    +0.057 A 
ATOM     30  C   UNL     1      -2.611  -4.034  -4.550  0.00  0.00    +0.035 A 
BRANCH  29  31
ATOM     31  C   UNL     1      -2.787  -4.365  -7.023  0.00  0.00    +0.417 C 
ATOM     32  F   UNL     1      -3.793  -4.504  -7.986  0.00  0.00    -0.166 F 
ATOM     33  F   UNL     1      -2.009  -3.242  -7.322  0.00  0.00    -0.166 F 
ATOM     34  F   UNL     1      -1.978  -5.507  -7.026  0.00  0.00    -0.166 F 
ENDBRANCH  29  31
ENDBRANCH  22  25
ENDBRANCH   1  19
BRANCH   1  35
ATOM     35  C   UNL     1       0.459  -0.547  -1.187  0.00  0.00    +0.015 C 
ATOM     36  C   UNL     1      -0.342  -0.141  -2.425  0.00  0.00    +0.010 C 
BRANCH  35  38
ATOM     37  C   UNL     1      -0.548   1.277   0.193  0.00  0.00    +0.004 C 
ATOM     38  C   UNL     1      -0.355  -0.236   0.071  0.00  0.00    +0.002 C 
ENDBRANCH  35  38
ENDBRANCH   1  35
TORSDOF 9
