REMARK  Name = ZINC39408497
REMARK  3 active torsions:
REMARK  status: ('A' for Active; 'I' for Inactive)
REMARK    1  A    between atoms: C_1  and  C_2
REMARK    2  A    between atoms: N_6  and  C_9
REMARK    3  A    between atoms: C_12  and  C_16
REMARK                            x       y       z     vdW  Elec       q    Type
REMARK                         _______ _______ _______ _____ _____    ______ ____
ROOT
ATOM      1  C   UNL     1       0.055  -3.328   1.535  0.00  0.00    +0.235 C 
ATOM      2  N   UNL     1      -1.165  -4.151   1.327  0.00  0.00    -0.279 NA
ATOM      3  C   UNL     1      -0.989  -5.138   0.246  0.00  0.00    +0.096 C 
ATOM      4  C   UNL     1       0.354  -5.894   0.478  0.00  0.00    +0.096 C 
ATOM      5  S   UNL     1       1.405  -4.475   1.034  0.00  0.00    -0.117 S 
ATOM      6  H   UNL     1      -1.448  -4.601   2.185  0.00  0.00    +0.125 HD
ENDROOT
BRANCH   1  12
ATOM      7  C   UNL     1      -0.102  -0.375  -2.579  0.00  0.00    +0.065 C 
ATOM      8  C   UNL     1      -0.033  -0.836  -1.146  0.00  0.00    +0.035 A 
ATOM      9  C   UNL     1       0.044  -0.037  -0.063  0.00  0.00    +0.094 A 
ATOM     10  C   UNL     1       0.088  -0.859   1.088  0.00  0.00    +0.269 A 
ATOM     11  O   UNL     1       0.159  -0.477   2.242  0.00  0.00    -0.266 OA
ATOM     12  N   UNL     1       0.035  -2.142   0.675  0.00  0.00    -0.224 N 
ATOM     13  N   UNL     1      -0.046  -2.136  -0.724  0.00  0.00    -0.297 N 
ATOM     14  H   UNL     1      -0.100  -2.918  -1.294  0.00  0.00    +0.187 HD
ENDBRANCH   1  12
BRANCH   3  15
ATOM     15  C   UNL     1      -2.131  -6.120   0.265  0.00  0.00    -0.030 A 
ATOM     16  C   UNL     1      -2.646  -6.558   1.470  0.00  0.00    +0.006 A 
ATOM     17  C   UNL     1      -3.694  -7.459   1.488  0.00  0.00    +0.015 A 
ATOM     18  C   UNL     1      -4.228  -7.923   0.299  0.00  0.00    +0.018 A 
ATOM     19  C   UNL     1      -3.712  -7.484  -0.907  0.00  0.00    +0.015 A 
ATOM     20  C   UNL     1      -2.667  -6.580  -0.924  0.00  0.00    +0.006 A 
ATOM     21 BR   UNL     1      -5.661  -9.156   0.322  0.00  0.00    -0.050 Br
ENDBRANCH   3  15
TORSDOF 2
