REMARK  Name = ZINC49475875
REMARK  4 active torsions:
REMARK  status: ('A' for Active; 'I' for Inactive)
REMARK    1  A    between atoms: C_1  and  C_2
REMARK    2  A    between atoms: C_3  and  N_8
REMARK    3  A    between atoms: C_9  and  C_11
REMARK    4  A    between atoms: C_13  and  C_17
REMARK                            x       y       z     vdW  Elec       q    Type
REMARK                         _______ _______ _______ _____ _____    ______ ____
ROOT
ATOM      1  N   UNL     1      -0.005  -0.375  -2.475  0.00  0.00    -0.278 N 
ATOM      2  C   UNL     1       0.003  -1.270  -3.483  0.00  0.00    +0.267 C 
ATOM      3  O   UNL     1       0.021  -2.461  -3.238  0.00  0.00    -0.268 OA
ATOM      4  H   UNL     1      -0.019   0.575  -2.670  0.00  0.00    +0.155 HD
ENDROOT
BRANCH   1   7
ATOM      5  C   UNL     1      -0.018   1.503   0.010  0.00  0.00    +0.069 C 
ATOM      6  C   UNL     1       0.002  -0.004   0.002  0.00  0.00    +0.081 A 
ATOM      7  C   UNL     1       0.008  -0.819  -1.140  0.00  0.00    +0.074 A 
ATOM      8  C   UNL     1       0.028  -2.112  -0.727  0.00  0.00    +0.128 A 
ATOM      9  N   UNL     1       0.034  -2.109   0.631  0.00  0.00    -0.283 N 
ATOM     10  H   UNL     1       0.048  -2.892   1.204  0.00  0.00    +0.188 HD
ATOM     11  N   UNL     1       0.023  -0.775   1.058  0.00  0.00    -0.177 NA
ENDBRANCH   1   7
BRANCH   2  12
ATOM     12  C   UNL     1      -0.011  -0.806  -4.878  0.00  0.00    +0.135 A 
ATOM     13  C   UNL     1      -0.011  -1.594  -6.017  0.00  0.00    +0.071 A 
ATOM     14  C   UNL     1      -0.027  -0.696  -7.088  0.00  0.00    +0.081 A 
ATOM     15  N   UNL     1      -0.036   0.516  -6.596  0.00  0.00    -0.177 NA
ATOM     16  N   UNL     1      -0.032   0.491  -5.312  0.00  0.00    -0.271 N 
ATOM     17  H   UNL     1      -0.040   1.272  -4.737  0.00  0.00    +0.189 HD
ATOM     18 BR   UNL     1       0.008  -3.483  -6.104  0.00  0.00    -0.046 Br
BRANCH  14  19
ATOM     19  C   UNL     1      -0.033  -1.060  -8.550  0.00  0.00    +0.041 C 
ATOM     20  C   UNL     1       0.152   0.073  -9.561  0.00  0.00    +0.010 C 
ATOM     21  C   UNL     1      -1.219  -0.584  -9.392  0.00  0.00    +0.010 C 
ENDBRANCH  14  19
ENDBRANCH   2  12
TORSDOF 3
