REMARK  Name = ZINC61888210
REMARK  6 active torsions:
REMARK  status: ('A' for Active; 'I' for Inactive)
REMARK    1  A    between atoms: C_4  and  C_7
REMARK    2  A    between atoms: C_7  and  S_8
REMARK    3  A    between atoms: S_8  and  N_11
REMARK    4  A    between atoms: N_11  and  C_12
REMARK    5  A    between atoms: C_17  and  C_19
REMARK    6  A    between atoms: N_20  and  O_21
REMARK                            x       y       z     vdW  Elec       q    Type
REMARK                         _______ _______ _______ _____ _____    ______ ____
ROOT
ATOM      1  N   UNL     1       5.615  -1.707   1.371  0.00  0.00    -0.190 NA
ATOM      2  H   UNL     1       5.661  -2.596   1.755  0.00  0.00    +0.148 HD
ENDROOT
BRANCH   1   3
ATOM      3  C   UNL     1       6.792  -1.132   0.713  0.00  0.00    +0.086 C 
ATOM      4  C   UNL     1       7.755  -0.556   1.765  0.00  0.00    +0.021 C 
ATOM      5  C   UNL     1       9.083  -1.327   1.616  0.00  0.00    +0.002 C 
ATOM      6  C   UNL     1       8.672  -2.667   0.957  0.00  0.00    +0.013 C 
ATOM      7  C   UNL     1       7.567  -2.233  -0.040  0.00  0.00    +0.074 C 
BRANCH   7   8
ATOM      8  C   UNL     1       6.660  -3.393  -0.359  0.00  0.00    +0.136 C 
ATOM      9  N   UNL     1       6.084  -3.464  -1.513  0.00  0.00    -0.076 NA
ATOM     10  N   UNL     1       6.444  -4.378   0.580  0.00  0.00    -0.344 N 
ATOM     11  H   UNL     1       6.876  -4.324   1.447  0.00  0.00    +0.144 HD
ATOM     12  H   UNL     1       5.859  -5.124   0.374  0.00  0.00    +0.144 HD
BRANCH   9  13
ATOM     13  O   UNL     1       6.218  -2.400  -2.438  0.00  0.00    -0.408 OA
ATOM     14  H   UNL     1       5.691  -2.509  -3.242  0.00  0.00    +0.328 HD
ENDBRANCH   9  13
ENDBRANCH   7   8
ENDBRANCH   1   3
BRANCH   1  15
ATOM     15  S   UNL     1       4.208  -0.838   1.458  0.00  0.00    +0.034 S 
ATOM     16  O   UNL     1       4.588   0.412   2.015  0.00  0.00    -0.158 OA
ATOM     17  O   UNL     1       3.299  -1.690   2.142  0.00  0.00    -0.158 OA
BRANCH  15  18
ATOM     18  C   UNL     1       3.687  -0.622  -0.266  0.00  0.00    +0.220 C 
BRANCH  18  22
ATOM     19  C   UNL     1       0.044   1.606  -0.384  0.00  0.00    +0.000 A 
ATOM     20  C   UNL     1       1.259   2.265  -0.425  0.00  0.00    +0.000 A 
ATOM     21  C   UNL     1       2.437   1.544  -0.387  0.00  0.00    +0.005 A 
ATOM     22  C   UNL     1       2.401   0.164  -0.307  0.00  0.00    -0.025 A 
ATOM     23  C   UNL     1       1.187  -0.494  -0.265  0.00  0.00    +0.005 A 
ATOM     24  C   UNL     1       0.008   0.227  -0.304  0.00  0.00    +0.000 A 
ENDBRANCH  18  22
ENDBRANCH  15  18
ENDBRANCH   1  15
TORSDOF 6
