REMARK  Name = ZINC59437832
REMARK  9 active torsions:
REMARK  status: ('A' for Active; 'I' for Inactive)
REMARK    1  A    between atoms: C_1  and  O_2
REMARK    2  A    between atoms: O_2  and  C_3
REMARK    3  A    between atoms: C_6  and  C_11
REMARK    4  A    between atoms: C_8  and  O_9
REMARK    5  A    between atoms: O_9  and  C_10
REMARK    6  A    between atoms: N_13  and  C_14
REMARK    7  A    between atoms: C_14  and  N_16
REMARK    8  A    between atoms: N_16  and  C_17
REMARK    9  A    between atoms: N_24  and  C_26
REMARK                            x       y       z     vdW  Elec       q    Type
REMARK                         _______ _______ _______ _____ _____    ______ ____
ROOT
ATOM      1  N   UNL     1       4.317  -1.661   7.280  0.00  0.00    -0.297 N 
ATOM      2  H   UNL     1       4.084  -0.720   7.316  0.00  0.00    +0.154 HD
ENDROOT
BRANCH   1   3
ATOM      3  C   UNL     1       4.868  -2.288   8.403  0.00  0.00    +0.035 A 
ATOM      4  C   UNL     1       5.991  -3.111   8.244  0.00  0.00    +0.025 A 
ATOM      5  C   UNL     1       6.565  -3.744   9.299  0.00  0.00    +0.033 A 
ATOM      6  C   UNL     1       6.028  -3.575  10.587  0.00  0.00    +0.113 A 
ATOM      7  C   UNL     1       4.849  -2.711  10.757  0.00  0.00    +0.115 A 
ATOM      8  C   UNL     1       4.303  -2.079   9.628  0.00  0.00    +0.055 A 
ATOM      9  N   UNL     1       4.586  -2.752  12.054  0.00  0.00    -0.147 NA
ATOM     10  N   UNL     1       5.449  -3.514  12.630  0.00  0.00    -0.149 N 
ATOM     11  N   UNL     1       6.304  -4.011  11.806  0.00  0.00    -0.147 NA
BRANCH  10  12
ATOM     12  C   UNL     1       5.457  -3.776  14.006  0.00  0.00    +0.086 A 
ATOM     13  C   UNL     1       4.494  -3.204  14.828  0.00  0.00    +0.030 A 
ATOM     14  C   UNL     1       4.504  -3.463  16.184  0.00  0.00    +0.017 A 
ATOM     15  C   UNL     1       5.472  -4.292  16.725  0.00  0.00    +0.018 A 
ATOM     16  C   UNL     1       6.432  -4.862  15.908  0.00  0.00    +0.017 A 
ATOM     17  C   UNL     1       6.423  -4.612  14.550  0.00  0.00    +0.030 A 
ATOM     18 BR   UNL     1       5.482  -4.644  18.583  0.00  0.00    -0.050 Br
ENDBRANCH  10  12
ENDBRANCH   1   3
BRANCH   1  19
ATOM     19  C   UNL     1       4.109  -2.364   6.150  0.00  0.00    +0.141 C 
ATOM     20  S   UNL     1       4.618  -3.996   6.051  0.00  0.00    -0.018 S 
BRANCH  19  23
ATOM     21  C   UNL     1       3.292  -2.487   3.966  0.00  0.00    +0.250 C 
ATOM     22  O   UNL     1       3.654  -3.645   3.896  0.00  0.00    -0.270 OA
ATOM     23  N   UNL     1       3.500  -1.783   5.097  0.00  0.00    -0.264 N 
ATOM     24  H   UNL     1       3.212  -0.859   5.153  0.00  0.00    +0.157 HD
BRANCH  21  28
ATOM     25  C   UNL     1       1.375  -0.649   0.649  0.00  0.00    +0.162 A 
ATOM     26  C   UNL     1       1.589   0.074   1.815  0.00  0.00    +0.050 A 
ATOM     27  C   UNL     1       2.210  -0.519   2.893  0.00  0.00    +0.017 A 
ATOM     28  C   UNL     1       2.626  -1.850   2.814  0.00  0.00    +0.041 A 
ATOM     29  C   UNL     1       2.410  -2.578   1.640  0.00  0.00    +0.062 A 
ATOM     30  C   UNL     1       1.782  -1.980   0.566  0.00  0.00    +0.162 A 
BRANCH  25  32
ATOM     31  C   UNL     1       0.371   1.306  -0.256  0.00  0.00    +0.277 C 
ATOM     32  O   UNL     1       0.762  -0.060  -0.410  0.00  0.00    -0.491 OA
ENDBRANCH  25  32
BRANCH  30  33
ATOM     33  O   UNL     1       1.565  -2.686  -0.576  0.00  0.00    -0.491 OA
ATOM     34  C   UNL     1       2.009  -4.045  -0.592  0.00  0.00    +0.277 C 
ENDBRANCH  30  33
ENDBRANCH  21  28
ENDBRANCH  19  23
ENDBRANCH   1  19
TORSDOF 7
