REMARK  Name = ZINC50429813
REMARK  7 active torsions:
REMARK  status: ('A' for Active; 'I' for Inactive)
REMARK    1  A    between atoms: C_1  and  C_2
REMARK    2  A    between atoms: C_5  and  C_18
REMARK    3  A    between atoms: C_7  and  N_8
REMARK    4  A    between atoms: N_8  and  S_9
REMARK    5  A    between atoms: S_9  and  C_12
REMARK    6  A    between atoms: N_15  and  C_17
REMARK    7  A    between atoms: C_18  and  N_20
REMARK                            x       y       z     vdW  Elec       q    Type
REMARK                         _______ _______ _______ _____ _____    ______ ____
ROOT
ATOM      1  C   UNL     1      -0.018   1.503   0.010  0.00  0.00    +0.046 C 
ATOM      2  C   UNL     1       0.002  -0.004   0.002  0.00  0.00    -0.026 A 
ATOM      3  C   UNL     1       0.006  -0.686  -1.200  0.00  0.00    +0.006 A 
ATOM      4  C   UNL     1       0.025  -2.066  -1.216  0.00  0.00    +0.010 A 
ATOM      5  C   UNL     1       0.041  -2.778  -0.015  0.00  0.00    +0.005 A 
ATOM      6  C   UNL     1       0.037  -2.090   1.198  0.00  0.00    +0.037 A 
ATOM      7  C   UNL     1       0.023  -0.703   1.203  0.00  0.00    +0.078 A 
ENDROOT
BRANCH   5   8
ATOM      8  C   UNL     1       0.061  -4.254  -0.029  0.00  0.00    +0.077 C 
ATOM      9  S   UNL     1       0.929  -5.110   1.173  0.00  0.00    -0.035 S 
BRANCH   8  10
ATOM     10  N   UNL     1      -0.605  -4.928  -0.988  0.00  0.00    -0.352 N 
ATOM     11  H   UNL     1      -1.097  -4.443  -1.669  0.00  0.00    +0.143 HD
ATOM     12  H   UNL     1      -0.592  -5.898  -0.998  0.00  0.00    +0.143 HD
ENDBRANCH   8  10
ENDBRANCH   5   8
BRANCH   7  13
ATOM     13  N   UNL     1       0.025  -0.009   2.416  0.00  0.00    -0.097 NA
BRANCH  13  14
ATOM     14  S   UNL     1       0.049  -0.841   3.847  0.00  0.00    +0.095 S 
ATOM     15  O   UNL     1      -1.186  -1.539   3.932  0.00  0.00    -0.148 OA
ATOM     16  O   UNL     1       1.305  -1.504   3.909  0.00  0.00    -0.148 OA
BRANCH  14  17
ATOM     17  C   UNL     1       0.045   0.352   5.144  0.00  0.00    +0.148 A 
ATOM     18  C   UNL     1       1.173   0.929   5.735  0.00  0.00    +0.163 A 
ATOM     19  N   UNL     1       0.769   1.765   6.656  0.00  0.00    -0.178 NA
ATOM     20  N   UNL     1      -0.631   1.746   6.681  0.00  0.00    -0.273 N 
ATOM     21  C   UNL     1      -1.051   0.875   5.740  0.00  0.00    +0.136 A 
ATOM     22  C   UNL     1      -1.488   2.537   7.567  0.00  0.00    +0.172 C 
ENDBRANCH  14  17
ENDBRANCH  13  14
ENDBRANCH   7  13
TORSDOF 5
