REMARK  Name = ZINC29120016
REMARK  7 active torsions:
REMARK  status: ('A' for Active; 'I' for Inactive)
REMARK    1  A    between atoms: C_1  and  S_2
REMARK    2  A    between atoms: S_2  and  N_5
REMARK    3  A    between atoms: N_5  and  C_6
REMARK    4  A    between atoms: C_9  and  C_12
REMARK    5  A    between atoms: C_18  and  C_20
REMARK    6  A    between atoms: C_20  and  N_21
REMARK    7  A    between atoms: C_22  and  C_27
REMARK                            x       y       z     vdW  Elec       q    Type
REMARK                         _______ _______ _______ _____ _____    ______ ____
ROOT
ATOM      1  C   UNL     1       7.473   2.209  -3.096  0.00  0.00    +0.080 A 
ATOM      2  C   UNL     1       6.855   2.674  -4.223  0.00  0.00    +0.076 A 
ATOM      3  S   UNL     1       5.515   3.613  -3.502  0.00  0.00    -0.060 S 
ATOM      4  C   UNL     1       5.920   3.300  -1.790  0.00  0.00    +0.165 A 
ATOM      5  N   UNL     1       6.989   2.535  -1.907  0.00  0.00    -0.225 NA
ATOM      6  N   UNL     1       5.276   3.740  -0.639  0.00  0.00    -0.263 N 
ATOM      7  C   UNL     1       4.185   4.526  -0.736  0.00  0.00    +0.239 C 
ATOM      8  O   UNL     1       3.765   4.848  -1.827  0.00  0.00    -0.273 OA
ATOM      9  H   UNL     1       5.657   3.448   0.350  0.00  0.00    +0.157 HD
ENDROOT
BRANCH   1  13
ATOM     10  C   UNL     1      10.922  -0.263  -3.405  0.00  0.00    +0.048 A 
ATOM     11  C   UNL     1      10.420   0.074  -2.154  0.00  0.00    +0.025 A 
ATOM     12  C   UNL     1       9.302   0.876  -2.051  0.00  0.00    +0.012 A 
ATOM     13  C   UNL     1       8.676   1.347  -3.204  0.00  0.00    +0.001 A 
ATOM     14  C   UNL     1       9.178   1.003  -4.458  0.00  0.00    +0.012 A 
ATOM     15  C   UNL     1      10.299   0.206  -4.556  0.00  0.00    +0.025 A 
BRANCH  10  16
ATOM     16  N   UNL     1      12.054  -1.075  -3.506  0.00  0.00    -0.221 N 
ATOM     17  H   UNL     1      12.934  -0.872  -2.878  0.00  0.00    +0.173 HD
BRANCH  16  19
ATOM     18  C   UNL     1      10.728  -3.431  -4.024  0.00  0.00    +0.218 C 
ATOM     19  S   UNL     1      12.072  -2.342  -4.572  0.00  0.00    +0.040 S 
ATOM     20  O   UNL     1      11.751  -1.763  -5.829  0.00  0.00    -0.155 OA
ATOM     21  O   UNL     1      13.328  -2.973  -4.365  0.00  0.00    -0.155 OA
ENDBRANCH  16  19
ENDBRANCH  10  16
ENDBRANCH   1  13
BRANCH   7  22
ATOM     22  C   UNL     1       3.487   5.003   0.511  0.00  0.00    +0.222 C 
BRANCH  22  23
ATOM     23  N   UNL     1       2.339   5.835   0.141  0.00  0.00    -0.292 N 
ATOM     24  C   UNL     1       1.047   5.416  -0.087  0.00  0.00    +0.172 A 
ATOM     25  N   UNL     1       0.346   6.484  -0.398  0.00  0.00    -0.128 NA
ATOM     26  N   UNL     1       1.098   7.525  -0.372  0.00  0.00    -0.121 NA
ATOM     27  C   UNL     1       2.327   7.188  -0.052  0.00  0.00    +0.203 A 
ATOM     28  S   UNL     1       3.704   8.277   0.099  0.00  0.00    -0.009 SA
BRANCH  24  29
ATOM     29  C   UNL     1       0.546   4.035   0.001  0.00  0.00    +0.056 A 
ATOM     30  C   UNL     1      -0.750   3.588   0.069  0.00  0.00    +0.019 A 
ATOM     31  C   UNL     1      -0.978   2.232   0.141  0.00  0.00    +0.008 A 
ATOM     32  C   UNL     1       0.082   1.382   0.153  0.00  0.00    +0.046 A 
ATOM     33  S   UNL     1       1.465   2.505   0.048  0.00  0.00    -0.094 S 
ENDBRANCH  24  29
ENDBRANCH  22  23
ENDBRANCH   7  22
TORSDOF 6
