REMARK  Name = ZINC09104301
REMARK  3 active torsions:
REMARK  status: ('A' for Active; 'I' for Inactive)
REMARK    1  A    between atoms: C_6  and  N_7
REMARK    2  A    between atoms: C_8  and  C_10
REMARK    3  A    between atoms: C_21  and  C_23
REMARK                            x       y       z     vdW  Elec       q    Type
REMARK                         _______ _______ _______ _____ _____    ______ ____
ROOT
ATOM      1  C   UNL     1       4.864   1.056  -0.253  0.00  0.00    +0.125 C 
ATOM      2  C   UNL     1       6.013   2.062  -0.342  0.00  0.00    +0.019 C 
ATOM      3  C   UNL     1       7.358   1.331  -0.287  0.00  0.00    +0.006 C 
ATOM      4  C   UNL     1       7.561   0.777   1.132  0.00  0.00    +0.044 C 
ATOM      5  C   UNL     1       6.305   0.090   1.549  0.00  0.00    +0.015 A 
ATOM      6  C   UNL     1       5.078   0.175   0.972  0.00  0.00    +0.066 A 
ATOM      7  N   UNL     1       4.114  -0.545   1.542  0.00  0.00    -0.229 NA
ATOM      8  C   UNL     1       4.333  -1.296   2.602  0.00  0.00    +0.165 A 
ATOM      9  S   UNL     1       6.025  -1.027   2.896  0.00  0.00    -0.057 S 
ATOM     10  N   UNL     1       3.441  -2.097   3.303  0.00  0.00    -0.261 N 
ATOM     11  C   UNL     1       3.863  -2.797   4.375  0.00  0.00    +0.250 C 
ATOM     12  O   UNL     1       5.025  -2.727   4.728  0.00  0.00    -0.270 OA
ATOM     13  H   UNL     1       2.514  -2.153   3.022  0.00  0.00    +0.157 HD
ENDROOT
BRANCH  11  14
ATOM     14  C   UNL     1       2.916  -3.648   5.120  0.00  0.00    +0.041 A 
ATOM     15  C   UNL     1       1.579  -3.725   4.720  0.00  0.00    +0.017 A 
ATOM     16  C   UNL     1       0.697  -4.524   5.414  0.00  0.00    +0.050 A 
ATOM     17  C   UNL     1       1.129  -5.246   6.519  0.00  0.00    +0.166 A 
ATOM     18  C   UNL     1       2.461  -5.169   6.927  0.00  0.00    +0.167 A 
ATOM     19  C   UNL     1       3.351  -4.374   6.232  0.00  0.00    +0.062 A 
ATOM     20  O   UNL     1       2.627  -5.964   8.025  0.00  0.00    -0.453 OA
ATOM     21  C   UNL     1       1.486  -6.843   8.037  0.00  0.00    +0.466 C 
ATOM     22  O   UNL     1       0.464  -6.088   7.361  0.00  0.00    -0.453 OA
ENDBRANCH  11  14
BRANCH   1  24
ATOM     23  N   UNL     1       2.403   1.106  -0.015  0.00  0.00    -0.285 N 
ATOM     24  C   UNL     1       3.556   1.794  -0.124  0.00  0.00    +0.226 C 
ATOM     25  O   UNL     1       3.542   3.006  -0.117  0.00  0.00    -0.275 OA
ATOM     26  H   UNL     1       2.419   0.138   0.048  0.00  0.00    +0.155 HD
BRANCH  23  32
ATOM     27  C   UNL     1       0.059   1.225  -0.585  0.00  0.00    +0.025 A 
ATOM     28  C   UNL     1      -1.145   1.903  -0.565  0.00  0.00    +0.022 A 
ATOM     29  C   UNL     1      -1.236   3.136   0.057  0.00  0.00    +0.041 A 
ATOM     30  C   UNL     1      -0.119   3.698   0.650  0.00  0.00    +0.022 A 
ATOM     31  C   UNL     1       1.088   3.028   0.627  0.00  0.00    +0.025 A 
ATOM     32  C   UNL     1       1.181   1.788   0.009  0.00  0.00    +0.033 A 
ATOM     33 CL   UNL     1      -2.752   3.981   0.087  0.00  0.00    -0.084 Cl
ENDBRANCH  23  32
ENDBRANCH   1  24
TORSDOF 3
