REMARK  Name = ZINC02853175
REMARK  8 active torsions:
REMARK  status: ('A' for Active; 'I' for Inactive)
REMARK    1  A    between atoms: C_1  and  C_2
REMARK    2  A    between atoms: C_4  and  O_10
REMARK    3  A    between atoms: C_6  and  C_9
REMARK    4  A    between atoms: O_10  and  C_11
REMARK    5  A    between atoms: C_11  and  C_13
REMARK    6  A    between atoms: C_11  and  C_14
REMARK    7  A    between atoms: N_16  and  N_17
REMARK    8  A    between atoms: N_20  and  C_21
REMARK                            x       y       z     vdW  Elec       q    Type
REMARK                         _______ _______ _______ _____ _____    ______ ____
ROOT
ATOM      1  C   UNL     1      -0.535   3.072   1.146  0.00  0.00    +0.270 C 
ATOM      2  O   UNL     1       0.208   3.651   1.909  0.00  0.00    -0.270 OA
ATOM      3  N   UNL     1      -1.184   3.760   0.185  0.00  0.00    -0.230 N 
ATOM      4  H   UNL     1      -1.779   3.296  -0.425  0.00  0.00    +0.173 HD
ENDROOT
BRANCH   3   5
ATOM      5  N   UNL     1      -1.000   5.144   0.068  0.00  0.00    -0.218 N 
ATOM      6  C   UNL     1      -1.649   5.831  -0.892  0.00  0.00    +0.316 C 
ATOM      7  O   UNL     1      -1.489   7.032  -0.993  0.00  0.00    -0.251 OA
ATOM      8  N   UNL     1      -2.476   5.188  -1.740  0.00  0.00    -0.295 N 
ATOM      9  H   UNL     1      -0.405   5.607   0.679  0.00  0.00    +0.174 HD
ATOM     10  H   UNL     1      -2.603   4.229  -1.659  0.00  0.00    +0.151 HD
BRANCH   8  11
ATOM     11  C   UNL     1      -3.181   5.935  -2.784  0.00  0.00    +0.074 C 
ATOM     12  C   UNL     1      -4.470   6.524  -2.207  0.00  0.00    +0.022 C 
ATOM     13  C   UNL     1      -5.207   7.304  -3.297  0.00  0.00    +0.002 C 
ATOM     14  C   UNL     1      -5.549   6.364  -4.454  0.00  0.00    +0.000 C 
ATOM     15  C   UNL     1      -4.260   5.775  -5.032  0.00  0.00    +0.002 C 
ATOM     16  C   UNL     1      -3.523   4.995  -3.941  0.00  0.00    +0.022 C 
ENDBRANCH   8  11
ENDBRANCH   3   5
BRANCH   1  17
ATOM     17  C   UNL     1      -0.734   1.583   1.272  0.00  0.00    +0.257 C 
ATOM     18  C   UNL     1      -0.188   0.889   0.022  0.00  0.00    +0.062 C 
BRANCH  17  19
ATOM     19  O   UNL     1      -0.038   1.106   2.425  0.00  0.00    -0.480 OA
BRANCH  19  23
ATOM     20  C   UNL     1       0.203  -2.176   6.029  0.00  0.00    +0.045 C 
ATOM     21  C   UNL     1      -0.401  -1.675   4.742  0.00  0.00    -0.028 A 
ATOM     22  C   UNL     1       0.064  -0.506   4.171  0.00  0.00    +0.050 A 
ATOM     23  C   UNL     1      -0.493  -0.044   2.987  0.00  0.00    +0.122 A 
ATOM     24  C   UNL     1      -1.518  -0.756   2.382  0.00  0.00    +0.050 A 
ATOM     25  C   UNL     1      -1.976  -1.927   2.953  0.00  0.00    -0.028 A 
ATOM     26  C   UNL     1      -1.420  -2.386   4.134  0.00  0.00    +0.047 A 
ATOM     27 CL   UNL     1      -2.002  -3.855   4.853  0.00  0.00    -0.083 Cl
ATOM     28  C   UNL     1      -3.087  -2.703   2.293  0.00  0.00    +0.045 C 
ENDBRANCH  19  23
ENDBRANCH  17  19
ENDBRANCH   1  17
TORSDOF 5
