REMARK  Name = ZINC08414412
REMARK  6 active torsions:
REMARK  status: ('A' for Active; 'I' for Inactive)
REMARK    1  A    between atoms: C_4  and  C_7
REMARK    2  A    between atoms: C_8  and  C_9
REMARK    3  A    between atoms: C_8  and  N_25
REMARK    4  A    between atoms: C_14  and  C_17
REMARK    5  A    between atoms: C_14  and  O_24
REMARK    6  A    between atoms: C_26  and  C_28
REMARK                            x       y       z     vdW  Elec       q    Type
REMARK                         _______ _______ _______ _____ _____    ______ ____
ROOT
ATOM      1  C   UNL     1       2.250   1.893   4.788  0.00  0.00    +0.036 C 
ATOM      2  C   UNL     1       2.035   3.226   4.706  0.00  0.00    +0.097 C 
ENDROOT
BRANCH   2   3
ATOM      3  C   UNL     1       1.387   3.794   3.515  0.00  0.00    +0.261 C 
ATOM      4  O   UNL     1       0.634   4.743   3.627  0.00  0.00    -0.269 OA
ATOM      5  N   UNL     1       1.625   3.262   2.300  0.00  0.00    -0.296 N 
ATOM      6  C   UNL     1       0.938   3.780   1.109  0.00  0.00    +0.111 C 
ATOM      7  C   UNL     1       1.987   4.147   0.055  0.00  0.00    +0.058 C 
ATOM      8  C   UNL     1       2.882   2.934  -0.213  0.00  0.00    +0.094 C 
ATOM      9  C   UNL     1       3.608   2.540   1.075  0.00  0.00    +0.058 C 
ATOM     10  C   UNL     1       2.577   2.155   2.141  0.00  0.00    +0.111 C 
BRANCH   8  11
ATOM     11  C   UNL     1       3.894   3.281  -1.274  0.00  0.00    -0.016 A 
ATOM     12  C   UNL     1       4.337   4.584  -1.406  0.00  0.00    +0.007 A 
ATOM     13  C   UNL     1       5.269   4.902  -2.376  0.00  0.00    +0.015 A 
ATOM     14  C   UNL     1       5.751   3.918  -3.221  0.00  0.00    +0.018 A 
ATOM     15  C   UNL     1       5.303   2.616  -3.092  0.00  0.00    +0.015 A 
ATOM     16  C   UNL     1       4.375   2.298  -2.118  0.00  0.00    +0.007 A 
ATOM     17 BR   UNL     1       7.021   4.354  -4.552  0.00  0.00    -0.050 Br
ENDBRANCH   8  11
BRANCH   8  18
ATOM     18  O   UNL     1       2.079   1.840  -0.660  0.00  0.00    -0.384 OA
ATOM     19  H   UNL     1       2.581   1.035  -0.850  0.00  0.00    +0.211 HD
ENDBRANCH   8  18
ENDBRANCH   2   3
BRANCH   1  23
ATOM     20  C   UNL     1       4.322   0.280   8.120  0.00  0.00    +0.000 A 
ATOM     21  C   UNL     1       3.513  -0.538   7.350  0.00  0.00    +0.001 A 
ATOM     22  C   UNL     1       2.836  -0.021   6.266  0.00  0.00    +0.008 A 
ATOM     23  C   UNL     1       2.969   1.333   5.944  0.00  0.00    -0.023 A 
ATOM     24  C   UNL     1       3.792   2.152   6.724  0.00  0.00    +0.008 A 
ATOM     25  C   UNL     1       4.458   1.622   7.808  0.00  0.00    +0.001 A 
ENDBRANCH   1  23
BRANCH   2  26
ATOM     26  N   UNL     1       2.430   4.063   5.753  0.00  0.00    -0.277 N 
ATOM     27  C   UNL     1       3.247   5.107   5.510  0.00  0.00    +0.248 C 
ATOM     28  O   UNL     1       3.572   5.372   4.369  0.00  0.00    -0.270 OA
ATOM     29  H   UNL     1       2.116   3.893   6.655  0.00  0.00    +0.155 HD
BRANCH  27  30
ATOM     30  C   UNL     1       3.748   5.930   6.630  0.00  0.00    +0.037 A 
ATOM     31  C   UNL     1       3.462   5.570   7.948  0.00  0.00    +0.013 A 
ATOM     32  C   UNL     1       3.938   6.339   8.990  0.00  0.00    +0.001 A 
ATOM     33  C   UNL     1       4.688   7.473   8.730  0.00  0.00    +0.000 A 
ATOM     34  C   UNL     1       4.970   7.840   7.426  0.00  0.00    +0.001 A 
ATOM     35  C   UNL     1       4.505   7.075   6.376  0.00  0.00    +0.013 A 
ENDBRANCH  27  30
ENDBRANCH   2  26
TORSDOF 6
