REMARK  Name = ZINC35024465
REMARK  6 active torsions:
REMARK  status: ('A' for Active; 'I' for Inactive)
REMARK    1  A    between atoms: C_1  and  C_2
REMARK    2  A    between atoms: C_7  and  O_42
REMARK    3  A    between atoms: C_20  and  O_41
REMARK    4  A    between atoms: C_24  and  C_40
REMARK    5  A    between atoms: C_28  and  C_33
REMARK    6  A    between atoms: C_33  and  C_34
REMARK                            x       y       z     vdW  Elec       q    Type
REMARK                         _______ _______ _______ _____ _____    ______ ____
ROOT
ATOM      1  C   UNL     1      -1.373   2.112  -0.180  0.00  0.00    +0.008 C 
ATOM      2  C   UNL     1      -1.497   0.593  -0.268  0.00  0.00    -0.010 C 
ATOM      3  C   UNL     1      -2.929   0.144   0.023  0.00  0.00    +0.003 C 
ATOM      4  C   UNL     1      -3.934   0.920  -0.813  0.00  0.00    +0.003 C 
ATOM      5  C   UNL     1      -4.608   2.034  -0.027  0.00  0.00    +0.035 C 
ATOM      6  C   UNL     1      -4.703   1.715   1.466  0.00  0.00    +0.138 C 
ATOM      7  C   UNL     1      -5.415   2.851   2.152  0.00  0.00    +0.011 C 
ATOM      8  C   UNL     1      -4.791   3.818   2.789  0.00  0.00    +0.090 C 
ATOM      9  C   UNL     1      -3.360   3.963   2.969  0.00  0.00    +0.333 C 
ATOM     10  O   UNL     1      -2.946   5.109   3.043  0.00  0.00    -0.246 OA
ATOM     11  O   UNL     1      -2.454   2.991   3.069  0.00  0.00    -0.444 OA
ATOM     12  C   UNL     1      -1.954   2.634   4.351  0.00  0.00    +0.202 C 
ATOM     13  C   UNL     1      -0.791   1.678   4.178  0.00  0.00    +0.097 C 
ATOM     14  C   UNL     1      -1.017   0.768   3.005  0.00  0.00    -0.020 C 
ATOM     15  C   UNL     1      -0.316   0.881   1.906  0.00  0.00    -0.030 C 
ATOM     16  C   UNL     1      -0.560  -0.058   0.754  0.00  0.00    +0.030 C 
ATOM     17  C   UNL     1       0.542   2.407   4.024  0.00  0.00    +0.151 C 
ATOM     18  C   UNL     1       0.787   3.251   5.251  0.00  0.00    -0.045 C 
ATOM     19  C   UNL     1       2.004   3.519   5.652  0.00  0.00    +0.010 C 
ATOM     20  C   UNL     1      -0.407   3.794   6.020  0.00  0.00    +0.023 C 
ATOM     21  C   UNL     1      -1.593   3.937   5.085  0.00  0.00    +0.070 C 
ATOM     22  C   UNL     1      -2.903   4.249   5.758  0.00  0.00    +0.085 C 
ATOM     23  N   UNL     1      -3.575   2.974   6.006  0.00  0.00    -0.308 N 
ATOM     24  C   UNL     1      -3.101   2.061   5.142  0.00  0.00    +0.258 C 
ATOM     25  O   UNL     1      -3.537   0.935   5.026  0.00  0.00    -0.271 OA
ATOM     26  C   UNL     1      -0.686   2.815   7.159  0.00  0.00    +0.012 C 
ATOM     27  H   UNL     1      -4.244   2.812   6.685  0.00  0.00    +0.149 HD
ENDROOT
BRANCH  17  28
ATOM     28  O   UNL     1       1.602   1.451   3.896  0.00  0.00    -0.387 OA
ATOM     29  H   UNL     1       2.478   1.847   3.795  0.00  0.00    +0.210 HD
ENDBRANCH  17  28
BRANCH   6  30
ATOM     30  O   UNL     1      -5.442   0.508   1.657  0.00  0.00    -0.388 OA
ATOM     31  H   UNL     1      -5.538   0.250   2.584  0.00  0.00    +0.210 HD
ENDBRANCH   6  30
BRANCH  22  32
ATOM     32  C   UNL     1      -2.779   5.086   7.020  0.00  0.00    +0.057 C 
BRANCH  32  33
ATOM     33  C   UNL     1      -4.153   5.447   7.521  0.00  0.00    -0.046 A 
ATOM     34  C   UNL     1      -4.767   6.606   7.084  0.00  0.00    +0.004 A 
ATOM     35  C   UNL     1      -6.028   6.936   7.544  0.00  0.00    +0.000 A 
ATOM     36  C   UNL     1      -6.676   6.107   8.441  0.00  0.00    +0.000 A 
ATOM     37  C   UNL     1      -6.063   4.947   8.877  0.00  0.00    +0.000 A 
ATOM     38  C   UNL     1      -4.804   4.615   8.414  0.00  0.00    +0.004 A 
ENDBRANCH  32  33
ENDBRANCH  22  32
TORSDOF 4
