REMARK  Name = ZINC21163011
REMARK  7 active torsions:
REMARK  status: ('A' for Active; 'I' for Inactive)
REMARK    1  A    between atoms: C_1  and  C_2
REMARK    2  A    between atoms: C_7  and  C_8
REMARK    3  A    between atoms: C_8  and  N_9
REMARK    4  A    between atoms: C_21  and  C_24
REMARK    5  A    between atoms: N_26  and  C_27
REMARK    6  A    between atoms: C_27  and  C_29
REMARK    7  A    between atoms: C_27  and  C_30
REMARK                            x       y       z     vdW  Elec       q    Type
REMARK                         _______ _______ _______ _____ _____    ______ ____
ROOT
ATOM      1  N   UNL     1       2.104   3.938  -0.406  0.00  0.00    -0.309 N 
ATOM      2  C   UNL     1       1.303   2.814  -0.287  0.00  0.00    +0.068 A 
ATOM      3  C   UNL     1       1.484   1.469  -0.571  0.00  0.00    +0.028 A 
ATOM      4  C   UNL     1       0.462   0.573  -0.333  0.00  0.00    +0.002 A 
ATOM      5  C   UNL     1      -0.749   1.009   0.184  0.00  0.00    +0.002 A 
ATOM      6  C   UNL     1      -0.944   2.340   0.478  0.00  0.00    +0.028 A 
ATOM      7  C   UNL     1       0.081   3.260   0.242  0.00  0.00    +0.065 A 
ATOM      8  N   UNL     1       0.188   4.604   0.419  0.00  0.00    -0.327 N 
ATOM      9  C   UNL     1       1.376   5.003   0.039  0.00  0.00    +0.177 A 
ATOM     10  N   UNL     1       1.825   6.307   0.082  0.00  0.00    -0.302 N 
ATOM     11  C   UNL     1       2.828   6.484   1.139  0.00  0.00    +0.108 C 
ATOM     12  C   UNL     1       3.407   7.898   1.063  0.00  0.00    +0.032 C 
ATOM     13  C   UNL     1       2.276   8.917   1.231  0.00  0.00    +0.078 C 
ATOM     14  C   UNL     1       1.222   8.680   0.146  0.00  0.00    +0.032 C 
ATOM     15  C   UNL     1       0.706   7.243   0.249  0.00  0.00    +0.108 C 
ATOM     16  H   UNL     1      -0.659   5.174   0.828  0.00  0.00    +0.169 HD
ENDROOT
BRANCH  13  17
ATOM     17  C   UNL     1       2.832  10.312   1.097  0.00  0.00    +0.216 C 
ATOM     18  O   UNL     1       2.425  11.045   0.221  0.00  0.00    -0.276 OA
ATOM     19  N   UNL     1       3.781  10.744   1.951  0.00  0.00    -0.312 N 
ATOM     20  H   UNL     1       4.150  10.079   2.746  0.00  0.00    +0.149 HD
BRANCH  19  21
ATOM     21  C   UNL     1       4.320  12.100   1.821  0.00  0.00    +0.076 C 
ATOM     22  C   UNL     1       5.453  12.101   0.793  0.00  0.00    +0.028 C 
BRANCH  21  23
ATOM     23  C   UNL     1       4.860  12.566   3.175  0.00  0.00    -0.010 C 
ATOM     24  C   UNL     1       5.969  11.617   3.636  0.00  0.00    +0.012 C 
ATOM     25  C   UNL     1       6.509  12.083   4.989  0.00  0.00    -0.010 C 
ATOM     26  C   UNL     1       7.072  13.499   4.854  0.00  0.00    +0.007 C 
ATOM     27  C   UNL     1       5.964  14.447   4.393  0.00  0.00    -0.010 C 
ATOM     28  C   UNL     1       5.424  13.982   3.039  0.00  0.00    +0.012 C 
ATOM     29  C   UNL     1       4.831  14.446   5.422  0.00  0.00    +0.007 C 
ATOM     30  C   UNL     1       4.268  13.030   5.557  0.00  0.00    -0.010 C 
ATOM     31  C   UNL     1       5.376  12.082   6.018  0.00  0.00    +0.007 C 
ATOM     32  C   UNL     1       3.728  12.564   4.204  0.00  0.00    +0.012 C 
ENDBRANCH  21  23
ENDBRANCH  19  21
ENDBRANCH  13  17
BRANCH   1  33
ATOM     33  C   UNL     1       3.478   3.975  -0.913  0.00  0.00    +0.160 C 
BRANCH  33  40
ATOM     34  C   UNL     1       3.816   6.519  -2.241  0.00  0.00    +0.044 C 
ATOM     35  C   UNL     1       3.617   5.265  -3.054  0.00  0.00    -0.046 A 
ATOM     36  C   UNL     1       3.600   5.332  -4.434  0.00  0.00    +0.004 A 
ATOM     37  C   UNL     1       3.413   4.183  -5.180  0.00  0.00    +0.000 A 
ATOM     38  C   UNL     1       3.247   2.967  -4.544  0.00  0.00    +0.000 A 
ATOM     39  C   UNL     1       3.267   2.899  -3.164  0.00  0.00    +0.005 A 
ATOM     40  C   UNL     1       3.455   4.048  -2.418  0.00  0.00    -0.025 A 
ENDBRANCH  33  40
ENDBRANCH   1  33
TORSDOF 5
