REMARK  Name = ZINC02852761
REMARK  11 active torsions:
REMARK  status: ('A' for Active; 'I' for Inactive)
REMARK    1  A    between atoms: C_1  and  C_2
REMARK    2  A    between atoms: C_5  and  S_8
REMARK    3  A    between atoms: S_8  and  N_11
REMARK    4  A    between atoms: N_11  and  C_12
REMARK    5  A    between atoms: N_11  and  C_13
REMARK    6  A    between atoms: C_18  and  C_19
REMARK    7  A    between atoms: N_21  and  C_22
REMARK    8  A    between atoms: C_27  and  C_28
REMARK    9  A    between atoms: N_30  and  C_31
REMARK   10  A    between atoms: C_31  and  C_33
REMARK   11  A    between atoms: C_31  and  C_34
REMARK                            x       y       z     vdW  Elec       q    Type
REMARK                         _______ _______ _______ _____ _____    ______ ____
ROOT
ATOM      1  C   UNL     1      -1.215   2.143  -2.485  0.00  0.00    +0.250 C 
ATOM      2  O   UNL     1      -0.215   1.452  -2.502  0.00  0.00    -0.270 OA
ATOM      3  N   UNL     1      -1.750   2.583  -3.641  0.00  0.00    -0.281 N 
ATOM      4  H   UNL     1      -2.590   3.068  -3.633  0.00  0.00    +0.155 HD
ENDROOT
BRANCH   1  10
ATOM      5  C   UNL     1      -1.234   2.130   0.010  0.00  0.00    +0.063 A 
ATOM      6  C   UNL     1      -1.832   2.478   1.215  0.00  0.00    +0.025 A 
ATOM      7  C   UNL     1      -3.020   3.180   1.220  0.00  0.00    +0.002 A 
ATOM      8  C   UNL     1      -3.626   3.542   0.027  0.00  0.00    +0.001 A 
ATOM      9  C   UNL     1      -3.048   3.206  -1.178  0.00  0.00    +0.015 A 
ATOM     10  C   UNL     1      -1.842   2.501  -1.199  0.00  0.00    +0.060 A 
BRANCH   5  11
ATOM     11  N   UNL     1      -0.038   1.424   0.003  0.00  0.00    -0.205 N 
ATOM     12  C   UNL     1       1.236   2.140   0.102  0.00  0.00    +0.157 C 
BRANCH  11  13
ATOM     13  S   UNL     1      -0.053  -0.228  -0.110  0.00  0.00    +0.074 S 
ATOM     14  O   UNL     1      -1.328  -0.589  -0.623  0.00  0.00    -0.150 OA
ATOM     15  O   UNL     1       1.159  -0.602  -0.751  0.00  0.00    -0.150 OA
BRANCH  13  20
ATOM     16  C   UNL     1       0.225  -2.405   5.510  0.00  0.00    +0.044 C 
ATOM     17  C   UNL     1       0.155  -1.862   4.106  0.00  0.00    -0.050 A 
ATOM     18  C   UNL     1      -1.072  -1.605   3.524  0.00  0.00    +0.005 A 
ATOM     19  C   UNL     1      -1.135  -1.107   2.236  0.00  0.00    +0.029 A 
ATOM     20  C   UNL     1       0.028  -0.864   1.531  0.00  0.00    +0.109 A 
ATOM     21  C   UNL     1       1.256  -1.125   2.111  0.00  0.00    +0.029 A 
ATOM     22  C   UNL     1       1.319  -1.619   3.401  0.00  0.00    +0.005 A 
ENDBRANCH  13  20
ENDBRANCH  11  13
ENDBRANCH   5  11
ENDBRANCH   1  10
BRANCH   3  23
ATOM     23  C   UNL     1      -1.097   2.342  -4.846  0.00  0.00    +0.046 A 
ATOM     24  C   UNL     1       0.279   2.151  -4.868  0.00  0.00    +0.024 A 
ATOM     25  C   UNL     1       0.924   1.907  -6.064  0.00  0.00    +0.002 A 
ATOM     26  C   UNL     1       0.208   1.861  -7.250  0.00  0.00    +0.001 A 
ATOM     27  C   UNL     1      -1.156   2.053  -7.248  0.00  0.00    +0.015 A 
ATOM     28  C   UNL     1      -1.824   2.296  -6.045  0.00  0.00    +0.058 A 
BRANCH  28  29
ATOM     29  C   UNL     1      -3.284   2.502  -6.035  0.00  0.00    +0.246 C 
ATOM     30  O   UNL     1      -3.849   2.801  -5.001  0.00  0.00    -0.270 OA
ATOM     31  N   UNL     1      -3.993   2.358  -7.173  0.00  0.00    -0.305 N 
ATOM     32  H   UNL     1      -3.542   2.119  -7.998  0.00  0.00    +0.150 HD
BRANCH  31  33
ATOM     33  C   UNL     1      -5.443   2.562  -7.163  0.00  0.00    +0.100 C 
ATOM     34  C   UNL     1      -5.749   4.052  -7.334  0.00  0.00    +0.033 C 
BRANCH  33  35
ATOM     35  C   UNL     1      -6.067   1.788  -8.296  0.00  0.00    -0.027 A 
ATOM     36  C   UNL     1      -5.444   1.745  -9.529  0.00  0.00    +0.005 A 
ATOM     37  C   UNL     1      -6.014   1.031 -10.567  0.00  0.00    +0.000 A 
ATOM     38  C   UNL     1      -7.212   0.368 -10.374  0.00  0.00    +0.000 A 
ATOM     39  C   UNL     1      -7.837   0.416  -9.142  0.00  0.00    +0.000 A 
ATOM     40  C   UNL     1      -7.265   1.126  -8.103  0.00  0.00    +0.005 A 
ENDBRANCH  33  35
ENDBRANCH  31  33
ENDBRANCH  28  29
ENDBRANCH   3  23
TORSDOF 8
