REMARK  Name = ZINC38547398
REMARK  6 active torsions:
REMARK  status: ('A' for Active; 'I' for Inactive)
REMARK    1  A    between atoms: C_1  and  C_2
REMARK    2  A    between atoms: N_8  and  C_9
REMARK    3  A    between atoms: C_9  and  C_11
REMARK    4  A    between atoms: C_9  and  C_17
REMARK    5  A    between atoms: C_21  and  N_22
REMARK    6  A    between atoms: C_23  and  C_25
REMARK                            x       y       z     vdW  Elec       q    Type
REMARK                         _______ _______ _______ _____ _____    ______ ____
ROOT
ATOM      1  C   UNL     1       0.588  -3.083   4.660  0.00  0.00    +0.011 A 
ATOM      2  C   UNL     1       1.423  -2.600   5.668  0.00  0.00    -0.030 A 
ATOM      3  C   UNL     1       1.791  -3.486   6.631  0.00  0.00    -0.005 A 
ATOM      4  S   UNL     1       0.986  -4.992   6.155  0.00  0.00    -0.078 S 
ATOM      5  C   UNL     1       0.181  -4.381   4.682  0.00  0.00    +0.078 A 
ATOM      6  C   UNL     1       2.671  -3.234   7.812  0.00  0.00    +0.043 C 
ATOM      7  C   UNL     1       3.410  -1.906   7.590  0.00  0.00    +0.005 C 
ATOM      8  C   UNL     1       2.396  -0.850   7.138  0.00  0.00    +0.005 C 
ATOM      9  C   UNL     1       1.918  -1.157   5.719  0.00  0.00    +0.036 C 
ENDROOT
BRANCH   5  10
ATOM     10  N   UNL     1      -0.648  -5.059   3.786  0.00  0.00    -0.273 N 
ATOM     11  C   UNL     1      -0.977  -6.346   4.014  0.00  0.00    +0.284 C 
ATOM     12  O   UNL     1      -0.550  -6.917   5.001  0.00  0.00    -0.266 OA
ATOM     13  H   UNL     1      -0.988  -4.603   3.000  0.00  0.00    +0.156 HD
BRANCH  11  14
ATOM     14  C   UNL     1      -1.847  -7.058   3.073  0.00  0.00    +0.189 A 
ATOM     15  C   UNL     1      -2.260  -8.354   3.186  0.00  0.00    +0.054 A 
ATOM     16  C   UNL     1      -3.075  -8.617   2.073  0.00  0.00    +0.042 A 
ATOM     17  C   UNL     1      -3.122  -7.483   1.339  0.00  0.00    +0.196 A 
ATOM     18  O   UNL     1      -2.386  -6.544   1.948  0.00  0.00    -0.458 OA
ENDBRANCH  11  14
ENDBRANCH   5  10
BRANCH   1  19
ATOM     19  C   UNL     1       0.132  -2.168   3.553  0.00  0.00    +0.153 C 
BRANCH  19  27
ATOM     20  C   UNL     1       0.376   1.536   0.019  0.00  0.00    +0.044 C 
ATOM     21  C   UNL     1       0.439   0.030  -0.008  0.00  0.00    -0.046 A 
ATOM     22  C   UNL     1       0.599  -0.652  -1.207  0.00  0.00    +0.021 A 
ATOM     23  C   UNL     1       0.653  -2.031  -1.198  0.00  0.00    +0.084 A 
ATOM     24  N   UNL     1       0.555  -2.705  -0.067  0.00  0.00    -0.350 N 
ATOM     25  C   UNL     1       0.402  -2.091   1.096  0.00  0.00    +0.097 A 
ATOM     26  C   UNL     1       0.344  -0.703   1.161  0.00  0.00    +0.045 A 
ATOM     27  N   UNL     1       0.302  -2.841   2.262  0.00  0.00    -0.318 N 
ATOM     28  H   UNL     1       0.346  -3.809   2.222  0.00  0.00    +0.148 HD
ATOM     29  H   UNL     1       0.596  -3.674  -0.089  0.00  0.00    +0.166 HD
ENDBRANCH  19  27
BRANCH  19  30
ATOM     30  C   UNL     1      -1.321  -1.823   3.752  0.00  0.00    +0.066 A 
ATOM     31  C   UNL     1      -1.707  -0.497   3.806  0.00  0.00    +0.025 A 
ATOM     32  C   UNL     1      -3.046  -0.190   3.990  0.00  0.00    +0.003 A 
ATOM     33  C   UNL     1      -3.952  -1.234   4.112  0.00  0.00    +0.020 A 
ATOM     34  C   UNL     1      -3.492  -2.535   4.047  0.00  0.00    +0.111 A 
ATOM     35  N   UNL     1      -2.210  -2.790   3.866  0.00  0.00    -0.258 NA
ENDBRANCH  19  30
ENDBRANCH   1  19
TORSDOF 5
