REMARK  Name = ZINC08444533
REMARK  7 active torsions:
REMARK  status: ('A' for Active; 'I' for Inactive)
REMARK    1  A    between atoms: C_1  and  C_2
REMARK    2  A    between atoms: C_2  and  C_4
REMARK    3  A    between atoms: C_2  and  O_34
REMARK    4  A    between atoms: C_7  and  N_10
REMARK    5  A    between atoms: C_11  and  C_13
REMARK    6  A    between atoms: C_18  and  C_29
REMARK    7  A    between atoms: C_21  and  C_24
REMARK                            x       y       z     vdW  Elec       q    Type
REMARK                         _______ _______ _______ _____ _____    ______ ____
ROOT
ATOM      1  C   UNL     1       4.712  -2.868   5.670  0.00  0.00    +0.167 A 
ATOM      2  C   UNL     1       6.052  -3.316   5.711  0.00  0.00    +0.112 A 
ATOM      3  C   UNL     1       6.287  -3.784   6.953  0.00  0.00    +0.137 A 
ATOM      4  N   UNL     1       5.141  -3.645   7.684  0.00  0.00    -0.237 N 
ATOM      5  N   UNL     1       4.176  -3.065   6.863  0.00  0.00    -0.163 NA
ATOM      6  C   UNL     1       5.017  -4.053   9.086  0.00  0.00    +0.215 C 
ATOM      7  C   UNL     1       6.135  -5.049   9.414  0.00  0.00    +0.063 C 
ATOM      8  C   UNL     1       7.486  -4.487   8.958  0.00  0.00    +0.111 C 
ATOM      9  N   UNL     1       7.458  -4.330   7.490  0.00  0.00    -0.321 N 
ATOM     10 CL   UNL     1       7.189  -3.271   4.400  0.00  0.00    -0.078 Cl
ATOM     11  H   UNL     1       8.207  -4.591   6.931  0.00  0.00    +0.148 HD
ENDROOT
BRANCH   8  12
ATOM     12  C   UNL     1       7.723  -3.148   9.609  0.00  0.00    +0.010 A 
ATOM     13  C   UNL     1       8.488  -2.847  10.687  0.00  0.00    +0.013 A 
ATOM     14  C   UNL     1       8.558  -1.534  11.112  0.00  0.00    +0.008 A 
ATOM     15  C   UNL     1       7.860  -0.586  10.440  0.00  0.00    +0.045 A 
ATOM     16  S   UNL     1       7.075  -1.548   9.156  0.00  0.00    -0.100 S 
ENDBRANCH   8  12
BRANCH   1  18
ATOM     17  N   UNL     1       2.746  -1.883   4.598  0.00  0.00    -0.280 N 
ATOM     18  C   UNL     1       4.031  -2.276   4.501  0.00  0.00    +0.270 C 
ATOM     19  O   UNL     1       4.630  -2.144   3.452  0.00  0.00    -0.268 OA
ATOM     20  H   UNL     1       2.291  -1.918   5.454  0.00  0.00    +0.155 HD
BRANCH  17  24
ATOM     21  C   UNL     1       0.725  -0.522   1.219  0.00  0.00    -0.019 A 
ATOM     22  C   UNL     1       1.685  -1.509   1.097  0.00  0.00    +0.008 A 
ATOM     23  C   UNL     1       2.357  -1.963   2.216  0.00  0.00    +0.023 A 
ATOM     24  C   UNL     1       2.067  -1.426   3.463  0.00  0.00    +0.034 A 
ATOM     25  C   UNL     1       1.103  -0.434   3.582  0.00  0.00    +0.023 A 
ATOM     26  C   UNL     1       0.438   0.019   2.459  0.00  0.00    +0.008 A 
BRANCH  21  28
ATOM     27  C   UNL     1      -1.201  -0.943  -0.286  0.00  0.00    +0.043 C 
ATOM     28  C   UNL     1      -0.007  -0.029  -0.003  0.00  0.00    +0.141 C 
BRANCH  28  29
ATOM     29  O   UNL     1       0.878  -0.041  -1.125  0.00  0.00    -0.387 OA
ATOM     30  H   UNL     1       0.474   0.265  -1.948  0.00  0.00    +0.210 HD
ENDBRANCH  28  29
ENDBRANCH  21  28
ENDBRANCH  17  24
ENDBRANCH   1  18
BRANCH   6  31
ATOM     31  C   UNL     1       3.656  -4.716   9.309  0.00  0.00    +0.412 C 
ATOM     32  F   UNL     1       3.545  -5.841   8.485  0.00  0.00    -0.168 F 
ATOM     33  F   UNL     1       3.540  -5.105  10.648  0.00  0.00    -0.168 F 
ATOM     34  F   UNL     1       2.639  -3.808   8.997  0.00  0.00    -0.168 F 
ENDBRANCH   6  31
TORSDOF 6
