REMARK  Name = ZINC43213497
REMARK  14 active torsions:
REMARK  status: ('A' for Active; 'I' for Inactive)
REMARK    1  A    between atoms: C_1  and  C_2
REMARK    2  A    between atoms: C_2  and  C_3
REMARK    3  A    between atoms: C_3  and  C_5
REMARK    4  A    between atoms: C_3  and  C_6
REMARK    5  A    between atoms: C_6  and  C_8
REMARK    6  A    between atoms: C_6  and  N_37
REMARK    7  A    between atoms: C_10  and  C_13
REMARK    8  A    between atoms: N_15  and  C_16
REMARK    9  A    between atoms: C_16  and  C_17
REMARK   10  A    between atoms: C_17  and  C_36
REMARK   11  A    between atoms: C_21  and  C_35
REMARK   12  A    between atoms: C_30  and  C_32
REMARK   13  A    between atoms: C_32  and  C_33
REMARK   14  A    between atoms: C_32  and  C_34
REMARK                            x       y       z     vdW  Elec       q    Type
REMARK                         _______ _______ _______ _____ _____    ______ ____
ROOT
ATOM      1  C   UNL     1       6.395  -5.657   4.040  0.00  0.00    +0.111 C 
ENDROOT
BRANCH   1   2
ATOM      2  C   UNL     1       7.242  -5.852   2.784  0.00  0.00    -0.013 C 
ATOM      3  C   UNL     1       7.106  -4.638   1.862  0.00  0.00    +0.008 C 
ATOM      4  C   UNL     1       7.908  -3.446   2.369  0.00  0.00    +0.001 C 
ATOM      5  C   UNL     1       9.386  -3.822   2.491  0.00  0.00    +0.011 C 
ATOM      6  C   UNL     1       9.539  -4.958   3.498  0.00  0.00    -0.003 C 
ATOM      7  C   UNL     1       8.691  -6.149   3.097  0.00  0.00    +0.007 C 
ATOM      8  C   UNL     1       8.879  -7.272   4.114  0.00  0.00    +0.009 C 
ATOM      9  C   UNL     1      10.297  -7.823   3.950  0.00  0.00    +0.036 C 
ATOM     10  C   UNL     1      11.313  -6.728   3.776  0.00  0.00    -0.043 A 
ATOM     11  C   UNL     1      10.985  -5.406   3.564  0.00  0.00    -0.038 A 
ATOM     12  C   UNL     1      11.980  -4.456   3.412  0.00  0.00    +0.005 A 
ATOM     13  C   UNL     1      13.311  -4.822   3.468  0.00  0.00    +0.004 A 
ATOM     14  C   UNL     1      13.647  -6.145   3.680  0.00  0.00    -0.045 A 
ATOM     15  C   UNL     1      12.655  -7.090   3.834  0.00  0.00    +0.007 A 
ATOM     16  C   UNL     1       9.183  -4.433   4.889  0.00  0.00    +0.016 C 
ATOM     17  C   UNL     1       6.654  -7.060   2.015  0.00  0.00    +0.013 C 
BRANCH  14  18
ATOM     18  C   UNL     1      15.097  -6.555   3.741  0.00  0.00    +0.013 C 
ATOM     19  C   UNL     1      15.781  -6.207   2.418  0.00  0.00    +0.012 C 
ATOM     20  C   UNL     1      15.789  -5.811   4.884  0.00  0.00    +0.012 C 
ENDBRANCH  14  18
ENDBRANCH   1   2
BRANCH   1  23
ATOM     21  C   UNL     1       4.052  -5.310   4.611  0.00  0.00    +0.266 C 
ATOM     22  O   UNL     1       4.373  -5.274   5.784  0.00  0.00    -0.268 OA
ATOM     23  N   UNL     1       4.989  -5.497   3.661  0.00  0.00    -0.309 N 
ATOM     24  H   UNL     1       4.733  -5.526   2.726  0.00  0.00    +0.149 HD
BRANCH  21  27
ATOM     25  C   UNL     1       0.847  -4.995   3.032  0.00  0.00    +0.182 A 
ATOM     26  N   UNL     1       2.133  -5.168   2.966  0.00  0.00    -0.210 NA
ATOM     27  C   UNL     1       2.637  -5.150   4.230  0.00  0.00    +0.163 A 
ATOM     28  C   UNL     1       1.588  -4.956   5.075  0.00  0.00    +0.230 A 
ATOM     29  O   UNL     1       0.486  -4.856   4.316  0.00  0.00    -0.449 OA
BRANCH  25  30
ATOM     30  C   UNL     1      -0.089  -4.950   1.852  0.00  0.00    +0.016 C 
BRANCH  30  31
ATOM     31  N   UNL     1      -1.280  -5.759   2.141  0.00  0.00    +0.386 N 
ATOM     32  H   UNL     1      -1.004  -6.714   2.315  0.00  0.00    -0.089 HD
ATOM     33  H   UNL     1      -1.748  -5.391   2.956  0.00  0.00    -0.089 HD
ATOM     34  H   UNL     1      -1.907  -5.729   1.351  0.00  0.00    -0.089 HD
ENDBRANCH  30  31
BRANCH  30  35
ATOM     35  C   UNL     1      -0.508  -3.502   1.589  0.00  0.00    -0.020 C 
ATOM     36  C   UNL     1       0.733  -2.659   1.287  0.00  0.00    +0.006 C 
BRANCH  35  38
ATOM     37  C   UNL     1      -1.975  -2.028   0.204  0.00  0.00    +0.004 C 
ATOM     38  C   UNL     1      -1.459  -3.456   0.391  0.00  0.00    -0.001 C 
ENDBRANCH  35  38
ENDBRANCH  30  35
ENDBRANCH  25  30
ENDBRANCH  21  27
ENDBRANCH   1  23
TORSDOF 8
