REMARK  Name = ZINC02310865
REMARK  9 active torsions:
REMARK  status: ('A' for Active; 'I' for Inactive)
REMARK    1  A    between atoms: C_1  and  C_2
REMARK    2  A    between atoms: C_5  and  C_7
REMARK    3  A    between atoms: C_9  and  C_33
REMARK    4  A    between atoms: C_10  and  S_19
REMARK    5  A    between atoms: S_19  and  C_20
REMARK    6  A    between atoms: C_20  and  C_21
REMARK    7  A    between atoms: N_23  and  C_24
REMARK    8  A    between atoms: C_27  and  C_30
REMARK    9  A    between atoms: C_30  and  C_32
REMARK                            x       y       z     vdW  Elec       q    Type
REMARK                         _______ _______ _______ _____ _____    ______ ____
ROOT
ATOM      1  C   UNL     1       1.685  -3.227  -0.019  0.00  0.00    +0.133 C 
ATOM      2  C   UNL     1       2.486  -3.195  -1.308  0.00  0.00    +0.076 C 
ATOM      3  C   UNL     1       3.865  -3.128  -1.196  0.00  0.00    +0.112 C 
ATOM      4  N   UNL     1       4.484  -3.093  -0.015  0.00  0.00    -0.244 NA
ATOM      5  C   UNL     1       3.895  -3.115   1.155  0.00  0.00    +0.050 C 
ATOM      6  C   UNL     1       2.498  -3.180   1.262  0.00  0.00    +0.032 C 
ATOM      7  C   UNL     1       1.876  -3.203   2.451  0.00  0.00    +0.162 C 
ATOM      8  C   UNL     1       2.651  -3.156   3.741  0.00  0.00    +0.080 C 
ATOM      9  C   UNL     1       4.024  -3.800   3.528  0.00  0.00    +0.014 C 
ATOM     10  C   UNL     1       4.741  -3.067   2.406  0.00  0.00    +0.056 C 
ATOM     11  O   UNL     1       0.530  -3.270   2.492  0.00  0.00    -0.292 OA
ENDROOT
BRANCH   1  16
ATOM     12  C   UNL     1      -0.027   1.517  -0.036  0.00  0.00    +0.086 C 
ATOM     13  C   UNL     1      -0.004   0.010  -0.028  0.00  0.00    +0.102 A 
ATOM     14  C   UNL     1      -1.082  -0.793  -0.019  0.00  0.00    +0.044 A 
ATOM     15  C   UNL     1      -0.602  -2.123  -0.015  0.00  0.00    +0.046 A 
ATOM     16  C   UNL     1       0.741  -2.053  -0.021  0.00  0.00    +0.118 A 
ATOM     17  O   UNL     1       1.098  -0.758  -0.035  0.00  0.00    -0.464 OA
ENDBRANCH   1  16
BRANCH   2  18
ATOM     18  C   UNL     1       1.843  -3.232  -2.587  0.00  0.00    +0.099 C 
ATOM     19  N   UNL     1       1.333  -3.261  -3.601  0.00  0.00    -0.191 NA
ENDBRANCH   2  18
BRANCH   3  20
ATOM     20  S   UNL     1       4.836  -3.089  -2.666  0.00  0.00    -0.096 S 
BRANCH  20  21
ATOM     21  C   UNL     1       6.544  -3.004  -2.061  0.00  0.00    +0.172 C 
BRANCH  21  22
ATOM     22  C   UNL     1       7.490  -2.964  -3.233  0.00  0.00    +0.227 C 
ATOM     23  O   UNL     1       7.056  -2.991  -4.365  0.00  0.00    -0.275 OA
ATOM     24  N   UNL     1       8.820  -2.899  -3.024  0.00  0.00    -0.285 N 
ATOM     25  H   UNL     1       9.165  -2.811  -2.122  0.00  0.00    +0.155 HD
BRANCH  24  26
ATOM     26  C   UNL     1       9.699  -2.959  -4.103  0.00  0.00    +0.033 A 
ATOM     27  C   UNL     1      10.924  -3.606  -3.966  0.00  0.00    +0.024 A 
ATOM     28  C   UNL     1      11.792  -3.668  -5.025  0.00  0.00    +0.013 A 
ATOM     29  C   UNL     1      11.445  -3.077  -6.247  0.00  0.00    +0.017 A 
ATOM     30  C   UNL     1      10.211  -2.427  -6.380  0.00  0.00    +0.013 A 
ATOM     31  C   UNL     1       9.348  -2.375  -5.317  0.00  0.00    +0.024 A 
BRANCH  29  32
ATOM     32  C   UNL     1      12.371  -3.140  -7.385  0.00  0.00    +0.160 C 
ATOM     33  O   UNL     1      13.397  -3.781  -7.297  0.00  0.00    -0.292 OA
ATOM     34  C   UNL     1      12.047  -2.407  -8.661  0.00  0.00    +0.091 C 
ENDBRANCH  29  32
ENDBRANCH  24  26
ENDBRANCH  21  22
ENDBRANCH  20  21
ENDBRANCH   3  20
TORSDOF 7
