REMARK  Name = ZINC08920040
REMARK  8 active torsions:
REMARK  status: ('A' for Active; 'I' for Inactive)
REMARK    1  A    between atoms: C_1  and  C_2
REMARK    2  A    between atoms: C_2  and  C_3
REMARK    3  A    between atoms: C_2  and  C_4
REMARK    4  A    between atoms: C_2  and  C_5
REMARK    5  A    between atoms: N_16  and  C_19
REMARK    6  A    between atoms: C_19  and  C_20
REMARK    7  A    between atoms: N_22  and  C_23
REMARK    8  A    between atoms: C_24  and  C_32
REMARK                            x       y       z     vdW  Elec       q    Type
REMARK                         _______ _______ _______ _____ _____    ______ ____
ROOT
ATOM      1  C   UNL     1       2.412   1.197  -0.013  0.00  0.00    +0.222 C 
ENDROOT
BRANCH   1  12
ATOM      2  C   UNL     1      -5.291   0.496   0.414  0.00  0.00    -0.000 C 
ATOM      3  C   UNL     1      -4.336  -0.351  -0.432  0.00  0.00    +0.009 C 
ATOM      4  C   UNL     1      -2.894  -0.118   0.020  0.00  0.00    +0.037 C 
ATOM      5  C   UNL     1      -2.616   1.383   0.024  0.00  0.00    -0.023 A 
ATOM      6  C   UNL     1      -3.631   2.272   0.033  0.00  0.00    -0.004 A 
ATOM      7  S   UNL     1      -2.849   3.863   0.045  0.00  0.00    -0.073 S 
ATOM      8  C   UNL     1      -1.157   3.327   0.028  0.00  0.00    +0.116 A 
ATOM      9  C   UNL     1      -1.259   1.927   0.018  0.00  0.00    +0.076 A 
ATOM     10  C   UNL     1      -0.015   1.215   0.009  0.00  0.00    +0.263 A 
ATOM     11  O   UNL     1       0.002  -0.004   0.002  0.00  0.00    -0.267 OA
ATOM     12  N   UNL     1       1.135   1.915   0.002  0.00  0.00    -0.290 N 
ATOM     13  C   UNL     1       1.136   3.273   0.007  0.00  0.00    +0.203 A 
ATOM     14  N   UNL     1       0.018   3.949   0.019  0.00  0.00    -0.230 NA
ATOM     15  C   UNL     1      -5.100   1.974   0.041  0.00  0.00    +0.046 C 
BRANCH   2  17
ATOM     16  C   UNL     1      -7.040   0.271  -1.356  0.00  0.00    +0.011 C 
ATOM     17  C   UNL     1      -6.736   0.079   0.131  0.00  0.00    -0.035 C 
ATOM     18  C   UNL     1      -6.923  -1.393   0.504  0.00  0.00    +0.011 C 
ATOM     19  C   UNL     1      -7.688   0.941   0.963  0.00  0.00    +0.011 C 
ENDBRANCH   2  17
ENDBRANCH   1  12
BRANCH   1  20
ATOM     20  C   UNL     1       2.837   0.957  -1.439  0.00  0.00    +0.237 C 
ATOM     21  O   UNL     1       2.142   1.347  -2.353  0.00  0.00    -0.273 OA
ATOM     22  N   UNL     1       3.990   0.309  -1.698  0.00  0.00    -0.278 N 
ATOM     23  H   UNL     1       4.546  -0.003  -0.967  0.00  0.00    +0.155 HD
BRANCH  22  24
ATOM     24  C   UNL     1       4.381   0.088  -3.010  0.00  0.00    +0.084 A 
ATOM     25  C   UNL     1       5.524  -0.548  -3.474  0.00  0.00    +0.068 A 
ATOM     26  C   UNL     1       5.697  -0.654  -4.912  0.00  0.00    -0.023 A 
ATOM     27  C   UNL     1       4.713  -0.100  -5.652  0.00  0.00    -0.004 A 
ATOM     28  S   UNL     1       3.566   0.546  -4.468  0.00  0.00    -0.077 S 
ATOM     29  C   UNL     1       4.625  -0.050  -7.146  0.00  0.00    +0.043 C 
ATOM     30  C   UNL     1       6.005  -0.393  -7.724  0.00  0.00    +0.005 C 
ATOM     31  C   UNL     1       6.533  -1.650  -7.027  0.00  0.00    +0.005 C 
ATOM     32  C   UNL     1       6.893  -1.328  -5.575  0.00  0.00    +0.037 C 
BRANCH  25  33
ATOM     33  C   UNL     1       6.518  -1.098  -2.546  0.00  0.00    +0.244 C 
ATOM     34  O   UNL     1       6.418  -2.248  -2.159  0.00  0.00    -0.270 OA
ATOM     35  N   UNL     1       7.541  -0.330  -2.122  0.00  0.00    -0.325 N 
ATOM     36  H   UNL     1       7.620   0.586  -2.430  0.00  0.00    +0.145 HD
ATOM     37  H   UNL     1       8.198  -0.694  -1.508  0.00  0.00    +0.145 HD
ENDBRANCH  25  33
ENDBRANCH  22  24
ENDBRANCH   1  20
TORSDOF 5
