REMARK  Name = ZINC14160389
REMARK  10 active torsions:
REMARK  status: ('A' for Active; 'I' for Inactive)
REMARK    1  A    between atoms: C_1  and  C_2
REMARK    2  A    between atoms: C_7  and  N_8
REMARK    3  A    between atoms: N_15  and  C_16
REMARK    4  A    between atoms: C_16  and  N_18
REMARK    5  A    between atoms: N_18  and  C_19
REMARK    6  A    between atoms: C_24  and  O_25
REMARK    7  A    between atoms: O_25  and  C_26
REMARK    8  A    between atoms: N_27  and  C_28
REMARK    9  A    between atoms: C_30  and  C_35
REMARK   10  A    between atoms: C_32  and  C_34
REMARK                            x       y       z     vdW  Elec       q    Type
REMARK                         _______ _______ _______ _____ _____    ______ ____
ROOT
ATOM      1  N   UNL     1      -0.696   1.898   2.506  0.00  0.00    -0.327 N 
ATOM      2  C   UNL     1      -1.698   1.124   3.253  0.00  0.00    +0.124 C 
ATOM      3  C   UNL     1      -0.968   0.131   4.166  0.00  0.00    +0.126 C 
ATOM      4  N   UNL     1       0.069   0.856   4.914  0.00  0.00    -0.300 N 
ATOM      5  C   UNL     1       1.070   1.630   4.167  0.00  0.00    +0.126 C 
ATOM      6  C   UNL     1       0.344   2.618   3.253  0.00  0.00    +0.124 C 
ATOM      7  C   UNL     1       0.101   0.812   6.282  0.00  0.00    +0.192 C 
ATOM      8  N   UNL     1       1.117   1.436   6.966  0.00  0.00    -0.269 N 
ATOM      9  N   UNL     1      -0.840   0.171   6.941  0.00  0.00    -0.181 NA
ATOM     10  H   UNL     1       0.909   2.089   7.652  0.00  0.00    +0.156 HD
ENDROOT
BRANCH   1  17
ATOM     11  C   UNL     1      -2.204   3.967   1.266  0.00  0.00    +0.045 C 
ATOM     12  C   UNL     1      -1.453   2.937   0.463  0.00  0.00    -0.029 A 
ATOM     13  C   UNL     1      -1.479   2.983  -0.917  0.00  0.00    +0.006 A 
ATOM     14  C   UNL     1      -0.790   2.039  -1.655  0.00  0.00    +0.020 A 
ATOM     15  C   UNL     1      -0.073   1.044  -1.014  0.00  0.00    +0.043 A 
ATOM     16  C   UNL     1      -0.043   0.992   0.366  0.00  0.00    +0.043 A 
ATOM     17  C   UNL     1      -0.729   1.943   1.110  0.00  0.00    +0.034 A 
ATOM     18 CL   UNL     1       0.790  -0.141  -1.946  0.00  0.00    -0.083 Cl
ENDBRANCH   1  17
BRANCH   9  19
ATOM     19  C   UNL     1      -0.725  -0.010   8.286  0.00  0.00    +0.253 A 
ATOM     20  N   UNL     1       0.303   0.534   8.931  0.00  0.00    -0.216 NA
ATOM     21  C   UNL     1       0.441   0.376  10.236  0.00  0.00    +0.044 A 
ATOM     22  C   UNL     1      -0.501  -0.367  10.932  0.00  0.00    +0.046 A 
ATOM     23  C   UNL     1      -1.561  -0.921  10.231  0.00  0.00    +0.044 A 
ATOM     24  N   UNL     1      -1.647  -0.724   8.927  0.00  0.00    -0.216 NA
ATOM     25  C   UNL     1      -2.606  -1.736  10.949  0.00  0.00    +0.066 C 
ATOM     26  C   UNL     1       1.609   0.996  10.959  0.00  0.00    +0.066 C 
ENDBRANCH   9  19
BRANCH   8  27
ATOM     27  C   UNL     1       2.401   1.141   6.683  0.00  0.00    +0.141 C 
ATOM     28  S   UNL     1       2.767  -0.005   5.465  0.00  0.00    -0.018 S 
BRANCH  27  29
ATOM     29  N   UNL     1       3.397   1.748   7.359  0.00  0.00    -0.294 N 
ATOM     30  H   UNL     1       3.978   1.228   7.936  0.00  0.00    +0.154 HD
BRANCH  29  31
ATOM     31  C   UNL     1       3.592   3.128   7.227  0.00  0.00    +0.075 A 
ATOM     32  C   UNL     1       2.681   3.896   6.516  0.00  0.00    +0.027 A 
ATOM     33  C   UNL     1       2.876   5.258   6.388  0.00  0.00    +0.002 A 
ATOM     34  C   UNL     1       3.978   5.859   6.967  0.00  0.00    +0.004 A 
ATOM     35  C   UNL     1       4.891   5.101   7.676  0.00  0.00    +0.047 A 
ATOM     36  C   UNL     1       4.699   3.736   7.815  0.00  0.00    +0.141 A 
BRANCH  36  37
ATOM     37  O   UNL     1       5.593   2.990   8.518  0.00  0.00    -0.493 OA
ATOM     38  C   UNL     1       6.704   3.681   9.093  0.00  0.00    +0.277 C 
ENDBRANCH  36  37
ENDBRANCH  29  31
ENDBRANCH  27  29
ENDBRANCH   8  27
TORSDOF 6
