REMARK  Name = ZINC15879939
REMARK  4 active torsions:
REMARK  status: ('A' for Active; 'I' for Inactive)
REMARK    1  A    between atoms: C_3  and  S_11
REMARK    2  A    between atoms: C_6  and  C_7
REMARK    3  A    between atoms: S_11  and  N_14
REMARK    4  A    between atoms: C_17  and  N_20
REMARK                            x       y       z     vdW  Elec       q    Type
REMARK                         _______ _______ _______ _____ _____    ______ ____
ROOT
ATOM      1  N   UNL     1      -4.440   6.081   0.800  0.00  0.00    -0.176 NA
ATOM      2  C   UNL     1      -4.725   5.604  -0.560  0.00  0.00    +0.111 C 
ATOM      3  C   UNL     1      -4.776   4.074  -0.545  0.00  0.00    +0.039 C 
ATOM      4  C   UNL     1      -3.476   3.530   0.051  0.00  0.00    +0.076 C 
ATOM      5  C   UNL     1      -3.329   4.022   1.493  0.00  0.00    +0.039 C 
ATOM      6  C   UNL     1      -3.262   5.553   1.501  0.00  0.00    +0.111 C 
ENDROOT
BRANCH   4   7
ATOM      7  N   UNL     1      -3.507   2.065   0.037  0.00  0.00    -0.312 N 
ATOM      8  C   UNL     1      -2.337   1.355   0.022  0.00  0.00    +0.196 A 
ATOM      9  N   UNL     1      -2.377  -0.004   0.009  0.00  0.00    -0.295 N 
ATOM     10  H   UNL     1      -3.346  -0.526   0.006  0.00  0.00    +0.172 HD
ATOM     11  C   UNL     1      -1.224  -0.703  -0.002  0.00  0.00    +0.256 A 
ATOM     12  O   UNL     1      -1.241  -1.923  -0.015  0.00  0.00    -0.267 OA
ATOM     13  C   UNL     1       0.002  -0.004   0.002  0.00  0.00    +0.038 A 
ATOM     14  C   UNL     1      -0.016   1.353   0.009  0.00  0.00    +0.053 A 
ATOM     15  N   UNL     1      -1.189   1.998   0.018  0.00  0.00    -0.221 NA
ATOM     16  C   UNL     1       1.240   2.183   0.002  0.00  0.00    +0.056 C 
ATOM     17  C   UNL     1       2.444   1.341   0.421  0.00  0.00    +0.006 C 
ATOM     18  C   UNL     1       2.457   0.062  -0.425  0.00  0.00    +0.005 C 
ATOM     19  C   UNL     1       1.274  -0.807  -0.001  0.00  0.00    +0.042 C 
ATOM     20  H   UNL     1      -4.471   1.536   0.037  0.00  0.00    +0.149 HD
ENDBRANCH   4   7
BRANCH   1  21
ATOM     21  S   UNL     1      -5.426   7.194   1.528  0.00  0.00    +0.061 S 
ATOM     22  O   UNL     1      -4.641   7.849   2.515  0.00  0.00    -0.153 OA
ATOM     23  O   UNL     1      -6.082   7.901   0.484  0.00  0.00    -0.153 OA
BRANCH  21  26
ATOM     24  C   UNL     1      -7.451   5.219   4.382  0.00  0.00    +0.014 A 
ATOM     25  C   UNL     1      -6.471   5.922   3.705  0.00  0.00    +0.029 A 
ATOM     26  C   UNL     1      -6.674   6.298   2.391  0.00  0.00    +0.106 A 
ATOM     27  C   UNL     1      -7.859   5.977   1.755  0.00  0.00    +0.029 A 
ATOM     28  C   UNL     1      -8.836   5.270   2.430  0.00  0.00    +0.014 A 
ATOM     29  C   UNL     1      -8.633   4.893   3.744  0.00  0.00    +0.055 A 
BRANCH  29  30
ATOM     30  C   UNL     1      -9.701   4.127   4.482  0.00  0.00    +0.417 C 
ATOM     31  F   UNL     1     -10.564   5.025   5.119  0.00  0.00    -0.166 F 
ATOM     32  F   UNL     1     -10.426   3.347   3.575  0.00  0.00    -0.166 F 
ATOM     33  F   UNL     1      -9.103   3.298   5.438  0.00  0.00    -0.166 F 
ENDBRANCH  29  30
ENDBRANCH  21  26
ENDBRANCH   1  21
TORSDOF 4
