REMARK  Name = ZINC14484610
REMARK  9 active torsions:
REMARK  status: ('A' for Active; 'I' for Inactive)
REMARK    1  A    between atoms: C_1  and  C_2
REMARK    2  A    between atoms: C_5  and  S_9
REMARK    3  A    between atoms: C_7  and  C_8
REMARK    4  A    between atoms: S_9  and  N_12
REMARK    5  A    between atoms: N_12  and  C_13
REMARK    6  A    between atoms: C_16  and  C_19
REMARK    7  A    between atoms: N_21  and  C_22
REMARK    8  A    between atoms: C_22  and  C_24
REMARK    9  A    between atoms: C_22  and  C_25
REMARK                            x       y       z     vdW  Elec       q    Type
REMARK                         _______ _______ _______ _____ _____    ______ ____
ROOT
ATOM      1  C   UNL     1       2.413   0.054   0.003  0.00  0.00    +0.048 A 
ATOM      2  C   UNL     1       1.208  -0.639   0.084  0.00  0.00    +0.025 A 
ATOM      3  C   UNL     1       0.018   0.051   0.122  0.00  0.00    +0.015 A 
ATOM      4  C   UNL     1       0.019   1.448   0.080  0.00  0.00    +0.037 A 
ATOM      5  C   UNL     1       1.231   2.141  -0.002  0.00  0.00    +0.015 A 
ATOM      6  C   UNL     1       2.418   1.445  -0.040  0.00  0.00    +0.025 A 
ENDROOT
BRANCH   4   7
ATOM      7  C   UNL     1      -1.255   2.191   0.114  0.00  0.00    +0.245 C 
ATOM      8  O   UNL     1      -2.308   1.587   0.180  0.00  0.00    -0.270 OA
ATOM      9  N   UNL     1      -1.252   3.538   0.073  0.00  0.00    -0.305 N 
ATOM     10  H   UNL     1      -0.411   4.019   0.021  0.00  0.00    +0.150 HD
BRANCH   9  11
ATOM     11  C   UNL     1      -2.517   4.275   0.108  0.00  0.00    +0.101 C 
ATOM     12  C   UNL     1      -2.956   4.466   1.561  0.00  0.00    +0.033 C 
BRANCH  11  13
ATOM     13  C   UNL     1      -2.332   5.621  -0.543  0.00  0.00    -0.024 A 
ATOM     14  C   UNL     1      -1.172   6.340  -0.322  0.00  0.00    +0.009 A 
ATOM     15  C   UNL     1      -0.998   7.576  -0.916  0.00  0.00    +0.050 A 
ATOM     16  C   UNL     1      -1.986   8.098  -1.735  0.00  0.00    +0.166 A 
ATOM     17  C   UNL     1      -3.155   7.373  -1.957  0.00  0.00    +0.167 A 
ATOM     18  C   UNL     1      -3.320   6.133  -1.363  0.00  0.00    +0.055 A 
ATOM     19  O   UNL     1      -3.963   8.093  -2.790  0.00  0.00    -0.453 OA
ATOM     20  C   UNL     1      -3.107   9.077  -3.400  0.00  0.00    +0.466 C 
ATOM     21  O   UNL     1      -2.062   9.271  -2.428  0.00  0.00    -0.453 OA
ENDBRANCH  11  13
ENDBRANCH   9  11
ENDBRANCH   4   7
BRANCH   1  22
ATOM     22  N   UNL     1       3.614  -0.646  -0.035  0.00  0.00    -0.216 N 
ATOM     23  H   UNL     1       3.771  -1.374   0.587  0.00  0.00    +0.174 HD
BRANCH  22  24
ATOM     24  S   UNL     1       4.776  -0.237  -1.142  0.00  0.00    +0.072 S 
ATOM     25  O   UNL     1       4.993   1.160  -1.005  0.00  0.00    -0.150 OA
ATOM     26  O   UNL     1       5.822  -1.188  -1.003  0.00  0.00    -0.150 OA
BRANCH  24  31
ATOM     27  C   UNL     1       2.395  -1.084  -6.621  0.00  0.00    +0.044 C 
ATOM     28  C   UNL     1       2.990  -0.873  -5.253  0.00  0.00    -0.047 A 
ATOM     29  C   UNL     1       3.568  -1.932  -4.579  0.00  0.00    +0.005 A 
ATOM     30  C   UNL     1       4.117  -1.737  -3.326  0.00  0.00    +0.029 A 
ATOM     31  C   UNL     1       4.080  -0.485  -2.742  0.00  0.00    +0.109 A 
ATOM     32  C   UNL     1       3.503   0.575  -3.416  0.00  0.00    +0.032 A 
ATOM     33  C   UNL     1       2.958   0.381  -4.672  0.00  0.00    -0.046 A 
ATOM     34  C   UNL     1       2.328   1.536  -5.406  0.00  0.00    +0.044 C 
ENDBRANCH  24  31
ENDBRANCH  22  24
ENDBRANCH   1  22
TORSDOF 6
