REMARK  Name = ZINC13387839
REMARK  5 active torsions:
REMARK  status: ('A' for Active; 'I' for Inactive)
REMARK    1  A    between atoms: C_4  and  C_7
REMARK    2  A    between atoms: C_10  and  C_29
REMARK    3  A    between atoms: C_16  and  C_18
REMARK    4  A    between atoms: N_20  and  C_21
REMARK    5  A    between atoms: C_21  and  C_22
REMARK                            x       y       z     vdW  Elec       q    Type
REMARK                         _______ _______ _______ _____ _____    ______ ____
ROOT
ATOM      1  C   UNL     1       3.715  -0.705  -0.041  0.00  0.00    +0.139 C 
ATOM      2  C   UNL     1       4.052  -1.166   1.377  0.00  0.00    +0.065 C 
ATOM      3  C   UNL     1       5.368  -1.959   1.366  0.00  0.00    +0.202 C 
ATOM      4  N   UNL     1       5.234  -3.007   0.348  0.00  0.00    -0.224 N 
ATOM      5  C   UNL     1       4.359  -2.901  -0.726  0.00  0.00    +0.150 C 
ATOM      6  N   UNL     1       3.614  -1.856  -0.946  0.00  0.00    -0.259 NA
ATOM      7  C   UNL     1       4.477  -4.146  -1.487  0.00  0.00    +0.086 C 
ATOM      8  C   UNL     1       5.408  -4.911  -0.863  0.00  0.00    +0.124 C 
ATOM      9  N   UNL     1       5.887  -4.230   0.247  0.00  0.00    -0.257 N 
ATOM     10 BR   UNL     1       3.513  -4.603  -3.048  0.00  0.00    -0.045 Br
ATOM     11  H   UNL     1       6.570  -4.555   0.855  0.00  0.00    +0.170 HD
ENDROOT
BRANCH   1  15
ATOM     12  C   UNL     1      -0.010   1.385   0.000  0.00  0.00    +0.000 A 
ATOM     13  C   UNL     1       1.178   2.091  -0.006  0.00  0.00    +0.000 A 
ATOM     14  C   UNL     1       2.384   1.415  -0.019  0.00  0.00    +0.006 A 
ATOM     15  C   UNL     1       2.401   0.032  -0.026  0.00  0.00    -0.023 A 
ATOM     16  C   UNL     1       1.213  -0.674  -0.019  0.00  0.00    +0.006 A 
ATOM     17  C   UNL     1       0.007   0.002  -0.007  0.00  0.00    +0.000 A 
ENDBRANCH   1  15
BRANCH   8  18
ATOM     18  C   UNL     1       5.842  -6.255  -1.296  0.00  0.00    +0.261 C 
ATOM     19  O   UNL     1       5.290  -6.800  -2.232  0.00  0.00    -0.269 OA
ATOM     20  N   UNL     1       6.850  -6.878  -0.654  0.00  0.00    -0.308 N 
ATOM     21  H   UNL     1       7.242  -6.476   0.138  0.00  0.00    +0.149 HD
BRANCH  20  22
ATOM     22  C   UNL     1       7.354  -8.160  -1.151  0.00  0.00    +0.136 C 
BRANCH  22  23
ATOM     23  C   UNL     1       8.489  -8.647  -0.247  0.00  0.00    +0.135 C 
ATOM     24  C   UNL     1       9.107  -9.936  -0.831  0.00  0.00    +0.035 C 
ATOM     25  C   UNL     1       9.373 -10.780   0.445  0.00  0.00    +0.031 C 
ATOM     26  C   UNL     1       8.176 -10.357   1.333  0.00  0.00    +0.160 C 
ATOM     27  O   UNL     1       7.975  -8.961   1.052  0.00  0.00    -0.375 OA
ENDBRANCH  22  23
ENDBRANCH  20  22
ENDBRANCH   8  18
BRANCH   3  28
ATOM     28  C   UNL     1       6.532  -1.032   1.010  0.00  0.00    +0.410 C 
ATOM     29  F   UNL     1       6.620  -0.008   1.960  0.00  0.00    -0.169 F 
ATOM     30  F   UNL     1       7.725  -1.764   1.002  0.00  0.00    -0.169 F 
ATOM     31  F   UNL     1       6.317  -0.477  -0.256  0.00  0.00    -0.169 F 
ENDBRANCH   3  28
TORSDOF 5
