REMARK  Name = ZINC10642449
REMARK  7 active torsions:
REMARK  status: ('A' for Active; 'I' for Inactive)
REMARK    1  A    between atoms: C_1  and  C_2
REMARK    2  A    between atoms: C_5  and  C_7
REMARK    3  A    between atoms: C_9  and  C_17
REMARK    4  A    between atoms: C_11  and  C_16
REMARK    5  A    between atoms: C_22  and  C_25
REMARK    6  A    between atoms: C_28  and  N_31
REMARK    7  A    between atoms: C_32  and  C_34
REMARK                            x       y       z     vdW  Elec       q    Type
REMARK                         _______ _______ _______ _____ _____    ______ ____
ROOT
ATOM      1  C   UNL     1      -2.696   6.571   0.135  0.00  0.00    +0.251 C 
ATOM      2  O   UNL     1      -3.438   5.669   0.470  0.00  0.00    -0.270 OA
ATOM      3  N   UNL     1      -1.373   6.346   0.011  0.00  0.00    -0.261 N 
ATOM      4  C   UNL     1      -0.858   5.082   0.267  0.00  0.00    +0.165 A 
ATOM      5  N   UNL     1       0.392   4.662   0.203  0.00  0.00    -0.225 NA
ATOM      6  C   UNL     1       0.710   3.407   0.484  0.00  0.00    +0.080 A 
ATOM      7  C   UNL     1      -0.274   2.530   0.846  0.00  0.00    +0.076 A 
ATOM      8  S   UNL     1      -1.711   3.591   0.761  0.00  0.00    -0.060 S 
ATOM      9  H   UNL     1      -0.781   7.066  -0.256  0.00  0.00    +0.157 HD
ENDROOT
BRANCH   1  12
ATOM     10  C   UNL     1      -3.090  10.318  -0.083  0.00  0.00    +0.082 A 
ATOM     11  C   UNL     1      -2.531   9.063   0.193  0.00  0.00    +0.042 A 
ATOM     12  C   UNL     1      -3.246   7.918  -0.137  0.00  0.00    +0.053 A 
ATOM     13  C   UNL     1      -4.510   8.078  -0.746  0.00  0.00    +0.076 A 
ATOM     14  C   UNL     1      -5.526   7.147  -1.230  0.00  0.00    +0.091 A 
ATOM     15  N   UNL     1      -6.506   7.855  -1.705  0.00  0.00    -0.080 NA
ATOM     16  O   UNL     1      -6.215   9.230  -1.560  0.00  0.00    -0.334 OA
ATOM     17  C   UNL     1      -5.003   9.373  -0.985  0.00  0.00    +0.260 A 
ATOM     18  N   UNL     1      -4.283  10.432  -0.651  0.00  0.00    -0.209 NA
ATOM     19  C   UNL     1      -5.451   5.643  -1.185  0.00  0.00    +0.070 C 
BRANCH  10  24
ATOM     20  C   UNL     1       0.481  14.346   1.579  0.00  0.00    +0.051 C 
ATOM     21  C   UNL     1      -0.629  13.469   1.060  0.00  0.00    -0.013 A 
ATOM     22  C   UNL     1      -1.812  13.830   0.495  0.00  0.00    +0.011 A 
ATOM     23  C   UNL     1      -2.685  12.850   0.082  0.00  0.00    +0.018 A 
ATOM     24  C   UNL     1      -2.336  11.537   0.265  0.00  0.00    +0.038 A 
ATOM     25  S   UNL     1      -0.728  11.686   1.027  0.00  0.00    -0.092 S 
ENDBRANCH  10  24
ENDBRANCH   1  12
BRANCH   6  26
ATOM     26  C   UNL     1       2.121   2.957   0.405  0.00  0.00    +0.001 A 
ATOM     27  C   UNL     1       2.451   1.637   0.707  0.00  0.00    +0.012 A 
ATOM     28  C   UNL     1       3.763   1.220   0.629  0.00  0.00    +0.024 A 
ATOM     29  C   UNL     1       4.758   2.117   0.260  0.00  0.00    +0.033 A 
ATOM     30  C   UNL     1       4.432   3.436  -0.036  0.00  0.00    +0.024 A 
ATOM     31  C   UNL     1       3.121   3.856   0.036  0.00  0.00    +0.012 A 
BRANCH  29  32
ATOM     32  N   UNL     1       6.089   1.693   0.186  0.00  0.00    -0.286 N 
ATOM     33  C   UNL     1       7.085   2.541   0.510  0.00  0.00    +0.214 C 
ATOM     34  O   UNL     1       6.826   3.641   0.950  0.00  0.00    -0.276 OA
ATOM     35  C   UNL     1       8.521   2.122   0.326  0.00  0.00    +0.109 C 
ATOM     36  H   UNL     1       6.295   0.789  -0.098  0.00  0.00    +0.155 HD
ENDBRANCH  29  32
ENDBRANCH   6  26
TORSDOF 4
