REMARK  Name = ZINC13059450
REMARK  5 active torsions:
REMARK  status: ('A' for Active; 'I' for Inactive)
REMARK    1  A    between atoms: C_3  and  S_9
REMARK    2  A    between atoms: C_6  and  C_7
REMARK    3  A    between atoms: S_9  and  N_12
REMARK    4  A    between atoms: N_12  and  N_13
REMARK    5  A    between atoms: C_14  and  C_16
REMARK                            x       y       z     vdW  Elec       q    Type
REMARK                         _______ _______ _______ _____ _____    ______ ____
ROOT
ATOM      1  N   UNL     1       1.193   1.683  -0.000  0.00  0.00    -0.227 N 
ATOM      2  C   UNL     1       2.123   1.447   0.946  0.00  0.00    +0.265 C 
ATOM      3  O   UNL     1       1.918   0.612   1.807  0.00  0.00    -0.268 OA
ATOM      4  H   UNL     1       1.356   2.349  -0.686  0.00  0.00    +0.171 HD
ENDROOT
BRANCH   2   5
ATOM      5  C   UNL     1       3.382   2.197   0.938  0.00  0.00    +0.076 A 
ATOM      6  C   UNL     1       4.450   2.117   1.804  0.00  0.00    +0.024 A 
ATOM      7  C   UNL     1       5.557   2.937   1.572  0.00  0.00    -0.036 A 
ATOM      8  C   UNL     1       5.470   3.805   0.544  0.00  0.00    -0.006 A 
ATOM      9  S   UNL     1       3.934   3.461  -0.191  0.00  0.00    -0.088 S 
ATOM     10  C   UNL     1       6.365   4.919   0.068  0.00  0.00    +0.043 C 
ATOM     11  C   UNL     1       7.602   5.088   0.951  0.00  0.00    +0.005 C 
ATOM     12  C   UNL     1       8.658   4.051   0.604  0.00  0.00    +0.000 C 
ATOM     13  C   UNL     1       8.063   2.698   0.268  0.00  0.00    +0.000 C 
ATOM     14  C   UNL     1       7.837   1.966   1.594  0.00  0.00    +0.005 C 
ATOM     15  C   UNL     1       6.806   2.738   2.417  0.00  0.00    +0.036 C 
ENDBRANCH   2   5
BRANCH   1  16
ATOM     16  N   UNL     1      -0.011   0.966   0.007  0.00  0.00    -0.108 NA
ATOM     17  H   UNL     1       0.002  -0.004   0.002  0.00  0.00    +0.172 HD
BRANCH  16  18
ATOM     18  S   UNL     1      -1.456   1.774   0.019  0.00  0.00    +0.074 S 
ATOM     19  O   UNL     1      -2.472   0.792  -0.128  0.00  0.00    -0.152 OA
ATOM     20  O   UNL     1      -1.413   2.667   1.123  0.00  0.00    -0.152 OA
BRANCH  18  23
ATOM     21  C   UNL     1      -2.080   3.032  -3.744  0.00  0.00    +0.017 A 
ATOM     22  C   UNL     1      -2.037   2.257  -2.604  0.00  0.00    +0.029 A 
ATOM     23  C   UNL     1      -1.507   2.771  -1.433  0.00  0.00    +0.107 A 
ATOM     24  C   UNL     1      -1.022   4.066  -1.397  0.00  0.00    +0.029 A 
ATOM     25  C   UNL     1      -1.054   4.851  -2.531  0.00  0.00    +0.017 A 
ATOM     26  C   UNL     1      -1.587   4.338  -3.716  0.00  0.00    +0.063 A 
BRANCH  26  27
ATOM     27  C   UNL     1      -1.630   5.174  -4.933  0.00  0.00    +0.387 C 
ATOM     28  O   UNL     1      -2.094   4.725  -5.962  0.00  0.00    -0.241 OA
ATOM     29  O   UNL     1      -1.154   6.433  -4.902  0.00  0.00    -0.241 OA
ENDBRANCH  26  27
ENDBRANCH  18  23
ENDBRANCH  16  18
ENDBRANCH   1  16
TORSDOF 5
