REMARK  Name = ZINC17163798
REMARK  4 active torsions:
REMARK  status: ('A' for Active; 'I' for Inactive)
REMARK    1  A    between atoms: C_1  and  C_2
REMARK    2  A    between atoms: C_7  and  O_18
REMARK    3  A    between atoms: C_9  and  C_17
REMARK    4  A    between atoms: C_14  and  O_16
REMARK                            x       y       z     vdW  Elec       q    Type
REMARK                         _______ _______ _______ _____ _____    ______ ____
ROOT
ATOM      1  C   UNL     1       2.094   5.468   1.360  0.00  0.00    +0.047 C 
ATOM      2  C   UNL     1       0.631   5.019   1.338  0.00  0.00    +0.123 C 
ATOM      3  C   UNL     1      -0.084   5.527   2.592  0.00  0.00    +0.040 C 
ATOM      4  C   UNL     1      -0.118   7.042   2.605  0.00  0.00    +0.003 C 
ATOM      5  C   UNL     1      -0.828   7.567   1.355  0.00  0.00    +0.005 C 
ATOM      6  C   UNL     1      -0.080   7.085   0.110  0.00  0.00    +0.068 C 
ATOM      7  C   UNL     1      -0.054   5.559   0.081  0.00  0.00    +0.197 C 
ATOM      8  O   UNL     1      -1.431   5.063   0.040  0.00  0.00    -0.335 OA
ATOM      9  C   UNL     1      -1.479   3.629   0.031  0.00  0.00    +0.123 C 
ATOM     10  C   UNL     1      -0.763   3.123  -1.224  0.00  0.00    +0.040 C 
ATOM     11  C   UNL     1      -0.755   1.594  -1.230  0.00  0.00    +0.003 C 
ATOM     12  C   UNL     1      -0.013   1.086   0.008  0.00  0.00    +0.005 C 
ATOM     13  C   UNL     1      -0.731   1.580   1.265  0.00  0.00    +0.068 C 
ATOM     14  C   UNL     1      -0.774   3.088   1.276  0.00  0.00    +0.197 C 
ATOM     15  O   UNL     1       0.565   3.587   1.319  0.00  0.00    -0.335 OA
ATOM     16  C   UNL     1      -2.936   3.162   0.018  0.00  0.00    +0.047 C 
ENDROOT
BRANCH  14  17
ATOM     17  O   UNL     1      -1.476   3.524   2.442  0.00  0.00    -0.362 OA
ATOM     18  H   UNL     1      -1.087   3.219   3.273  0.00  0.00    +0.213 HD
ENDBRANCH  14  17
BRANCH   7  19
ATOM     19  O   UNL     1       0.665   5.122  -1.074  0.00  0.00    -0.362 OA
ATOM     20  H   UNL     1       0.288   5.426  -1.911  0.00  0.00    +0.213 HD
ENDBRANCH   7  19
TORSDOF 2
