REMARK  Name = ZINC21625779
REMARK  11 active torsions:
REMARK  status: ('A' for Active; 'I' for Inactive)
REMARK    1  A    between atoms: C_1  and  C_2
REMARK    2  A    between atoms: C_5  and  C_8
REMARK    3  A    between atoms: C_8  and  C_38
REMARK    4  A    between atoms: N_11  and  C_15
REMARK    5  A    between atoms: C_15  and  C_16
REMARK    6  A    between atoms: N_18  and  C_19
REMARK    7  A    between atoms: N_18  and  C_20
REMARK    8  A    between atoms: C_20  and  C_22
REMARK    9  A    between atoms: C_20  and  C_23
REMARK   10  A    between atoms: C_27  and  N_29
REMARK   11  A    between atoms: C_30  and  C_32
REMARK                            x       y       z     vdW  Elec       q    Type
REMARK                         _______ _______ _______ _____ _____    ______ ____
ROOT
ATOM      1  C   UNL     1       1.475   2.451  -0.460  0.00  0.00    +0.234 C 
ATOM      2  O   UNL     1       2.299   1.564  -0.396  0.00  0.00    -0.274 OA
ATOM      3  N   UNL     1       1.857   3.737  -0.330  0.00  0.00    -0.296 N 
ATOM      4  C   UNL     1       0.861   4.809  -0.407  0.00  0.00    +0.132 C 
ENDROOT
BRANCH   3   5
ATOM      5  C   UNL     1       3.268   4.064  -0.112  0.00  0.00    +0.103 C 
ATOM      6  C   UNL     1       3.727   5.074  -1.166  0.00  0.00    +0.033 C 
BRANCH   5   7
ATOM      7  C   UNL     1       3.440   4.658   1.262  0.00  0.00    -0.026 A 
ATOM      8  C   UNL     1       4.399   4.150   2.119  0.00  0.00    +0.005 A 
ATOM      9  C   UNL     1       4.563   4.695   3.379  0.00  0.00    +0.002 A 
ATOM     10  C   UNL     1       3.762   5.743   3.789  0.00  0.00    +0.023 A 
ATOM     11  C   UNL     1       2.795   6.253   2.933  0.00  0.00    +0.034 A 
ATOM     12  C   UNL     1       2.636   5.706   1.666  0.00  0.00    +0.028 A 
BRANCH  11  13
ATOM     13  N   UNL     1       1.982   7.313   3.345  0.00  0.00    -0.281 N 
ATOM     14  C   UNL     1       2.474   8.258   4.171  0.00  0.00    +0.248 C 
ATOM     15  O   UNL     1       3.649   8.240   4.483  0.00  0.00    -0.270 OA
ATOM     16  H   UNL     1       0.941   7.377   2.995  0.00  0.00    +0.155 HD
BRANCH  14  17
ATOM     17  C   UNL     1       1.585   9.315   4.698  0.00  0.00    +0.037 A 
ATOM     18  C   UNL     1       0.237   9.341   4.338  0.00  0.00    +0.013 A 
ATOM     19  C   UNL     1      -0.588  10.327   4.838  0.00  0.00    +0.001 A 
ATOM     20  C   UNL     1      -0.080  11.295   5.685  0.00  0.00    +0.000 A 
ATOM     21  C   UNL     1       1.257  11.278   6.042  0.00  0.00    +0.001 A 
ATOM     22  C   UNL     1       2.092  10.294   5.554  0.00  0.00    +0.013 A 
ENDBRANCH  14  17
ENDBRANCH  11  13
ENDBRANCH   5   7
ENDBRANCH   3   5
BRANCH   1  23
ATOM     23  C   UNL     1       0.023   2.116  -0.684  0.00  0.00    +0.213 C 
BRANCH  23  27
ATOM     24  C   UNL     1      -0.452  -1.550  -0.326  0.00  0.00    +0.135 C 
ATOM     25  C   UNL     1      -0.367  -0.153   0.255  0.00  0.00    +0.251 C 
ATOM     26  O   UNL     1      -0.484   0.165   1.419  0.00  0.00    -0.272 OA
ATOM     27  N   UNL     1      -0.132   0.663  -0.791  0.00  0.00    -0.215 N 
ATOM     28  C   UNL     1      -0.062  -0.017  -1.942  0.00  0.00    +0.310 C 
ATOM     29  O   UNL     1       0.137   0.501  -3.022  0.00  0.00    -0.252 OA
ATOM     30  N   UNL     1      -0.235  -1.340  -1.767  0.00  0.00    -0.281 N 
ATOM     31  C   UNL     1      -1.834  -2.155  -0.072  0.00  0.00    +0.047 C 
ATOM     32  H   UNL     1      -0.240  -2.199  -2.455  0.00  0.00    +0.152 HD
BRANCH  24  37
ATOM     33  C   UNL     1       3.686  -4.926   1.882  0.00  0.00    +0.044 C 
ATOM     34  C   UNL     1       2.607  -4.045   1.306  0.00  0.00    -0.050 A 
ATOM     35  C   UNL     1       2.139  -4.274   0.026  0.00  0.00    +0.004 A 
ATOM     36  C   UNL     1       1.149  -3.466  -0.502  0.00  0.00    +0.006 A 
ATOM     37  C   UNL     1       0.627  -2.431   0.250  0.00  0.00    -0.015 A 
ATOM     38  C   UNL     1       1.099  -2.199   1.529  0.00  0.00    +0.006 A 
ATOM     39  C   UNL     1       2.086  -3.010   2.059  0.00  0.00    +0.004 A 
ENDBRANCH  24  37
ENDBRANCH  23  27
ENDBRANCH   1  23
TORSDOF 7
