REMARK  Name = ZINC64623138
REMARK  7 active torsions:
REMARK  status: ('A' for Active; 'I' for Inactive)
REMARK    1  A    between atoms: C_1  and  O_2
REMARK    2  A    between atoms: O_2  and  C_3
REMARK    3  A    between atoms: C_6  and  C_9
REMARK    4  A    between atoms: N_27  and  C_28
REMARK    5  A    between atoms: C_32  and  C_34
REMARK    6  A    between atoms: C_34  and  O_36
REMARK    7  A    between atoms: O_36  and  C_37
REMARK                            x       y       z     vdW  Elec       q    Type
REMARK                         _______ _______ _______ _____ _____    ______ ____
ROOT
ATOM      1  C   UNL     1      -4.426  -2.450  -0.377  0.00  0.00    +0.134 C 
ATOM      2  C   UNL     1      -4.797  -2.703   1.089  0.00  0.00    +0.131 C 
ATOM      3  C   UNL     1      -4.137  -4.018   1.484  0.00  0.00    -0.035 C 
ATOM      4  C   UNL     1      -3.384  -3.756   2.545  0.00  0.00    +0.001 A 
ATOM      5  C   UNL     1      -2.570  -4.628   3.407  0.00  0.00    +0.030 A 
ATOM      6  C   UNL     1      -1.903  -4.015   4.422  0.00  0.00    +0.042 A 
ATOM      7  C   UNL     1      -1.966  -2.638   4.662  0.00  0.00    +0.022 A 
ATOM      8  C   UNL     1      -2.693  -1.763   3.922  0.00  0.00    +0.027 A 
ATOM      9  C   UNL     1      -3.441  -2.290   2.829  0.00  0.00    +0.043 A 
ATOM     10  N   UNL     1      -4.242  -1.678   1.975  0.00  0.00    -0.375 N 
ATOM     11 CL   UNL     1      -0.925  -4.991   5.473  0.00  0.00    -0.084 Cl
ATOM     12  C   UNL     1      -4.322  -5.288   0.689  0.00  0.00    +0.052 C 
ATOM     13  C   UNL     1      -4.021  -4.938  -0.780  0.00  0.00    +0.114 C 
ATOM     14  N   UNL     1      -4.698  -3.684  -1.131  0.00  0.00    -0.276 N 
ATOM     15  C   UNL     1      -5.577  -3.661  -2.152  0.00  0.00    +0.307 C 
ATOM     16  O   UNL     1      -6.072  -2.608  -2.506  0.00  0.00    -0.252 OA
ATOM     17  N   UNL     1      -5.908  -4.806  -2.782  0.00  0.00    -0.269 N 
ATOM     18  H   UNL     1      -5.564  -5.654  -2.459  0.00  0.00    +0.156 HD
ATOM     19  H   UNL     1      -4.430  -0.728   1.931  0.00  0.00    +0.160 HD
ENDROOT
BRANCH   1  23
ATOM     20  C   UNL     1      -0.279  -1.460  -0.670  0.00  0.00    +0.120 A 
ATOM     21  C   UNL     1      -0.663  -2.742  -0.302  0.00  0.00    +0.046 A 
ATOM     22  C   UNL     1      -2.004  -3.059  -0.208  0.00  0.00    +0.009 A 
ATOM     23  C   UNL     1      -2.963  -2.101  -0.480  0.00  0.00    -0.024 A 
ATOM     24  C   UNL     1      -2.583  -0.824  -0.847  0.00  0.00    +0.009 A 
ATOM     25  C   UNL     1      -1.243  -0.499  -0.937  0.00  0.00    +0.046 A 
BRANCH  20  27
ATOM     26  C   UNL     1       1.977  -2.185  -0.474  0.00  0.00    +0.277 C 
ATOM     27  O   UNL     1       1.040  -1.145  -0.763  0.00  0.00    -0.495 OA
ENDBRANCH  20  27
ENDBRANCH   1  23
BRANCH  17  28
ATOM     28  C   UNL     1      -6.749  -4.772  -3.901  0.00  0.00    +0.036 A 
ATOM     29  C   UNL     1      -7.594  -3.687  -4.102  0.00  0.00    +0.023 A 
ATOM     30  C   UNL     1      -8.425  -3.647  -5.205  0.00  0.00    +0.003 A 
ATOM     31  C   UNL     1      -8.423  -4.686  -6.114  0.00  0.00    +0.015 A 
ATOM     32  C   UNL     1      -7.578  -5.780  -5.921  0.00  0.00    +0.061 A 
ATOM     33  C   UNL     1      -6.734  -5.817  -4.810  0.00  0.00    +0.038 A 
BRANCH  32  34
ATOM     34  C   UNL     1      -7.573  -6.894  -6.893  0.00  0.00    +0.339 C 
ATOM     35  O   UNL     1      -6.837  -7.845  -6.723  0.00  0.00    -0.245 OA
BRANCH  34  36
ATOM     36  O   UNL     1      -8.385  -6.854  -7.967  0.00  0.00    -0.464 OA
ATOM     37  C   UNL     1      -8.329  -7.964  -8.865  0.00  0.00    +0.280 C 
ENDBRANCH  34  36
ENDBRANCH  32  34
ENDBRANCH  17  28
TORSDOF 5
