REMARK  Name = ZINC35485526
REMARK  8 active torsions:
REMARK  status: ('A' for Active; 'I' for Inactive)
REMARK    1  A    between atoms: C_1  and  C_2
REMARK    2  A    between atoms: C_2  and  C_3
REMARK    3  A    between atoms: C_2  and  C_4
REMARK    4  A    between atoms: C_7  and  N_10
REMARK    5  A    between atoms: C_11  and  C_13
REMARK    6  A    between atoms: C_16  and  C_19
REMARK    7  A    between atoms: C_19  and  N_20
REMARK    8  A    between atoms: C_21  and  C_23
REMARK                            x       y       z     vdW  Elec       q    Type
REMARK                         _______ _______ _______ _____ _____    ______ ____
ROOT
ATOM      1  C   UNL     1      -7.236  -3.087  -1.052  0.00  0.00    +0.075 C 
ATOM      2  C   UNL     1      -7.535  -3.989   0.148  0.00  0.00    +0.013 C 
ATOM      3  C   UNL     1      -6.638  -5.227   0.091  0.00  0.00    +0.006 C 
ATOM      4  C   UNL     1      -6.909  -5.995  -1.204  0.00  0.00    +0.006 C 
ATOM      5  C   UNL     1      -6.610  -5.093  -2.404  0.00  0.00    +0.006 C 
ATOM      6  C   UNL     1      -7.507  -3.855  -2.347  0.00  0.00    +0.013 C 
ENDROOT
BRANCH   1   8
ATOM      7  N   UNL     1      -5.320  -1.968   0.042  0.00  0.00    -0.285 N 
ATOM      8  C   UNL     1      -5.790  -2.663  -1.013  0.00  0.00    +0.220 C 
ATOM      9  O   UNL     1      -5.050  -2.946  -1.931  0.00  0.00    -0.275 OA
ATOM     10  H   UNL     1      -5.891  -1.807   0.810  0.00  0.00    +0.155 HD
BRANCH   7  14
ATOM     11  C   UNL     1      -1.418  -0.509   0.005  0.00  0.00    -0.045 A 
ATOM     12  C   UNL     1      -2.137  -0.586  -1.173  0.00  0.00    +0.006 A 
ATOM     13  C   UNL     1      -3.431  -1.069  -1.165  0.00  0.00    +0.023 A 
ATOM     14  C   UNL     1      -4.010  -1.478   0.030  0.00  0.00    +0.033 A 
ATOM     15  C   UNL     1      -3.284  -1.400   1.212  0.00  0.00    +0.023 A 
ATOM     16  C   UNL     1      -1.989  -0.921   1.195  0.00  0.00    +0.006 A 
BRANCH  11  18
ATOM     17  C   UNL     1       0.857  -0.857  -0.919  0.00  0.00    +0.012 C 
ATOM     18  C   UNL     1      -0.006   0.019  -0.008  0.00  0.00    +0.013 C 
ATOM     19  C   UNL     1      -0.004   1.456  -0.532  0.00  0.00    +0.012 C 
ENDBRANCH  11  18
ENDBRANCH   7  14
ENDBRANCH   1   8
BRANCH   4  20
ATOM     20  C   UNL     1      -6.012  -7.233  -1.261  0.00  0.00    +0.107 C 
BRANCH  20  21
ATOM     21  N   UNL     1      -6.354  -8.031  -2.441  0.00  0.00    -0.314 N 
ATOM     22  C   UNL     1      -5.690  -9.175  -2.697  0.00  0.00    +0.230 C 
ATOM     23  O   UNL     1      -4.808  -9.544  -1.950  0.00  0.00    -0.274 OA
ATOM     24  H   UNL     1      -7.060  -7.736  -3.037  0.00  0.00    +0.149 HD
BRANCH  22  25
ATOM     25  C   UNL     1      -6.042  -9.996  -3.910  0.00  0.00    +0.145 C 
ATOM     26  C   UNL     1      -7.283 -10.839  -3.617  0.00  0.00    +0.063 C 
ATOM     27  C   UNL     1      -7.501 -11.836  -4.726  0.00  0.00    -0.041 A 
ATOM     28  C   UNL     1      -8.744 -12.441  -4.837  0.00  0.00    +0.004 A 
ATOM     29  C   UNL     1      -8.985 -13.363  -5.835  0.00  0.00    +0.000 A 
ATOM     30  C   UNL     1      -7.982 -13.684  -6.731  0.00  0.00    +0.000 A 
ATOM     31  C   UNL     1      -6.745 -13.081  -6.623  0.00  0.00    +0.005 A 
ATOM     32  C   UNL     1      -6.502 -12.153  -5.621  0.00  0.00    -0.030 A 
ATOM     33  C   UNL     1      -5.140 -11.514  -5.551  0.00  0.00    +0.117 C 
ATOM     34  N   UNL     1      -4.926 -10.897  -4.239  0.00  0.00    -0.301 NA
ATOM     35  H   UNL     1      -4.045 -10.407  -4.206  0.00  0.00    +0.123 HD
ENDBRANCH  22  25
ENDBRANCH  20  21
ENDBRANCH   4  20
TORSDOF 6
