REMARK  Name = ZINC39884128
REMARK  5 active torsions:
REMARK  status: ('A' for Active; 'I' for Inactive)
REMARK    1  A    between atoms: C_3  and  O_36
REMARK    2  A    between atoms: C_6  and  C_7
REMARK    3  A    between atoms: N_11  and  C_15
REMARK    4  A    between atoms: C_15  and  C_16
REMARK    5  A    between atoms: N_18  and  C_19
REMARK                            x       y       z     vdW  Elec       q    Type
REMARK                         _______ _______ _______ _____ _____    ______ ____
ROOT
ATOM      1  C   UNL     1      -1.338  -0.711   0.176  0.00  0.00    +0.072 C 
ATOM      2  C   UNL     1      -1.335  -1.715   1.295  0.00  0.00    +0.033 A 
ATOM      3  C   UNL     1      -1.065  -3.039   1.260  0.00  0.00    +0.091 A 
ATOM      4  N   UNL     1      -1.170  -3.684   2.467  0.00  0.00    -0.288 N 
ATOM      5  C   UNL     1      -1.504  -2.993   3.574  0.00  0.00    +0.292 A 
ATOM      6  O   UNL     1      -1.634  -3.406   4.713  0.00  0.00    -0.259 OA
ATOM      7  S   UNL     1      -1.696  -1.421   3.006  0.00  0.00    -0.030 S 
ATOM      8  S   UNL     1      -0.596  -3.846  -0.264  0.00  0.00    -0.093 S 
ATOM      9  C   UNL     1      -0.239  -2.399  -1.292  0.00  0.00    +0.153 C 
ATOM     10  C   UNL     1      -1.468  -1.453  -1.128  0.00  0.00    +0.112 C 
ATOM     11  C   UNL     1      -1.428  -0.711  -2.422  0.00  0.00    +0.245 C 
ATOM     12  O   UNL     1      -1.907   0.521  -2.652  0.00  0.00    -0.273 OA
ATOM     13  N   UNL     1      -0.830  -1.497  -3.298  0.00  0.00    -0.145 NA
ATOM     14  C   UNL     1      -0.309  -2.642  -2.776  0.00  0.00    +0.253 C 
ATOM     15  O   UNL     1       0.021  -3.647  -3.372  0.00  0.00    -0.272 OA
ENDROOT
BRANCH   1  21
ATOM     16  C   UNL     1       1.121  -0.539   0.607  0.00  0.00    +0.008 A 
ATOM     17  C   UNL     1       2.304   0.174   0.621  0.00  0.00    +0.045 A 
ATOM     18  C   UNL     1       2.318   1.501   0.215  0.00  0.00    +0.117 A 
ATOM     19  C   UNL     1       1.143   2.108  -0.203  0.00  0.00    +0.045 A 
ATOM     20  C   UNL     1      -0.037   1.391  -0.214  0.00  0.00    +0.008 A 
ATOM     21  C   UNL     1      -0.049   0.069   0.190  0.00  0.00    -0.038 A 
BRANCH  18  22
ATOM     22  O   UNL     1       3.481   2.204   0.228  0.00  0.00    -0.507 OA
ATOM     23  H   UNL     1       3.981   2.152  -0.598  0.00  0.00    +0.292 HD
ENDBRANCH  18  22
ENDBRANCH   1  21
BRANCH   4  24
ATOM     24  C   UNL     1      -0.920  -5.125   2.552  0.00  0.00    +0.222 C 
BRANCH  24  25
ATOM     25  C   UNL     1       0.541  -5.366   2.836  0.00  0.00    +0.237 C 
ATOM     26  O   UNL     1       1.298  -4.426   2.956  0.00  0.00    -0.274 OA
ATOM     27  N   UNL     1       1.005  -6.625   2.956  0.00  0.00    -0.284 N 
ATOM     28  H   UNL     1       0.417  -7.377   2.785  0.00  0.00    +0.155 HD
BRANCH  27  29
ATOM     29  C   UNL     1       2.337  -6.847   3.329  0.00  0.00    +0.034 A 
ATOM     30  C   UNL     1       3.026  -7.942   2.825  0.00  0.00    +0.026 A 
ATOM     31  C   UNL     1       4.339  -8.160   3.194  0.00  0.00    +0.040 A 
ATOM     32  C   UNL     1       4.968  -7.287   4.065  0.00  0.00    +0.124 A 
ATOM     33  C   UNL     1       4.283  -6.194   4.568  0.00  0.00    +0.040 A 
ATOM     34  C   UNL     1       2.971  -5.970   4.197  0.00  0.00    +0.026 A 
ATOM     35  F   UNL     1       6.253  -7.502   4.425  0.00  0.00    -0.205 F 
ENDBRANCH  27  29
ENDBRANCH  24  25
ENDBRANCH   4  24
TORSDOF 5
