REMARK  Name = ZINC46751138
REMARK  9 active torsions:
REMARK  status: ('A' for Active; 'I' for Inactive)
REMARK    1  A    between atoms: C_1  and  C_2
REMARK    2  A    between atoms: N_8  and  C_9
REMARK    3  A    between atoms: C_9  and  C_10
REMARK    4  A    between atoms: C_10  and  C_11
REMARK    5  A    between atoms: C_11  and  C_12
REMARK    6  A    between atoms: C_12  and  N_13
REMARK    7  A    between atoms: N_16  and  N_17
REMARK    8  A    between atoms: N_17  and  C_18
REMARK    9  A    between atoms: C_18  and  C_25
REMARK                            x       y       z     vdW  Elec       q    Type
REMARK                         _______ _______ _______ _____ _____    ______ ____
ROOT
ATOM      1  N   UNL     1       6.221   0.443   3.874  0.00  0.00    -0.298 N 
ATOM      2  C   UNL     1       7.026   0.217   4.931  0.00  0.00    +0.313 C 
ATOM      3  O   UNL     1       6.634  -0.461   5.861  0.00  0.00    -0.252 OA
ATOM      4  N   UNL     1       8.267   0.743   4.956  0.00  0.00    -0.234 N 
ATOM      5  H   UNL     1       6.533   0.983   3.132  0.00  0.00    +0.150 HD
ATOM      6  H   UNL     1       8.847   0.581   5.716  0.00  0.00    +0.171 HD
ENDROOT
BRANCH   4   7
ATOM      7  N   UNL     1       8.708   1.504   3.911  0.00  0.00    -0.232 NA
ATOM      8  H   UNL     1       8.642   0.997   3.041  0.00  0.00    +0.145 HD
BRANCH   7   9
ATOM      9  C   UNL     1      10.080   1.974   4.144  0.00  0.00    +0.054 C 
ATOM     10  C   UNL     1      10.120   2.732   5.470  0.00  0.00    +0.047 C 
ATOM     11  C   UNL     1      11.246   3.803   5.445  0.00  0.00    +0.168 C 
ATOM     12  S   UNL     1      11.057   4.407   3.710  0.00  0.00    -0.029 S 
ATOM     13  O   UNL     1       9.987   5.340   3.654  0.00  0.00    -0.174 OA
ATOM     14  O   UNL     1      12.333   4.770   3.200  0.00  0.00    -0.174 OA
ATOM     15  C   UNL     1      10.523   2.824   2.937  0.00  0.00    +0.189 C 
ATOM     16  C   UNL     1      11.002   0.757   4.250  0.00  0.00    +0.031 C 
ENDBRANCH   7   9
ENDBRANCH   4   7
BRANCH   1  17
ATOM     17  C   UNL     1       4.872  -0.129   3.846  0.00  0.00    +0.105 C 
BRANCH  17  18
ATOM     18  C   UNL     1       4.173   0.276   2.547  0.00  0.00    +0.017 C 
BRANCH  18  19
ATOM     19  C   UNL     1       2.764  -0.321   2.518  0.00  0.00    -0.017 C 
BRANCH  19  20
ATOM     20  C   UNL     1       2.066   0.083   1.218  0.00  0.00    -0.078 C 
BRANCH  20  27
ATOM     21  C   UNL     1      -0.019   1.526   0.010  0.00  0.00    -0.013 C 
ATOM     22  C   UNL     1       0.002  -0.004   0.002  0.00  0.00    -0.072 C 
ATOM     23  C   UNL     1      -1.434  -0.533   0.011  0.00  0.00    -0.016 C 
ATOM     24  C   UNL     1      -1.408  -2.064   0.003  0.00  0.00    -0.003 C 
ATOM     25  C   UNL     1      -0.600  -2.558   1.206  0.00  0.00    -0.019 C 
ATOM     26  C   UNL     1       0.805  -1.954   1.152  0.00  0.00    -0.078 C 
ATOM     27  N   UNL     1       0.713  -0.490   1.191  0.00  0.00    +0.381 N 
ATOM     28  H   UNL     1       0.213  -0.206   2.020  0.00  0.00    -0.081 HD
ENDBRANCH  20  27
ENDBRANCH  19  20
ENDBRANCH  18  19
ENDBRANCH  17  18
ENDBRANCH   1  17
TORSDOF 7
