REMARK  Name = ZINC16100718
REMARK  4 active torsions:
REMARK  status: ('A' for Active; 'I' for Inactive)
REMARK    1  A    between atoms: C_6  and  S_7
REMARK    2  A    between atoms: S_7  and  N_10
REMARK    3  A    between atoms: N_10  and  N_11
REMARK    4  A    between atoms: C_12  and  C_14
REMARK                            x       y       z     vdW  Elec       q    Type
REMARK                         _______ _______ _______ _____ _____    ______ ____
ROOT
ATOM      1  N   UNL     1       4.337  -1.074  -1.641  0.00  0.00    -0.108 NA
ATOM      2  H   UNL     1       4.449  -1.973  -1.987  0.00  0.00    +0.172 HD
ENDROOT
BRANCH   1   3
ATOM      3  N   UNL     1       4.519   0.030  -2.485  0.00  0.00    -0.227 N 
ATOM      4  C   UNL     1       5.673   0.174  -3.166  0.00  0.00    +0.265 C 
ATOM      5  O   UNL     1       6.556  -0.654  -3.049  0.00  0.00    -0.268 OA
ATOM      6  H   UNL     1       3.814   0.690  -2.578  0.00  0.00    +0.171 HD
BRANCH   4   7
ATOM      7  C   UNL     1       5.862   1.329  -4.049  0.00  0.00    +0.076 A 
ATOM      8  C   UNL     1       6.952   1.665  -4.822  0.00  0.00    +0.024 A 
ATOM      9  C   UNL     1       6.882   2.823  -5.599  0.00  0.00    -0.036 A 
ATOM     10  C   UNL     1       5.767   3.571  -5.484  0.00  0.00    -0.006 A 
ATOM     11  S   UNL     1       4.748   2.674  -4.401  0.00  0.00    -0.088 S 
ATOM     12  C   UNL     1       5.378   4.920  -6.032  0.00  0.00    +0.043 C 
ATOM     13  C   UNL     1       6.493   5.551  -6.867  0.00  0.00    +0.005 C 
ATOM     14  C   UNL     1       6.520   4.957  -8.266  0.00  0.00    +0.000 C 
ATOM     15  C   UNL     1       6.219   3.471  -8.279  0.00  0.00    +0.000 C 
ATOM     16  C   UNL     1       7.536   2.745  -7.989  0.00  0.00    +0.005 C 
ATOM     17  C   UNL     1       8.007   3.114  -6.583  0.00  0.00    +0.036 C 
ENDBRANCH   4   7
ENDBRANCH   1   3
BRANCH   1  18
ATOM     18  S   UNL     1       3.931  -0.843  -0.052  0.00  0.00    +0.074 S 
ATOM     19  O   UNL     1       4.904   0.038   0.492  0.00  0.00    -0.152 OA
ATOM     20  O   UNL     1       3.679  -2.131   0.494  0.00  0.00    -0.152 OA
BRANCH  18  26
ATOM     21  C   UNL     1       1.208  -0.680  -0.016  0.00  0.00    +0.032 A 
ATOM     22  C   UNL     1       0.002  -0.004   0.002  0.00  0.00    +0.051 A 
ATOM     23  C   UNL     1      -0.017   1.382   0.010  0.00  0.00    +0.162 A 
ATOM     24  C   UNL     1       1.180   2.090   0.002  0.00  0.00    +0.164 A 
ATOM     25  C   UNL     1       2.386   1.406  -0.017  0.00  0.00    +0.078 A 
ATOM     26  C   UNL     1       2.397   0.023  -0.027  0.00  0.00    +0.110 A 
ATOM     27  O   UNL     1       1.184   3.451   0.018  0.00  0.00    -0.485 OA
ATOM     28  C   UNL     1      -0.040   4.103  -0.340  0.00  0.00    +0.270 C 
ATOM     29  C   UNL     1      -1.188   3.413   0.408  0.00  0.00    +0.270 C 
ATOM     30  O   UNL     1      -1.211   2.034   0.019  0.00  0.00    -0.485 OA
ENDBRANCH  18  26
ENDBRANCH   1  18
TORSDOF 4
