REMARK  Name = ZINC13355306
REMARK  8 active torsions:
REMARK  status: ('A' for Active; 'I' for Inactive)
REMARK    1  A    between atoms: C_3  and  C_6
REMARK    2  A    between atoms: C_6  and  C_7
REMARK    3  A    between atoms: C_10  and  S_18
REMARK    4  A    between atoms: N_11  and  C_12
REMARK    5  A    between atoms: S_18  and  C_19
REMARK    6  A    between atoms: C_19  and  C_20
REMARK    7  A    between atoms: N_22  and  C_23
REMARK    8  A    between atoms: C_26  and  C_29
REMARK                            x       y       z     vdW  Elec       q    Type
REMARK                         _______ _______ _______ _____ _____    ______ ____
ROOT
ATOM      1  C   UNL     1      -1.281   2.846  -1.540  0.00  0.00    +0.139 A 
ATOM      2  N   UNL     1      -2.269   2.294  -2.187  0.00  0.00    -0.133 NA
ATOM      3  N   UNL     1      -2.399   2.839  -3.344  0.00  0.00    -0.122 NA
ATOM      4  C   UNL     1      -1.493   3.777  -3.499  0.00  0.00    +0.192 A 
ATOM      5  N   UNL     1      -0.755   3.814  -2.350  0.00  0.00    -0.303 N 
ENDROOT
BRANCH   5   6
ATOM      6  C   UNL     1       0.370   4.703  -2.050  0.00  0.00    +0.091 C 
ATOM      7  C   UNL     1      -0.101   6.158  -2.108  0.00  0.00    +0.025 C 
ATOM      8  C   UNL     1       1.073   7.087  -1.794  0.00  0.00    +0.002 C 
ATOM      9  C   UNL     1       2.185   6.869  -2.823  0.00  0.00    +0.000 C 
ATOM     10  C   UNL     1       2.656   5.414  -2.764  0.00  0.00    +0.002 C 
ATOM     11  C   UNL     1       1.481   4.485  -3.078  0.00  0.00    +0.025 C 
ENDBRANCH   5   6
BRANCH   1  12
ATOM     12  C   UNL     1      -0.811   2.488  -0.154  0.00  0.00    +0.118 C 
BRANCH  12  15
ATOM     13  C   UNL     1       2.365   0.402  -0.432  0.00  0.00    +0.008 A 
ATOM     14  C   UNL     1       1.585   1.542  -0.362  0.00  0.00    +0.011 A 
ATOM     15  C   UNL     1       0.241   1.413  -0.243  0.00  0.00    -0.003 A 
ATOM     16  S   UNL     1       0.041  -0.361  -0.226  0.00  0.00    -0.101 S 
ATOM     17  C   UNL     1       1.761  -0.811  -0.379  0.00  0.00    +0.045 A 
ENDBRANCH  12  15
ENDBRANCH   1  12
BRANCH   4  18
ATOM     18  S   UNL     1      -1.275   4.799  -4.917  0.00  0.00    -0.077 S 
BRANCH  18  19
ATOM     19  C   UNL     1      -2.604   4.163  -5.970  0.00  0.00    +0.173 C 
BRANCH  19  20
ATOM     20  C   UNL     1      -2.610   4.912  -7.277  0.00  0.00    +0.227 C 
ATOM     21  O   UNL     1      -1.797   5.788  -7.478  0.00  0.00    -0.275 OA
ATOM     22  N   UNL     1      -3.520   4.606  -8.224  0.00  0.00    -0.285 N 
ATOM     23  H   UNL     1      -4.120   3.856  -8.095  0.00  0.00    +0.155 HD
BRANCH  22  24
ATOM     24  C   UNL     1      -3.598   5.370  -9.388  0.00  0.00    +0.033 A 
ATOM     25  C   UNL     1      -3.330   6.735  -9.342  0.00  0.00    +0.024 A 
ATOM     26  C   UNL     1      -3.402   7.491 -10.490  0.00  0.00    +0.017 A 
ATOM     27  C   UNL     1      -3.753   6.888 -11.701  0.00  0.00    +0.063 A 
ATOM     28  C   UNL     1      -4.027   5.517 -11.743  0.00  0.00    +0.017 A 
ATOM     29  C   UNL     1      -3.948   4.766 -10.592  0.00  0.00    +0.024 A 
BRANCH  27  30
ATOM     30  C   UNL     1      -3.836   7.695 -12.932  0.00  0.00    +0.387 C 
ATOM     31  O   UNL     1      -4.141   7.170 -13.984  0.00  0.00    -0.241 OA
ATOM     32  O   UNL     1      -3.572   9.016 -12.891  0.00  0.00    -0.241 OA
ENDBRANCH  27  30
ENDBRANCH  22  24
ENDBRANCH  19  20
ENDBRANCH  18  19
ENDBRANCH   4  18
TORSDOF 8
