REMARK  Name = ZINC40368168
REMARK  11 active torsions:
REMARK  status: ('A' for Active; 'I' for Inactive)
REMARK    1  A    between atoms: C_1  and  C_2
REMARK    2  A    between atoms: C_2  and  N_3
REMARK    3  A    between atoms: N_3  and  C_4
REMARK    4  A    between atoms: C_4  and  C_5
REMARK    5  A    between atoms: C_6  and  C_8
REMARK    6  A    between atoms: C_9  and  C_36
REMARK    7  A    between atoms: C_13  and  C_15
REMARK    8  A    between atoms: C_19  and  N_21
REMARK    9  A    between atoms: C_22  and  C_24
REMARK   10  A    between atoms: C_28  and  O_30
REMARK   11  A    between atoms: O_30  and  C_31
REMARK                            x       y       z     vdW  Elec       q    Type
REMARK                         _______ _______ _______ _____ _____    ______ ____
ROOT
ATOM      1  C   UNL     1      -1.546  -0.485  -2.115  0.00  0.00    +0.058 C 
ATOM      2  C   UNL     1      -2.369  -0.670  -3.184  0.00  0.00    +0.025 C 
ATOM      3  N   UNL     1      -3.693  -0.635  -3.043  0.00  0.00    -0.341 N 
ATOM      4  C   UNL     1      -4.266  -0.679  -1.852  0.00  0.00    +0.135 C 
ATOM      5  N   UNL     1      -3.509  -0.732  -0.719  0.00  0.00    -0.300 N 
ATOM      6  C   UNL     1      -2.145  -0.180  -0.763  0.00  0.00    +0.143 C 
ATOM      7  C   UNL     1      -3.974  -1.339   0.521  0.00  0.00    +0.109 C 
ATOM      8  C   UNL     1      -5.397  -0.933   0.876  0.00  0.00    +0.030 C 
ATOM      9  C   UNL     1      -6.364  -1.492  -0.176  0.00  0.00    +0.078 C 
ATOM     10  S   UNL     1      -6.029  -0.635  -1.744  0.00  0.00    -0.092 S 
ATOM     11  C   UNL     1      -1.774  -0.920  -4.545  0.00  0.00    +0.064 C 
ATOM     12  H   UNL     1      -4.251  -0.576  -3.835  0.00  0.00    +0.167 HD
ENDROOT
BRANCH   6  13
ATOM     13  C   UNL     1      -2.201   1.312  -0.559  0.00  0.00    -0.021 A 
ATOM     14  C   UNL     1      -3.271   2.038  -1.052  0.00  0.00    +0.006 A 
ATOM     15  C   UNL     1      -3.325   3.407  -0.866  0.00  0.00    +0.002 A 
ATOM     16  C   UNL     1      -2.311   4.054  -0.188  0.00  0.00    +0.023 A 
ATOM     17  C   UNL     1      -1.236   3.329   0.308  0.00  0.00    +0.034 A 
ATOM     18  C   UNL     1      -1.187   1.953   0.125  0.00  0.00    +0.029 A 
BRANCH  17  19
ATOM     19  N   UNL     1      -0.207   3.982   0.995  0.00  0.00    -0.281 N 
ATOM     20  C   UNL     1      -0.487   5.045   1.775  0.00  0.00    +0.248 C 
ATOM     21  O   UNL     1      -1.642   5.375   1.962  0.00  0.00    -0.270 OA
ATOM     22  H   UNL     1       0.707   3.670   0.910  0.00  0.00    +0.155 HD
BRANCH  20  23
ATOM     23  C   UNL     1       0.611   5.810   2.403  0.00  0.00    +0.040 A 
ATOM     24  C   UNL     1       1.939   5.437   2.185  0.00  0.00    +0.013 A 
ATOM     25  C   UNL     1       2.961   6.153   2.772  0.00  0.00    +0.004 A 
ATOM     26  C   UNL     1       2.676   7.241   3.577  0.00  0.00    +0.045 A 
ATOM     27  C   UNL     1       1.359   7.619   3.800  0.00  0.00    +0.121 A 
ATOM     28  C   UNL     1       0.325   6.911   3.210  0.00  0.00    +0.058 A 
BRANCH  27  29
ATOM     29  O   UNL     1       1.084   8.688   4.593  0.00  0.00    -0.495 OA
ATOM     30  C   UNL     1       2.199   9.376   5.164  0.00  0.00    +0.277 C 
ENDBRANCH  27  29
ENDBRANCH  20  23
ENDBRANCH  17  19
ENDBRANCH   6  13
BRANCH   1  32
ATOM     31  N   UNL     1       0.441  -1.792  -2.299  0.00  0.00    -0.298 N 
ATOM     32  C   UNL     1      -0.151  -0.582  -2.268  0.00  0.00    +0.246 C 
ATOM     33  O   UNL     1       0.523   0.428  -2.372  0.00  0.00    -0.270 OA
BRANCH  31  35
ATOM     34  C   UNL     1      -0.705  -3.378  -0.831  0.00  0.00    +0.024 C 
ATOM     35  C   UNL     1      -0.376  -3.008  -2.279  0.00  0.00    +0.104 C 
ENDBRANCH  31  35
BRANCH  31  36
ATOM     36  C   UNL     1       1.902  -1.893  -2.353  0.00  0.00    +0.104 C 
ATOM     37  C   UNL     1       2.358  -1.916  -3.813  0.00  0.00    +0.024 C 
ENDBRANCH  31  36
ENDBRANCH   1  32
TORSDOF 7
