REMARK  Name = ZINC09311000
REMARK  8 active torsions:
REMARK  status: ('A' for Active; 'I' for Inactive)
REMARK    1  A    between atoms: C_4  and  C_7
REMARK    2  A    between atoms: C_7  and  N_9
REMARK    3  A    between atoms: C_10  and  C_11
REMARK    4  A    between atoms: C_12  and  C_23
REMARK    5  A    between atoms: N_14  and  C_17
REMARK    6  A    between atoms: C_15  and  O_16
REMARK    7  A    between atoms: C_23  and  S_24
REMARK    8  A    between atoms: S_24  and  C_25
REMARK                            x       y       z     vdW  Elec       q    Type
REMARK                         _______ _______ _______ _____ _____    ______ ____
ROOT
ATOM      1  C   UNL     1       4.861  -4.089  -0.527  0.00  0.00    +0.097 A 
ATOM      2  C   UNL     1       5.024  -5.188   0.351  0.00  0.00    +0.087 A 
ATOM      3  N   UNL     1       4.953  -6.284  -0.351  0.00  0.00    -0.167 NA
ATOM      4  N   UNL     1       4.744  -5.957  -1.695  0.00  0.00    -0.200 N 
ATOM      5  C   UNL     1       4.681  -4.613  -1.804  0.00  0.00    +0.226 A 
ENDROOT
BRANCH   4   6
ATOM      6  C   UNL     1       4.615  -6.871  -2.749  0.00  0.00    +0.069 A 
ATOM      7  C   UNL     1       3.758  -6.597  -3.807  0.00  0.00    +0.028 A 
ATOM      8  C   UNL     1       3.633  -7.500  -4.845  0.00  0.00    +0.002 A 
ATOM      9  C   UNL     1       4.361  -8.676  -4.831  0.00  0.00    +0.000 A 
ATOM     10  C   UNL     1       5.215  -8.952  -3.779  0.00  0.00    +0.002 A 
ATOM     11  C   UNL     1       5.349  -8.050  -2.742  0.00  0.00    +0.028 A 
ENDBRANCH   4   6
BRANCH   1  13
ATOM     12  N   UNL     1       3.743  -2.063   0.180  0.00  0.00    -0.161 NA
ATOM     13  C   UNL     1       4.873  -2.670  -0.160  0.00  0.00    +0.123 C 
ATOM     14  N   UNL     1       6.049  -1.970  -0.168  0.00  0.00    -0.344 N 
ATOM     15  H   UNL     1       6.045  -1.012  -0.017  0.00  0.00    +0.144 HD
ATOM     16  H   UNL     1       6.887  -2.433  -0.324  0.00  0.00    +0.144 HD
BRANCH  12  17
ATOM     17  C   UNL     1       3.768  -0.802   0.629  0.00  0.00    +0.269 C 
ATOM     18  O   UNL     1       4.429  -0.518   1.612  0.00  0.00    -0.268 OA
BRANCH  17  22
ATOM     19  C   UNL     1       1.547   2.213  -1.381  0.00  0.00    +0.000 A 
ATOM     20  C   UNL     1       2.296   2.538  -0.264  0.00  0.00    +0.001 A 
ATOM     21  C   UNL     1       3.019   1.564   0.393  0.00  0.00    +0.013 A 
ATOM     22  C   UNL     1       2.994   0.249  -0.071  0.00  0.00    +0.039 A 
ATOM     23  C   UNL     1       2.237  -0.072  -1.198  0.00  0.00    +0.013 A 
ATOM     24  C   UNL     1       1.518   0.911  -1.846  0.00  0.00    +0.001 A 
ENDBRANCH  17  22
ENDBRANCH  12  17
ENDBRANCH   1  13
BRANCH   5  25
ATOM     25  O   UNL     1       4.483  -3.908  -2.942  0.00  0.00    -0.492 OA
ATOM     26  H   UNL     1       5.298  -3.675  -3.407  0.00  0.00    +0.294 HD
ENDBRANCH   5  25
BRANCH   2  27
ATOM     27  C   UNL     1       5.243  -5.105   1.840  0.00  0.00    +0.132 C 
BRANCH  27  28
ATOM     28  S   UNL     1       3.640  -5.122   2.688  0.00  0.00    -0.119 S 
BRANCH  28  29
ATOM     29  C   UNL     1       4.061  -5.021   4.396  0.00  0.00    +0.008 A 
ATOM     30  C   UNL     1       5.394  -4.946   4.782  0.00  0.00    +0.016 A 
ATOM     31  C   UNL     1       5.720  -4.866   6.121  0.00  0.00    +0.021 A 
ATOM     32  C   UNL     1       4.721  -4.861   7.079  0.00  0.00    +0.041 A 
ATOM     33  C   UNL     1       3.393  -4.936   6.699  0.00  0.00    +0.021 A 
ATOM     34  C   UNL     1       3.060  -5.010   5.361  0.00  0.00    +0.016 A 
ATOM     35 CL   UNL     1       5.136  -4.761   8.762  0.00  0.00    -0.084 Cl
ENDBRANCH  28  29
ENDBRANCH  27  28
ENDBRANCH   2  27
TORSDOF 8
