REMARK  Name = ZINC10255673
REMARK  2 active torsions:
REMARK  status: ('A' for Active; 'I' for Inactive)
REMARK    1  A    between atoms: C_8  and  C_20
REMARK    2  A    between atoms: C_11  and  C_13
REMARK                            x       y       z     vdW  Elec       q    Type
REMARK                         _______ _______ _______ _____ _____    ______ ____
ROOT
ATOM      1  C   UNL     1       0.368  -0.507  -1.089  0.00  0.00    +0.000 A 
ATOM      2  C   UNL     1       1.380  -0.882  -0.223  0.00  0.00    +0.002 A 
ATOM      3  C   UNL     1       2.493  -0.084  -0.069  0.00  0.00    +0.024 A 
ATOM      4  C   UNL     1       2.608   1.110  -0.786  0.00  0.00    +0.041 A 
ATOM      5  C   UNL     1       1.589   1.476  -1.651  0.00  0.00    -0.024 A 
ATOM      6  C   UNL     1       0.475   0.672  -1.802  0.00  0.00    +0.005 A 
ATOM      7  C   UNL     1       1.956   2.794  -2.295  0.00  0.00    +0.069 C 
ATOM      8  C   UNL     1       3.325   3.151  -1.693  0.00  0.00    +0.171 C 
ATOM      9  N   UNL     1       3.639   2.053  -0.776  0.00  0.00    -0.255 N 
ATOM     10  C   UNL     1       4.760   1.964  -0.032  0.00  0.00    +0.252 C 
ATOM     11  O   UNL     1       4.908   1.033   0.735  0.00  0.00    -0.270 OA
ENDROOT
BRANCH  10  12
ATOM     12  C   UNL     1       5.807   3.001  -0.147  0.00  0.00    +0.038 A 
ATOM     13  C   UNL     1       5.459   4.353  -0.143  0.00  0.00    +0.013 A 
ATOM     14  C   UNL     1       6.442   5.316  -0.247  0.00  0.00    +0.002 A 
ATOM     15  C   UNL     1       7.769   4.944  -0.364  0.00  0.00    +0.015 A 
ATOM     16  C   UNL     1       8.121   3.605  -0.374  0.00  0.00    +0.019 A 
ATOM     17  C   UNL     1       7.148   2.632  -0.267  0.00  0.00    +0.028 A 
ATOM     18 BR   UNL     1       9.938   3.108  -0.536  0.00  0.00    -0.050 Br
ENDBRANCH  10  12
BRANCH   8  19
ATOM     19  C   UNL     1       4.366   3.241  -2.779  0.00  0.00    +0.232 C 
ATOM     20  O   UNL     1       5.294   2.460  -2.795  0.00  0.00    -0.274 OA
ATOM     21  N   UNL     1       4.266   4.188  -3.732  0.00  0.00    -0.328 N 
ATOM     22  H   UNL     1       3.523   4.812  -3.719  0.00  0.00    +0.145 HD
ATOM     23  H   UNL     1       4.936   4.246  -4.431  0.00  0.00    +0.145 HD
ENDBRANCH   8  19
TORSDOF 2
