REMARK  Name = ZINC36065056
REMARK  13 active torsions:
REMARK  status: ('A' for Active; 'I' for Inactive)
REMARK    1  A    between atoms: C_1  and  C_2
REMARK    2  A    between atoms: C_2  and  C_3
REMARK    3  A    between atoms: C_2  and  O_4
REMARK    4  A    between atoms: O_4  and  C_5
REMARK    5  A    between atoms: C_5  and  C_7
REMARK    6  A    between atoms: C_8  and  C_33
REMARK    7  A    between atoms: C_12  and  C_14
REMARK    8  A    between atoms: C_19  and  O_20
REMARK    9  A    between atoms: O_20  and  C_21
REMARK   10  A    between atoms: C_22  and  C_25
REMARK   11  A    between atoms: C_26  and  N_28
REMARK   12  A    between atoms: N_28  and  C_29
REMARK   13  A    between atoms: C_29  and  C_30
REMARK                            x       y       z     vdW  Elec       q    Type
REMARK                         _______ _______ _______ _____ _____    ______ ____
ROOT
ATOM      1  C   UNL     1      -3.829  -0.799  -1.415  0.00  0.00    +0.092 C 
ATOM      2  C   UNL     1      -4.782  -1.102  -2.369  0.00  0.00    +0.158 C 
ATOM      3  N   UNL     1      -5.978  -1.536  -2.007  0.00  0.00    -0.220 NA
ATOM      4  C   UNL     1      -6.367  -1.717  -0.762  0.00  0.00    +0.166 C 
ATOM      5  N   UNL     1      -5.577  -1.476   0.327  0.00  0.00    -0.267 N 
ATOM      6  C   UNL     1      -4.202  -0.987   0.039  0.00  0.00    +0.153 C 
ATOM      7  C   UNL     1      -6.131  -1.715   1.569  0.00  0.00    +0.048 C 
ATOM      8  C   UNL     1      -7.404  -2.166   1.611  0.00  0.00    +0.072 C 
ATOM      9  S   UNL     1      -7.822  -2.252  -0.119  0.00  0.00    -0.060 S 
ENDROOT
BRANCH   6  10
ATOM     10  C   UNL     1      -4.030   0.337   0.738  0.00  0.00    +0.020 A 
ATOM     11  C   UNL     1      -5.100   1.204   0.850  0.00  0.00    +0.009 A 
ATOM     12  C   UNL     1      -4.942   2.419   1.491  0.00  0.00    +0.001 A 
ATOM     13  C   UNL     1      -3.713   2.769   2.021  0.00  0.00    +0.004 A 
ATOM     14  C   UNL     1      -2.641   1.906   1.911  0.00  0.00    +0.046 A 
ATOM     15  C   UNL     1      -2.798   0.684   1.273  0.00  0.00    +0.125 A 
BRANCH  15  16
ATOM     16  O   UNL     1      -1.746  -0.170   1.169  0.00  0.00    -0.495 OA
ATOM     17  C   UNL     1      -0.535   0.209   1.827  0.00  0.00    +0.277 C 
ENDBRANCH  15  16
ENDBRANCH   6  10
BRANCH   2  18
ATOM     18  C   UNL     1      -4.456  -0.936  -3.830  0.00  0.00    +0.435 C 
ATOM     19  F   UNL     1      -3.103  -0.610  -3.973  0.00  0.00    -0.164 F 
ATOM     20  F   UNL     1      -4.721  -2.131  -4.506  0.00  0.00    -0.164 F 
ATOM     21  F   UNL     1      -5.242   0.089  -4.370  0.00  0.00    -0.164 F 
ENDBRANCH   2  18
BRANCH   7  22
ATOM     22  C   UNL     1      -5.363  -1.488   2.801  0.00  0.00    +0.091 C 
ATOM     23  C   UNL     1      -5.871  -1.865   3.991  0.00  0.00    +0.239 C 
ATOM     24  O   UNL     1      -7.025  -2.573   4.041  0.00  0.00    -0.271 OA
BRANCH  23  25
ATOM     25  N   UNL     1      -5.214  -1.528   5.162  0.00  0.00    -0.312 N 
ATOM     26  H   UNL     1      -4.387  -1.021   5.126  0.00  0.00    +0.149 HD
BRANCH  25  27
ATOM     27  C   UNL     1      -5.766  -1.937   6.455  0.00  0.00    +0.108 C 
BRANCH  27  28
ATOM     28  C   UNL     1      -4.854  -1.442   7.580  0.00  0.00    +0.006 C 
ATOM     29  C   UNL     1      -5.434  -0.424   8.564  0.00  0.00    +0.005 C 
ATOM     30  C   UNL     1      -5.197  -1.869   9.008  0.00  0.00    +0.005 C 
ENDBRANCH  27  28
ENDBRANCH  25  27
ENDBRANCH  23  25
ENDBRANCH   7  22
BRANCH   1  31
ATOM     31  C   UNL     1      -2.559  -0.338  -1.782  0.00  0.00    +0.340 C 
ATOM     32  O   UNL     1      -1.622  -1.115  -1.839  0.00  0.00    -0.245 OA
BRANCH  31  33
ATOM     33  O   UNL     1      -2.372   0.968  -2.072  0.00  0.00    -0.459 OA
BRANCH  33  35
ATOM     34  C   UNL     1      -0.752   1.343  -3.826  0.00  0.00    +0.052 C 
ATOM     35  C   UNL     1      -1.030   1.391  -2.322  0.00  0.00    +0.171 C 
ATOM     36  C   UNL     1      -0.844   2.823  -1.815  0.00  0.00    +0.052 C 
ENDBRANCH  33  35
ENDBRANCH  31  33
ENDBRANCH   1  31
TORSDOF 10
