REMARK  Name = ZINC58376881
REMARK  6 active torsions:
REMARK  status: ('A' for Active; 'I' for Inactive)
REMARK    1  A    between atoms: C_1  and  C_2
REMARK    2  A    between atoms: N_5  and  C_11
REMARK    3  A    between atoms: C_7  and  C_10
REMARK    4  A    between atoms: C_14  and  N_18
REMARK    5  A    between atoms: N_21  and  C_22
REMARK    6  A    between atoms: C_31  and  C_33
REMARK                            x       y       z     vdW  Elec       q    Type
REMARK                         _______ _______ _______ _____ _____    ______ ____
ROOT
ATOM      1  N   UNL     1      -4.169  -5.289  -3.318  0.00  0.00    -0.269 N 
ATOM      2  C   UNL     1      -3.514  -6.149  -4.123  0.00  0.00    +0.308 C 
ATOM      3  O   UNL     1      -2.298  -6.151  -4.149  0.00  0.00    -0.252 OA
ATOM      4  N   UNL     1      -4.205  -7.005  -4.901  0.00  0.00    -0.269 N 
ATOM      5  H   UNL     1      -5.135  -5.338  -3.241  0.00  0.00    +0.156 HD
ATOM      6  H   UNL     1      -5.173  -6.954  -4.937  0.00  0.00    +0.156 HD
ENDROOT
BRANCH   4   7
ATOM      7  C   UNL     1      -3.526  -7.971  -5.655  0.00  0.00    +0.035 A 
ATOM      8  C   UNL     1      -2.351  -8.533  -5.174  0.00  0.00    +0.025 A 
ATOM      9  C   UNL     1      -1.684  -9.483  -5.916  0.00  0.00    +0.025 A 
ATOM     10  C   UNL     1      -2.182  -9.888  -7.156  0.00  0.00    +0.040 A 
ATOM     11  C   UNL     1      -3.355  -9.323  -7.630  0.00  0.00    -0.023 A 
ATOM     12  C   UNL     1      -4.028  -8.375  -6.885  0.00  0.00    +0.028 A 
ATOM     13  C   UNL     1      -3.671  -9.929  -8.979  0.00  0.00    +0.056 C 
ATOM     14  C   UNL     1      -2.528 -10.925  -9.234  0.00  0.00    +0.118 C 
ATOM     15  N   UNL     1      -1.662 -10.827  -8.056  0.00  0.00    -0.271 N 
ATOM     16  C   UNL     1      -0.532 -11.536  -7.866  0.00  0.00    +0.217 C 
ATOM     17  O   UNL     1       0.068 -11.451  -6.816  0.00  0.00    -0.276 OA
ATOM     18  C   UNL     1      -0.014 -12.435  -8.959  0.00  0.00    +0.109 C 
ENDBRANCH   4   7
BRANCH   1  22
ATOM     19  C   UNL     1      -2.044  -2.421  -1.159  0.00  0.00    +0.066 A 
ATOM     20  C   UNL     1      -1.599  -2.817  -2.413  0.00  0.00    +0.028 A 
ATOM     21  C   UNL     1      -2.303  -3.767  -3.127  0.00  0.00    +0.025 A 
ATOM     22  C   UNL     1      -3.456  -4.326  -2.592  0.00  0.00    +0.038 A 
ATOM     23  C   UNL     1      -3.902  -3.931  -1.338  0.00  0.00    +0.063 A 
ATOM     24  C   UNL     1      -3.195  -2.985  -0.619  0.00  0.00    +0.146 A 
ATOM     25  F   UNL     1      -3.625  -2.605   0.603  0.00  0.00    -0.203 F 
BRANCH  19  29
ATOM     26  C   UNL     1      -0.589   2.234  -0.798  0.00  0.00    +0.039 C 
ATOM     27  C   UNL     1      -0.331   0.727  -0.844  0.00  0.00    +0.133 C 
ATOM     28  C   UNL     1      -1.638  -0.025  -0.571  0.00  0.00    +0.136 C 
ATOM     29  N   UNL     1      -1.330  -1.458  -0.434  0.00  0.00    -0.323 N 
ATOM     30  C   UNL     1      -0.250  -1.848   0.486  0.00  0.00    +0.136 C 
ATOM     31  C   UNL     1       0.990  -1.008   0.161  0.00  0.00    +0.133 C 
ATOM     32  O   UNL     1       0.632   0.377   0.153  0.00  0.00    -0.371 OA
ATOM     33  C   UNL     1       1.530  -1.404  -1.215  0.00  0.00    +0.039 C 
ENDBRANCH  19  29
ENDBRANCH   1  22
TORSDOF 3
