REMARK  Name = ZINC06507101
REMARK  6 active torsions:
REMARK  status: ('A' for Active; 'I' for Inactive)
REMARK    1  A    between atoms: C_1  and  C_2
REMARK    2  A    between atoms: C_9  and  N_29
REMARK    3  A    between atoms: C_10  and  C_27
REMARK    4  A    between atoms: C_17  and  O_19
REMARK    5  A    between atoms: O_19  and  C_20
REMARK    6  A    between atoms: C_20  and  C_21
REMARK                            x       y       z     vdW  Elec       q    Type
REMARK                         _______ _______ _______ _____ _____    ______ ____
ROOT
ATOM      1  C   UNL     1      -0.018   1.503   0.010  0.00  0.00    +0.065 C 
ATOM      2  C   UNL     1       0.002  -0.004   0.002  0.00  0.00    +0.041 A 
ATOM      3  C   UNL     1       0.008  -0.790  -1.085  0.00  0.00    +0.048 A 
ATOM      4  C   UNL     1       0.029  -2.135  -0.654  0.00  0.00    +0.245 A 
ATOM      5  N   UNL     1       0.034  -2.141   0.647  0.00  0.00    -0.135 NA
ATOM      6  N   UNL     1       0.024  -0.808   1.090  0.00  0.00    -0.278 N 
ATOM      7  H   UNL     1       0.029  -0.516   2.015  0.00  0.00    +0.189 HD
ATOM      8  O   UNL     1       0.043  -3.173  -1.533  0.00  0.00    -0.422 OA
ATOM      9  C   UNL     1       0.305  -2.891  -2.825  0.00  0.00    +0.200 C 
ATOM     10  C   UNL     1       0.302  -1.649  -3.352  0.00  0.00    +0.097 C 
ATOM     11  C   UNL     1      -0.006  -0.415  -2.544  0.00  0.00    +0.045 C 
ATOM     12  C   UNL     1      -1.386   0.121  -2.925  0.00  0.00    +0.036 C 
ATOM     13  C   UNL     1      -1.404   0.463  -4.418  0.00  0.00    +0.112 C 
ATOM     14  N   UNL     1      -0.297   1.384  -4.706  0.00  0.00    -0.267 N 
ATOM     15  C   UNL     1       1.063   1.001  -4.303  0.00  0.00    +0.112 C 
ATOM     16  C   UNL     1       1.056   0.654  -2.811  0.00  0.00    +0.036 C 
ATOM     17  C   UNL     1      -0.524   2.558  -5.328  0.00  0.00    +0.403 C 
ATOM     18  O   UNL     1      -1.653   2.864  -5.656  0.00  0.00    -0.226 OA
ENDROOT
BRANCH   9  19
ATOM     19  N   UNL     1       0.596  -3.940  -3.661  0.00  0.00    -0.328 N 
ATOM     20  H   UNL     1       0.608  -4.846  -3.316  0.00  0.00    +0.145 HD
ATOM     21  H   UNL     1       0.790  -3.774  -4.597  0.00  0.00    +0.145 HD
ENDBRANCH   9  19
BRANCH  10  22
ATOM     22  C   UNL     1       0.605  -1.496  -4.744  0.00  0.00    +0.101 C 
ATOM     23  N   UNL     1       0.845  -1.376  -5.847  0.00  0.00    -0.191 NA
ENDBRANCH  10  22
BRANCH  17  24
ATOM     24  O   UNL     1       0.501   3.393  -5.585  0.00  0.00    -0.445 OA
BRANCH  24  25
ATOM     25  C   UNL     1       0.188   4.620  -6.246  0.00  0.00    +0.269 C 
BRANCH  25  26
ATOM     26  C   UNL     1       1.450   5.419  -6.448  0.00  0.00    -0.010 A 
ATOM     27  C   UNL     1       1.866   6.311  -5.477  0.00  0.00    +0.007 A 
ATOM     28  C   UNL     1       3.024   7.043  -5.662  0.00  0.00    +0.000 A 
ATOM     29  C   UNL     1       3.765   6.883  -6.818  0.00  0.00    +0.000 A 
ATOM     30  C   UNL     1       3.349   5.991  -7.788  0.00  0.00    +0.000 A 
ATOM     31  C   UNL     1       2.194   5.255  -7.601  0.00  0.00    +0.007 A 
ENDBRANCH  25  26
ENDBRANCH  24  25
ENDBRANCH  17  24
TORSDOF 5
