REMARK  Name = ZINC21337465
REMARK  6 active torsions:
REMARK  status: ('A' for Active; 'I' for Inactive)
REMARK    1  A    between atoms: C_1  and  N_2
REMARK    2  A    between atoms: N_5  and  C_8
REMARK    3  A    between atoms: C_9  and  N_10
REMARK    4  A    between atoms: N_10  and  C_11
REMARK    5  A    between atoms: N_17  and  C_26
REMARK    6  A    between atoms: C_30  and  C_32
REMARK                            x       y       z     vdW  Elec       q    Type
REMARK                         _______ _______ _______ _____ _____    ______ ____
ROOT
ATOM      1  C   UNL     1      -2.078  -0.676  -0.270  0.00  0.00    +0.039 C 
ATOM      2  C   UNL     1      -2.445  -0.528   1.192  0.00  0.00    +0.112 C 
ATOM      3  N   UNL     1      -2.028  -1.652   1.864  0.00  0.00    -0.253 N 
ATOM      4  C   UNL     1      -1.428  -2.559   1.082  0.00  0.00    +0.073 C 
ATOM      5  S   UNL     1      -0.841  -3.962   1.576  0.00  0.00    -0.038 S 
ATOM      6  C   UNL     1      -1.392  -2.050  -0.337  0.00  0.00    +0.056 C 
ATOM      7  C   UNL     1       0.047  -1.897  -0.816  0.00  0.00    +0.019 C 
ATOM      8  C   UNL     1       0.055  -1.337  -2.241  0.00  0.00    +0.001 C 
ATOM      9  C   UNL     1      -0.709  -2.289  -3.165  0.00  0.00    +0.000 C 
ATOM     10  C   UNL     1      -2.156  -2.418  -2.684  0.00  0.00    +0.001 C 
ATOM     11  C   UNL     1      -2.171  -2.981  -1.261  0.00  0.00    +0.019 C 
ENDROOT
BRANCH   1  16
ATOM     12  C   UNL     1       0.916   4.057  -1.006  0.00  0.00    +0.105 C 
ATOM     13  N   UNL     1      -0.014   2.996  -0.597  0.00  0.00    -0.302 NA
ATOM     14  C   UNL     1      -0.871   2.585  -1.718  0.00  0.00    +0.101 C 
ATOM     15  C   UNL     1      -1.875   1.538  -1.232  0.00  0.00    +0.100 C 
ATOM     16  N   UNL     1      -1.149   0.386  -0.679  0.00  0.00    -0.391 NA
ATOM     17  C   UNL     1      -0.291   0.796   0.442  0.00  0.00    +0.100 C 
ATOM     18  C   UNL     1       0.713   1.844  -0.044  0.00  0.00    +0.101 C 
ATOM     19  H   UNL     1      -0.501  -0.020  -1.470  0.00  0.00    +0.126 HD
ENDBRANCH   1  16
BRANCH   3  20
ATOM     20  C   UNL     1      -2.216  -1.833   3.240  0.00  0.00    +0.041 A 
ATOM     21  C   UNL     1      -1.431  -1.134   4.148  0.00  0.00    +0.024 A 
ATOM     22  C   UNL     1      -1.623  -1.310   5.504  0.00  0.00    +0.002 A 
ATOM     23  C   UNL     1      -2.588  -2.190   5.959  0.00  0.00    +0.012 A 
ATOM     24  C   UNL     1      -3.367  -2.892   5.058  0.00  0.00    +0.057 A 
ATOM     25  C   UNL     1      -3.184  -2.716   3.700  0.00  0.00    +0.036 A 
BRANCH  24  26
ATOM     26  C   UNL     1      -4.417  -3.850   5.558  0.00  0.00    +0.417 C 
ATOM     27  F   UNL     1      -3.855  -5.123   5.705  0.00  0.00    -0.166 F 
ATOM     28  F   UNL     1      -4.902  -3.408   6.793  0.00  0.00    -0.166 F 
ATOM     29  F   UNL     1      -5.470  -3.909   4.638  0.00  0.00    -0.166 F 
ENDBRANCH  24  26
ENDBRANCH   3  20
BRANCH   2  30
ATOM     30  N   UNL     1      -3.048   0.487   1.717  0.00  0.00    -0.328 N 
ATOM     31  H   UNL     1      -3.112   1.435   1.164  0.00  0.00    +0.148 HD
BRANCH  30  32
ATOM     32  C   UNL     1      -3.648   0.373   3.049  0.00  0.00    +0.072 C 
ATOM     33  C   UNL     1      -5.130   0.743   2.974  0.00  0.00    +0.022 C 
ATOM     34  C   UNL     1      -5.757   0.625   4.365  0.00  0.00    +0.002 C 
ATOM     35  C   UNL     1      -5.042   1.575   5.329  0.00  0.00    +0.000 C 
ATOM     36  C   UNL     1      -3.559   1.205   5.404  0.00  0.00    +0.002 C 
ATOM     37  C   UNL     1      -2.933   1.323   4.012  0.00  0.00    +0.022 C 
ENDBRANCH  30  32
ENDBRANCH   2  30
TORSDOF 5
