REMARK  Name = ZINC44855680
REMARK  8 active torsions:
REMARK  status: ('A' for Active; 'I' for Inactive)
REMARK    1  A    between atoms: C_1  and  C_2
REMARK    2  A    between atoms: C_2  and  C_32
REMARK    3  A    between atoms: C_4  and  N_15
REMARK    4  A    between atoms: C_9  and  O_13
REMARK    5  A    between atoms: O_13  and  C_14
REMARK    6  A    between atoms: C_16  and  C_18
REMARK    7  A    between atoms: N_21  and  C_24
REMARK    8  A    between atoms: C_24  and  C_25
REMARK                            x       y       z     vdW  Elec       q    Type
REMARK                         _______ _______ _______ _____ _____    ______ ____
ROOT
ATOM      1  N   UNL     1      -3.410  -0.632   1.478  0.00  0.00    -0.308 N 
ATOM      2  C   UNL     1      -4.419  -0.009   2.119  0.00  0.00    +0.216 C 
ATOM      3  O   UNL     1      -4.276   1.130   2.511  0.00  0.00    -0.276 OA
ATOM      4  H   UNL     1      -3.525  -1.544   1.165  0.00  0.00    +0.149 HD
ENDROOT
BRANCH   1   8
ATOM      5  C   UNL     1      -0.019   1.526   0.010  0.00  0.00    +0.055 C 
ATOM      6  C   UNL     1       0.002  -0.004   0.002  0.00  0.00    +0.107 C 
ATOM      7  C   UNL     1      -1.435  -0.540   0.040  0.00  0.00    +0.074 C 
ATOM      8  C   UNL     1      -2.142   0.066   1.254  0.00  0.00    +0.110 C 
ATOM      9  C   UNL     1      -1.269  -0.078   2.475  0.00  0.00    +0.015 A 
ATOM     10  C   UNL     1      -1.848   0.053   3.727  0.00  0.00    +0.012 A 
ATOM     11  C   UNL     1      -1.081  -0.068   4.867  0.00  0.00    +0.046 A 
ATOM     12  C   UNL     1       0.280  -0.321   4.763  0.00  0.00    +0.124 A 
ATOM     13  C   UNL     1       0.862  -0.455   3.513  0.00  0.00    +0.091 A 
ATOM     14  C   UNL     1       0.087  -0.335   2.365  0.00  0.00    +0.130 A 
ATOM     15  O   UNL     1       0.692  -0.482   1.157  0.00  0.00    -0.486 OA
ATOM     16  C   UNL     1       0.706  -0.503  -1.262  0.00  0.00    +0.055 C 
BRANCH  12  17
ATOM     17  O   UNL     1       1.039  -0.438   5.884  0.00  0.00    -0.495 OA
ATOM     18  C   UNL     1       0.371  -0.289   7.138  0.00  0.00    +0.277 C 
ENDBRANCH  12  17
ENDBRANCH   1   8
BRANCH   2  19
ATOM     19  C   UNL     1      -5.723  -0.728   2.350  0.00  0.00    +0.071 C 
ATOM     20  C   UNL     1      -6.338  -1.118   1.003  0.00  0.00    -0.006 C 
ATOM     21  C   UNL     1      -7.699  -1.775   1.240  0.00  0.00    -0.078 C 
ATOM     22  N   UNL     1      -8.588  -0.833   1.931  0.00  0.00    +0.382 N 
ATOM     23  C   UNL     1      -8.040  -0.510   3.254  0.00  0.00    -0.078 C 
ATOM     24  C   UNL     1      -6.692   0.196   3.094  0.00  0.00    -0.006 C 
ATOM     25  H   UNL     1      -8.669   0.012   1.386  0.00  0.00    -0.081 HD
BRANCH  22  26
ATOM     26  C   UNL     1      -9.916  -1.440   2.088  0.00  0.00    -0.043 C 
BRANCH  26  27
ATOM     27  C   UNL     1     -10.863  -0.431   2.685  0.00  0.00    -0.064 A 
ATOM     28  C   UNL     1     -10.994  -0.335   4.058  0.00  0.00    +0.003 A 
ATOM     29  C   UNL     1     -11.861   0.591   4.606  0.00  0.00    +0.015 A 
ATOM     30  C   UNL     1     -12.598   1.421   3.781  0.00  0.00    +0.018 A 
ATOM     31  C   UNL     1     -12.467   1.324   2.408  0.00  0.00    +0.015 A 
ATOM     32  C   UNL     1     -11.595   0.402   1.860  0.00  0.00    +0.003 A 
ATOM     33 BR   UNL     1     -13.786   2.688   4.531  0.00  0.00    -0.050 Br
ENDBRANCH  26  27
ENDBRANCH  22  26
ENDBRANCH   2  19
TORSDOF 5
