REMARK  Name = ZINC08868517
REMARK  9 active torsions:
REMARK  status: ('A' for Active; 'I' for Inactive)
REMARK    1  A    between atoms: C_1  and  C_2
REMARK    2  A    between atoms: C_2  and  C_3
REMARK    3  A    between atoms: C_3  and  C_5
REMARK    4  A    between atoms: C_3  and  N_15
REMARK    5  A    between atoms: C_18  and  C_22
REMARK    6  A    between atoms: C_18  and  N_26
REMARK    7  A    between atoms: C_27  and  C_29
REMARK    8  A    between atoms: C_32  and  O_35
REMARK    9  A    between atoms: O_35  and  C_36
REMARK                            x       y       z     vdW  Elec       q    Type
REMARK                         _______ _______ _______ _____ _____    ______ ____
ROOT
ATOM      1  N   UNL     1      -5.059   1.098  -1.455  0.00  0.00    -0.219 N 
ATOM      2  C   UNL     1      -5.042   0.966  -2.796  0.00  0.00    +0.274 C 
ATOM      3  O   UNL     1      -4.226   0.365  -3.462  0.00  0.00    -0.271 OA
ATOM      4  C   UNL     1      -6.255   1.724  -3.297  0.00  0.00    +0.278 C 
ATOM      5  N   UNL     1      -6.868   2.250  -2.066  0.00  0.00    -0.263 N 
ATOM      6  C   UNL     1      -6.099   1.832  -1.044  0.00  0.00    +0.311 C 
ATOM      7  O   UNL     1      -6.324   2.092   0.121  0.00  0.00    -0.252 OA
ATOM      8  H   UNL     1      -7.670   2.792  -2.004  0.00  0.00    +0.153 HD
ENDROOT
BRANCH   4   9
ATOM      9  C   UNL     1      -7.221   0.783  -4.021  0.00  0.00    +0.436 C 
ATOM     10  F   UNL     1      -8.324   1.511  -4.480  0.00  0.00    -0.166 F 
ATOM     11  F   UNL     1      -6.569   0.190  -5.107  0.00  0.00    -0.166 F 
ATOM     12  F   UNL     1      -7.653  -0.211  -3.137  0.00  0.00    -0.166 F 
ENDBRANCH   4   9
BRANCH   4  13
ATOM     13  N   UNL     1      -5.848   2.820  -4.180  0.00  0.00    -0.276 N 
ATOM     14  C   UNL     1      -5.199   2.554  -5.331  0.00  0.00    +0.246 C 
ATOM     15  O   UNL     1      -4.993   1.401  -5.660  0.00  0.00    -0.270 OA
ATOM     16  H   UNL     1      -6.045   3.738  -3.935  0.00  0.00    +0.152 HD
BRANCH  14  17
ATOM     17  C   UNL     1      -4.739   3.661  -6.192  0.00  0.00    +0.037 A 
ATOM     18  C   UNL     1      -4.980   4.986  -5.819  0.00  0.00    +0.016 A 
ATOM     19  C   UNL     1      -4.544   6.015  -6.622  0.00  0.00    +0.046 A 
ATOM     20  C   UNL     1      -3.876   5.739  -7.809  0.00  0.00    +0.120 A 
ATOM     21  C   UNL     1      -3.639   4.422  -8.187  0.00  0.00    +0.046 A 
ATOM     22  C   UNL     1      -4.067   3.386  -7.386  0.00  0.00    +0.016 A 
BRANCH  20  23
ATOM     23  O   UNL     1      -3.453   6.756  -8.601  0.00  0.00    -0.495 OA
ATOM     24  C   UNL     1      -3.729   8.085  -8.153  0.00  0.00    +0.277 C 
ENDBRANCH  20  23
ENDBRANCH  14  17
ENDBRANCH   4  13
BRANCH   1  25
ATOM     25  C   UNL     1      -4.058   0.514  -0.557  0.00  0.00    +0.092 C 
BRANCH  25  26
ATOM     26  C   UNL     1      -3.151   1.621  -0.017  0.00  0.00    -0.009 C 
ATOM     27  C   UNL     1      -2.380   2.259  -1.175  0.00  0.00    +0.012 C 
ATOM     28  C   UNL     1      -1.472   3.366  -0.634  0.00  0.00    -0.010 C 
ATOM     29  C   UNL     1      -0.483   2.769   0.370  0.00  0.00    +0.007 C 
ATOM     30  C   UNL     1      -1.254   2.131   1.527  0.00  0.00    -0.010 C 
ATOM     31  C   UNL     1      -2.162   1.025   0.987  0.00  0.00    +0.012 C 
ATOM     32  C   UNL     1      -2.106   3.196   2.221  0.00  0.00    +0.007 C 
ATOM     33  C   UNL     1      -3.095   3.792   1.217  0.00  0.00    -0.010 C 
ATOM     34  C   UNL     1      -2.324   4.430   0.060  0.00  0.00    +0.007 C 
ATOM     35  C   UNL     1      -4.002   2.686   0.677  0.00  0.00    +0.012 C 
ENDBRANCH  25  26
BRANCH  25  37
ATOM     36  C   UNL     1      -5.637  -1.317   0.071  0.00  0.00    +0.006 C 
ATOM     37  C   UNL     1      -4.763  -0.182   0.608  0.00  0.00    +0.020 C 
ENDBRANCH  25  37
ENDBRANCH   1  25
TORSDOF 7
