REMARK  Name = ZINC55175898
REMARK  3 active torsions:
REMARK  status: ('A' for Active; 'I' for Inactive)
REMARK    1  A    between atoms: C_1  and  C_2
REMARK    2  A    between atoms: C_3  and  C_8
REMARK    3  A    between atoms: C_18  and  C_20
REMARK                            x       y       z     vdW  Elec       q    Type
REMARK                         _______ _______ _______ _____ _____    ______ ____
ROOT
ATOM      1  C   UNL     1       1.697   0.144  -3.215  0.00  0.00    +0.256 C 
ATOM      2  O   UNL     1       1.404   1.285  -3.526  0.00  0.00    -0.269 OA
ATOM      3  N   UNL     1       1.106  -0.896  -3.835  0.00  0.00    -0.279 N 
ATOM      4  C   UNL     1       1.358  -2.273  -3.385  0.00  0.00    +0.114 C 
ATOM      5  C   UNL     1       0.040  -2.854  -2.851  0.00  0.00    +0.062 C 
ATOM      6  C   UNL     1      -1.064  -2.475  -3.784  0.00  0.00    -0.003 A 
ATOM      7  C   UNL     1      -1.054  -1.509  -4.742  0.00  0.00    -0.006 A 
ATOM      8  C   UNL     1      -2.225  -1.347  -5.480  0.00  0.00    +0.014 A 
ATOM      9  C   UNL     1      -3.297  -2.133  -5.229  0.00  0.00    +0.046 A 
ATOM     10  S   UNL     1      -2.691  -3.169  -3.905  0.00  0.00    -0.101 S 
ATOM     11  C   UNL     1       0.198  -0.670  -4.967  0.00  0.00    +0.221 C 
ENDROOT
BRANCH   1  14
ATOM     12  C   UNL     1       4.460   1.558  -2.899  0.00  0.00    +0.067 C 
ATOM     13  C   UNL     1       3.930   0.494  -1.972  0.00  0.00    +0.060 A 
ATOM     14  C   UNL     1       2.690  -0.096  -2.169  0.00  0.00    +0.098 A 
ATOM     15  S   UNL     1       2.643  -1.230  -0.790  0.00  0.00    -0.048 S 
ATOM     16  C   UNL     1       4.144  -0.855  -0.128  0.00  0.00    +0.156 A 
ATOM     17  N   UNL     1       4.617   0.074  -0.939  0.00  0.00    -0.230 NA
ATOM     18  N   UNL     1       4.740  -1.394   0.992  0.00  0.00    -0.337 N 
ATOM     19  H   UNL     1       4.282  -2.080   1.503  0.00  0.00    +0.144 HD
ATOM     20  H   UNL     1       5.617  -1.087   1.270  0.00  0.00    +0.144 HD
ENDBRANCH   1  14
BRANCH  11  21
ATOM     21  C   UNL     1      -0.174   0.789  -5.040  0.00  0.00    +0.381 C 
ATOM     22  O   UNL     1      -0.069   1.393  -6.094  0.00  0.00    -0.244 OA
ATOM     23  O   UNL     1      -0.579   1.365  -4.045  0.00  0.00    -0.244 OA
ENDBRANCH  11  21
TORSDOF 2
