REMARK  Name = ZINC40217518
REMARK  6 active torsions:
REMARK  status: ('A' for Active; 'I' for Inactive)
REMARK    1  A    between atoms: C_3  and  N_12
REMARK    2  A    between atoms: C_5  and  N_7
REMARK    3  A    between atoms: N_7  and  S_8
REMARK    4  A    between atoms: S_8  and  N_11
REMARK    5  A    between atoms: C_13  and  C_15
REMARK    6  A    between atoms: C_15  and  C_16
REMARK                            x       y       z     vdW  Elec       q    Type
REMARK                         _______ _______ _______ _____ _____    ______ ____
ROOT
ATOM      1  C   UNL     1      -0.312   1.206  -0.093  0.00  0.00    +0.004 A 
ATOM      2  C   UNL     1       0.769   2.062  -0.000  0.00  0.00    +0.023 A 
ATOM      3  C   UNL     1       2.046   1.552   0.200  0.00  0.00    +0.035 A 
ATOM      4  C   UNL     1       2.235   0.181   0.306  0.00  0.00    +0.047 A 
ATOM      5  C   UNL     1       1.147  -0.675   0.213  0.00  0.00    +0.051 A 
ATOM      6  C   UNL     1      -0.128  -0.158   0.012  0.00  0.00    +0.024 A 
ENDROOT
BRANCH   3   7
ATOM      7  N   UNL     1       3.140   2.419   0.293  0.00  0.00    -0.285 N 
ATOM      8  C   UNL     1       2.989   3.637   0.849  0.00  0.00    +0.222 C 
ATOM      9  O   UNL     1       1.929   3.947   1.352  0.00  0.00    -0.275 OA
ATOM     10  H   UNL     1       4.007   2.143  -0.042  0.00  0.00    +0.155 HD
BRANCH   8  11
ATOM     11  C   UNL     1       4.136   4.615   0.845  0.00  0.00    +0.138 C 
BRANCH  11  12
ATOM     12  C   UNL     1       3.709   5.892   1.522  0.00  0.00    -0.001 A 
ATOM     13  C   UNL     1       3.801   6.236   2.830  0.00  0.00    +0.011 A 
ATOM     14  C   UNL     1       3.341   7.477   3.230  0.00  0.00    +0.008 A 
ATOM     15  C   UNL     1       2.811   8.312   2.303  0.00  0.00    +0.045 A 
ATOM     16  S   UNL     1       2.960   7.347   0.809  0.00  0.00    -0.101 S 
ENDBRANCH  11  12
ENDBRANCH   8  11
ENDBRANCH   3   7
BRANCH   5  17
ATOM     17  N   UNL     1       1.333  -2.056   0.319  0.00  0.00    -0.207 N 
ATOM     18  H   UNL     1       1.280  -2.615  -0.472  0.00  0.00    +0.175 HD
BRANCH  17  19
ATOM     19  S   UNL     1       1.643  -2.738   1.796  0.00  0.00    +0.107 S 
ATOM     20  O   UNL     1       1.689  -4.144   1.592  0.00  0.00    -0.138 OA
ATOM     21  O   UNL     1       2.728  -2.013   2.358  0.00  0.00    -0.138 OA
BRANCH  19  22
ATOM     22  N   UNL     1       0.327  -2.443   2.757  0.00  0.00    -0.191 NA
ATOM     23  H   UNL     1      -0.398  -1.887   2.430  0.00  0.00    +0.146 HD
ATOM     24  H   UNL     1       0.281  -2.826   3.647  0.00  0.00    +0.146 HD
ENDBRANCH  19  22
ENDBRANCH  17  19
ENDBRANCH   5  17
TORSDOF 6
