REMARK  Name = ZINC51634165
REMARK  3 active torsions:
REMARK  status: ('A' for Active; 'I' for Inactive)
REMARK    1  A    between atoms: C_10  and  N_12
REMARK    2  A    between atoms: N_12  and  S_13
REMARK    3  A    between atoms: S_13  and  C_16
REMARK                            x       y       z     vdW  Elec       q    Type
REMARK                         _______ _______ _______ _____ _____    ______ ____
ROOT
ATOM      1  N   UNL     1       4.631   0.029  -0.946  0.00  0.00    -0.183 NA
ATOM      2  H   UNL     1       4.398   0.097  -1.885  0.00  0.00    +0.149 HD
ENDROOT
BRANCH   1  12
ATOM      3  C   UNL     1      -0.206   0.732  -0.287  0.00  0.00    +0.000 A 
ATOM      4  C   UNL     1       0.873   1.597  -0.266  0.00  0.00    +0.000 A 
ATOM      5  C   UNL     1       2.154   1.092  -0.187  0.00  0.00    +0.005 A 
ATOM      6  C   UNL     1       2.370  -0.279  -0.132  0.00  0.00    -0.026 A 
ATOM      7  C   UNL     1       1.296  -1.140  -0.159  0.00  0.00    -0.043 A 
ATOM      8  C   UNL     1       0.006  -0.629  -0.234  0.00  0.00    +0.004 A 
ATOM      9  C   UNL     1       1.456  -2.637  -0.119  0.00  0.00    +0.035 C 
ATOM     10  C   UNL     1       2.847  -3.015   0.388  0.00  0.00    +0.007 C 
ATOM     11  C   UNL     1       3.887  -2.236  -0.425  0.00  0.00    +0.025 C 
ATOM     12  C   UNL     1       3.794  -0.761  -0.040  0.00  0.00    +0.107 C 
ENDBRANCH   1  12
BRANCH   1  13
ATOM     13  S   UNL     1       5.975   0.804  -0.367  0.00  0.00    +0.060 S 
ATOM     14  O   UNL     1       6.576   1.457  -1.477  0.00  0.00    -0.153 OA
ATOM     15  O   UNL     1       5.568   1.505   0.800  0.00  0.00    -0.153 OA
BRANCH  13  16
ATOM     16  C   UNL     1       7.107  -0.439   0.160  0.00  0.00    +0.123 A 
ATOM     17  C   UNL     1       7.069  -0.914   1.464  0.00  0.00    +0.033 A 
ATOM     18  C   UNL     1       7.975  -1.890   1.838  0.00  0.00    +0.045 A 
ATOM     19  C   UNL     1       8.889  -2.359   0.900  0.00  0.00    +0.116 A 
ATOM     20  N   UNL     1       8.894  -1.880  -0.334  0.00  0.00    -0.239 NA
ATOM     21  C   UNL     1       8.037  -0.953  -0.720  0.00  0.00    +0.141 A 
ATOM     22  N   UNL     1       9.806  -3.339   1.262  0.00  0.00    -0.343 N 
ATOM     23  H   UNL     1       9.806  -3.693   2.165  0.00  0.00    +0.144 HD
ATOM     24  H   UNL     1      10.445  -3.669   0.611  0.00  0.00    +0.144 HD
ENDBRANCH  13  16
ENDBRANCH   1  13
TORSDOF 3
