REMARK  Name = ZINC60334522
REMARK  6 active torsions:
REMARK  status: ('A' for Active; 'I' for Inactive)
REMARK    1  A    between atoms: C_4  and  N_20
REMARK    2  A    between atoms: C_5  and  C_7
REMARK    3  A    between atoms: N_9  and  C_10
REMARK    4  A    between atoms: C_14  and  C_16
REMARK    5  A    between atoms: C_21  and  C_23
REMARK    6  A    between atoms: C_30  and  C_32
REMARK                            x       y       z     vdW  Elec       q    Type
REMARK                         _______ _______ _______ _____ _____    ______ ____
ROOT
ATOM      1  C   UNL     1       0.118   1.265   0.091  0.00  0.00    +0.001 A 
ATOM      2  C   UNL     1       1.248   1.868   0.621  0.00  0.00    +0.002 A 
ATOM      3  C   UNL     1       2.470   1.228   0.570  0.00  0.00    +0.024 A 
ATOM      4  C   UNL     1       2.574  -0.028  -0.013  0.00  0.00    +0.046 A 
ATOM      5  C   UNL     1       1.432  -0.641  -0.550  0.00  0.00    +0.058 A 
ATOM      6  C   UNL     1       0.203   0.020  -0.491  0.00  0.00    +0.015 A 
ENDROOT
BRANCH   5   7
ATOM      7  C   UNL     1       1.530  -1.974  -1.173  0.00  0.00    +0.250 C 
ATOM      8  O   UNL     1       2.581  -2.584  -1.143  0.00  0.00    -0.270 OA
ATOM      9  N   UNL     1       0.453  -2.516  -1.776  0.00  0.00    -0.281 N 
ATOM     10  H   UNL     1      -0.360  -1.997  -1.875  0.00  0.00    +0.155 HD
BRANCH   9  11
ATOM     11  C   UNL     1       0.508  -3.828  -2.259  0.00  0.00    +0.034 A 
ATOM     12  C   UNL     1      -0.310  -4.217  -3.311  0.00  0.00    +0.023 A 
ATOM     13  C   UNL     1      -0.253  -5.513  -3.785  0.00  0.00    +0.002 A 
ATOM     14  C   UNL     1       0.618  -6.422  -3.213  0.00  0.00    +0.012 A 
ATOM     15  C   UNL     1       1.434  -6.038  -2.166  0.00  0.00    +0.057 A 
ATOM     16  C   UNL     1       1.387  -4.742  -1.691  0.00  0.00    +0.035 A 
BRANCH  15  17
ATOM     17  C   UNL     1       2.381  -7.032  -1.545  0.00  0.00    +0.417 C 
ATOM     18  F   UNL     1       2.253  -8.265  -2.194  0.00  0.00    -0.166 F 
ATOM     19  F   UNL     1       3.695  -6.570  -1.677  0.00  0.00    -0.166 F 
ATOM     20  F   UNL     1       2.074  -7.185  -0.189  0.00  0.00    -0.166 F 
ENDBRANCH  15  17
ENDBRANCH   9  11
ENDBRANCH   5   7
BRANCH   4  21
ATOM     21  N   UNL     1       3.807  -0.675  -0.066  0.00  0.00    -0.285 N 
ATOM     22  C   UNL     1       4.936   0.039  -0.245  0.00  0.00    +0.222 C 
ATOM     23  O   UNL     1       4.889   1.250  -0.276  0.00  0.00    -0.275 OA
ATOM     24  H   UNL     1       3.852  -1.639   0.026  0.00  0.00    +0.155 HD
BRANCH  22  25
ATOM     25  C   UNL     1       6.256  -0.668  -0.407  0.00  0.00    +0.093 C 
ATOM     26  C   UNL     1       6.544  -1.505   0.841  0.00  0.00    +0.016 C 
ATOM     27  C   UNL     1       7.870  -2.249   0.664  0.00  0.00    +0.020 C 
ATOM     28  C   UNL     1       9.003  -1.233   0.492  0.00  0.00    +0.108 C 
ATOM     29  N   UNL     1       8.664  -0.331  -0.618  0.00  0.00    -0.301 N 
ATOM     30  C   UNL     1       7.371   0.366  -0.593  0.00  0.00    +0.120 C 
ATOM     31  C   UNL     1       9.523  -0.147  -1.639  0.00  0.00    +0.219 C 
ATOM     32  O   UNL     1       9.232   0.600  -2.549  0.00  0.00    -0.275 OA
BRANCH  31  33
ATOM     33  C   UNL     1      10.846  -0.869  -1.651  0.00  0.00    +0.075 C 
ATOM     34  C   UNL     1      12.111  -0.029  -1.466  0.00  0.00    +0.013 C 
ATOM     35  C   UNL     1      11.778  -0.618  -2.838  0.00  0.00    +0.013 C 
ENDBRANCH  31  33
ENDBRANCH  22  25
ENDBRANCH   4  21
TORSDOF 6
