REMARK  Name = ZINC39684892
REMARK  8 active torsions:
REMARK  status: ('A' for Active; 'I' for Inactive)
REMARK    1  A    between atoms: C_1  and  C_2
REMARK    2  A    between atoms: C_2  and  C_3
REMARK    3  A    between atoms: C_3  and  C_5
REMARK    4  A    between atoms: C_3  and  C_11
REMARK    5  A    between atoms: C_15  and  C_24
REMARK    6  A    between atoms: N_26  and  C_27
REMARK    7  A    between atoms: C_27  and  C_28
REMARK    8  A    between atoms: C_31  and  C_34
REMARK                            x       y       z     vdW  Elec       q    Type
REMARK                         _______ _______ _______ _____ _____    ______ ____
ROOT
ATOM      1  C   UNL     1       2.269  -0.014  -1.200  0.00  0.00    +0.223 C 
ATOM      2  O   UNL     1       3.224  -0.743  -1.367  0.00  0.00    -0.275 OA
ATOM      3  N   UNL     1       2.451   1.313  -1.056  0.00  0.00    -0.300 N 
ATOM      4  C   UNL     1       1.413   2.364  -0.934  0.00  0.00    +0.121 C 
ATOM      5  C   UNL     1       1.971   3.344   0.122  0.00  0.00    +0.100 C 
ATOM      6  C   UNL     1       3.495   3.136   0.083  0.00  0.00    -0.004 C 
ATOM      7  C   UNL     1       3.734   2.052  -0.978  0.00  0.00    +0.115 C 
ATOM      8  C   UNL     1       4.195   4.431  -0.316  0.00  0.00    -0.010 C 
ATOM      9  C   UNL     1       5.711   4.215  -0.291  0.00  0.00    -0.082 C 
ATOM     10  N   UNL     1       6.126   3.807   1.056  0.00  0.00    +0.379 N 
ATOM     11  C   UNL     1       5.521   2.513   1.396  0.00  0.00    -0.082 C 
ATOM     12  C   UNL     1       3.997   2.657   1.442  0.00  0.00    -0.010 C 
ATOM     13  H   UNL     1       7.131   3.724   1.086  0.00  0.00    -0.086 HD
ATOM     14  H   UNL     1       5.829   4.502   1.724  0.00  0.00    -0.086 HD
ENDROOT
BRANCH   5  15
ATOM     15  C   UNL     1       1.428   3.009   1.487  0.00  0.00    +0.218 C 
ATOM     16  O   UNL     1       1.157   1.861   1.767  0.00  0.00    -0.275 OA
ATOM     17  N   UNL     1       1.244   3.986   2.397  0.00  0.00    -0.311 N 
ATOM     18  H   UNL     1       1.461   4.904   2.173  0.00  0.00    +0.149 HD
BRANCH  17  19
ATOM     19  C   UNL     1       0.716   3.660   3.724  0.00  0.00    +0.139 C 
BRANCH  19  20
ATOM     20  C   UNL     1       0.606   4.920   4.544  0.00  0.00    -0.030 A 
ATOM     21  C   UNL     1       1.676   5.333   5.318  0.00  0.00    +0.006 A 
ATOM     22  C   UNL     1       1.582   6.486   6.071  0.00  0.00    +0.019 A 
ATOM     23  C   UNL     1       0.405   7.236   6.050  0.00  0.00    +0.052 A 
ATOM     24  C   UNL     1      -0.671   6.813   5.266  0.00  0.00    +0.019 A 
ATOM     25  C   UNL     1      -0.562   5.662   4.514  0.00  0.00    +0.006 A 
BRANCH  23  26
ATOM     26  C   UNL     1       0.300   8.432   6.830  0.00  0.00    +0.099 C 
ATOM     27  N   UNL     1       0.217   9.382   7.448  0.00  0.00    -0.191 NA
ENDBRANCH  23  26
ENDBRANCH  19  20
ENDBRANCH  17  19
ENDBRANCH   5  15
BRANCH   1  28
ATOM     28  C   UNL     1       0.879  -0.594  -1.153  0.00  0.00    +0.105 C 
BRANCH  28  29
ATOM     29  C   UNL     1       0.324  -0.683  -2.551  0.00  0.00    -0.036 A 
ATOM     30  C   UNL     1       0.969  -1.451  -3.503  0.00  0.00    +0.004 A 
ATOM     31  C   UNL     1       0.461  -1.532  -4.786  0.00  0.00    +0.000 A 
ATOM     32  C   UNL     1      -0.693  -0.847  -5.117  0.00  0.00    +0.000 A 
ATOM     33  C   UNL     1      -1.339  -0.080  -4.165  0.00  0.00    +0.000 A 
ATOM     34  C   UNL     1      -0.832  -0.002  -2.881  0.00  0.00    +0.004 A 
ENDBRANCH  28  29
BRANCH  28  36
ATOM     35  C   UNL     1       1.358  -1.887   0.930  0.00  0.00    +0.005 C 
ATOM     36  C   UNL     1       0.930  -1.993  -0.535  0.00  0.00    +0.014 C 
ENDBRANCH  28  36
ENDBRANCH   1  28
TORSDOF 7
