REMARK  Name = ZINC34897619
REMARK  9 active torsions:
REMARK  status: ('A' for Active; 'I' for Inactive)
REMARK    1  A    between atoms: C_4  and  C_7
REMARK    2  A    between atoms: N_9  and  C_10
REMARK    3  A    between atoms: N_9  and  C_34
REMARK    4  A    between atoms: C_10  and  C_11
REMARK    5  A    between atoms: C_16  and  C_19
REMARK    6  A    between atoms: C_19  and  C_20
REMARK    7  A    between atoms: N_22  and  C_23
REMARK    8  A    between atoms: C_23  and  C_24
REMARK    9  A    between atoms: C_28  and  C_30
REMARK                            x       y       z     vdW  Elec       q    Type
REMARK                         _______ _______ _______ _____ _____    ______ ____
ROOT
ATOM      1  C   UNL     1       5.457  -3.427   0.799  0.00  0.00    +0.236 C 
ATOM      2  O   UNL     1       4.806  -3.375   1.821  0.00  0.00    -0.274 OA
ATOM      3  N   UNL     1       6.608  -4.127   0.769  0.00  0.00    -0.263 N 
ATOM      4  C   UNL     1       7.050  -4.789   1.909  0.00  0.00    +0.165 A 
ATOM      5  N   UNL     1       8.140  -5.508   2.065  0.00  0.00    -0.229 NA
ATOM      6  C   UNL     1       8.420  -6.079   3.222  0.00  0.00    +0.059 A 
ATOM      7  C   UNL     1       7.537  -5.888   4.233  0.00  0.00    +0.072 A 
ATOM      8  S   UNL     1       6.323  -4.859   3.425  0.00  0.00    -0.060 S 
ATOM      9  H   UNL     1       7.129  -4.168  -0.049  0.00  0.00    +0.157 HD
ENDROOT
BRANCH   1  10
ATOM     10  C   UNL     1       4.978  -2.709  -0.436  0.00  0.00    +0.204 C 
BRANCH  10  13
ATOM     11  C   UNL     1       3.697  -0.696   0.057  0.00  0.00    +0.247 C 
ATOM     12  O   UNL     1       2.670  -0.147   0.406  0.00  0.00    -0.270 OA
ATOM     13  N   UNL     1       3.714  -2.028  -0.146  0.00  0.00    -0.286 N 
BRANCH  11  17
ATOM     14  C   UNL     1       7.233   1.586  -0.519  0.00  0.00    +0.000 A 
ATOM     15  C   UNL     1       5.999   2.147  -0.796  0.00  0.00    +0.001 A 
ATOM     16  C   UNL     1       4.847   1.411  -0.611  0.00  0.00    +0.013 A 
ATOM     17  C   UNL     1       4.928   0.098  -0.144  0.00  0.00    +0.037 A 
ATOM     18  C   UNL     1       6.176  -0.461   0.133  0.00  0.00    +0.013 A 
ATOM     19  C   UNL     1       7.321   0.285  -0.056  0.00  0.00    +0.001 A 
ENDBRANCH  11  17
BRANCH  13  20
ATOM     20  C   UNL     1       2.468  -2.795  -0.078  0.00  0.00    +0.077 C 
ATOM     21  C   UNL     1       1.153  -2.016  -0.156  0.00  0.00    +0.024 C 
ATOM     22  C   UNL     1       1.602  -2.627   1.173  0.00  0.00    +0.024 C 
ENDBRANCH  13  20
ENDBRANCH  10  13
ENDBRANCH   1  10
BRANCH   6  23
ATOM     23  C   UNL     1       9.666  -6.905   3.411  0.00  0.00    +0.151 C 
BRANCH  23  24
ATOM     24  C   UNL     1       9.709  -7.994   2.370  0.00  0.00    +0.219 C 
ATOM     25  O   UNL     1       8.816  -8.089   1.555  0.00  0.00    -0.275 OA
ATOM     26  N   UNL     1      10.740  -8.861   2.344  0.00  0.00    -0.311 N 
ATOM     27  H   UNL     1      11.455  -8.785   2.996  0.00  0.00    +0.149 HD
BRANCH  26  28
ATOM     28  C   UNL     1      10.782  -9.920   1.332  0.00  0.00    +0.139 C 
BRANCH  28  29
ATOM     29  C   UNL     1      12.028 -10.746   1.521  0.00  0.00    -0.030 A 
ATOM     30  C   UNL     1      13.197 -10.392   0.873  0.00  0.00    +0.005 A 
ATOM     31  C   UNL     1      14.340 -11.150   1.046  0.00  0.00    +0.001 A 
ATOM     32  C   UNL     1      14.314 -12.262   1.867  0.00  0.00    +0.012 A 
ATOM     33  C   UNL     1      13.146 -12.615   2.515  0.00  0.00    +0.055 A 
ATOM     34  C   UNL     1      12.004 -11.855   2.346  0.00  0.00    +0.017 A 
BRANCH  33  35
ATOM     35  C   UNL     1      13.118 -13.828   3.410  0.00  0.00    +0.417 C 
ATOM     36  F   UNL     1      14.383 -14.426   3.425  0.00  0.00    -0.166 F 
ATOM     37  F   UNL     1      12.770 -13.441   4.709  0.00  0.00    -0.166 F 
ATOM     38  F   UNL     1      12.175 -14.742   2.928  0.00  0.00    -0.166 F 
ENDBRANCH  33  35
ENDBRANCH  28  29
ENDBRANCH  26  28
ENDBRANCH  23  24
ENDBRANCH   6  23
TORSDOF 9
