REMARK  Name = ZINC04045298
REMARK  7 active torsions:
REMARK  status: ('A' for Active; 'I' for Inactive)
REMARK    1  A    between atoms: C_1  and  O_2
REMARK    2  A    between atoms: O_2  and  C_3
REMARK    3  A    between atoms: C_10  and  C_32
REMARK    4  A    between atoms: C_18  and  S_21
REMARK    5  A    between atoms: S_21  and  C_22
REMARK    6  A    between atoms: C_27  and  N_28
REMARK    7  A    between atoms: C_35  and  N_38
REMARK                            x       y       z     vdW  Elec       q    Type
REMARK                         _______ _______ _______ _____ _____    ______ ____
ROOT
ATOM      1  C   UNL     1      -0.802   3.082  -3.376  0.00  0.00    +0.141 A 
ATOM      2  C   UNL     1      -2.178   2.947  -3.407  0.00  0.00    +0.047 A 
ATOM      3  C   UNL     1      -2.836   2.365  -2.339  0.00  0.00    +0.004 A 
ATOM      4  C   UNL     1      -2.120   1.919  -1.248  0.00  0.00    +0.006 A 
ATOM      5  C   UNL     1      -0.737   2.046  -1.206  0.00  0.00    -0.018 A 
ATOM      6  C   UNL     1      -0.075   2.630  -2.269  0.00  0.00    +0.073 A 
ATOM      7  N   UNL     1       1.313   2.793  -2.289  0.00  0.00    -0.334 N 
ATOM      8  C   UNL     1       2.000   1.827  -1.430  0.00  0.00    +0.104 C 
ATOM      9  C   UNL     1       1.464   1.953  -0.001  0.00  0.00    +0.024 C 
ATOM     10  C   UNL     1      -0.019   1.535   0.011  0.00  0.00    +0.045 C 
ATOM     11  C   UNL     1       0.002  -0.004   0.002  0.00  0.00    +0.101 C 
ATOM     12  C   UNL     1       1.382  -0.429   0.534  0.00  0.00    +0.070 C 
ATOM     13  C   UNL     1       2.144   0.869   0.871  0.00  0.00    +0.022 C 
ATOM     14 CL   UNL     1      -1.297  -0.645   1.075  0.00  0.00    -0.120 Cl
ATOM     15  H   UNL     1       1.668   2.753  -3.233  0.00  0.00    +0.147 HD
ENDROOT
BRANCH   8  16
ATOM     16  C   UNL     1       3.480   2.109  -1.438  0.00  0.00    -0.027 A 
ATOM     17  C   UNL     1       3.936   3.414  -1.425  0.00  0.00    +0.008 A 
ATOM     18  C   UNL     1       5.294   3.672  -1.428  0.00  0.00    +0.033 A 
ATOM     19  C   UNL     1       6.197   2.625  -1.454  0.00  0.00    +0.126 A 
ATOM     20  C   UNL     1       5.741   1.320  -1.472  0.00  0.00    +0.033 A 
ATOM     21  C   UNL     1       4.383   1.062  -1.464  0.00  0.00    +0.008 A 
BRANCH  19  22
ATOM     22  N   UNL     1       7.651   2.901  -1.462  0.00  0.00    +0.056 N 
ATOM     23  O   UNL     1       8.446   1.978  -1.485  0.00  0.00    -0.126 OA
ATOM     24  O   UNL     1       8.052   4.051  -1.447  0.00  0.00    -0.126 OA
ENDBRANCH  19  22
ENDBRANCH   8  16
BRANCH   1  26
ATOM     25  C   UNL     1      -0.956   4.095  -5.522  0.00  0.00    +0.277 C 
ATOM     26  O   UNL     1      -0.153   3.655  -4.424  0.00  0.00    -0.493 OA
ENDBRANCH   1  26
BRANCH  12  27
ATOM     27  S   UNL     1       1.188  -1.442   2.026  0.00  0.00    -0.118 S 
BRANCH  27  28
ATOM     28  C   UNL     1       0.407  -2.911   1.445  0.00  0.00    +0.038 A 
ATOM     29  C   UNL     1       0.092  -3.047   0.098  0.00  0.00    +0.017 A 
ATOM     30  C   UNL     1      -0.515  -4.202  -0.354  0.00  0.00    +0.001 A 
ATOM     31  C   UNL     1      -0.820  -5.218   0.533  0.00  0.00    +0.002 A 
ATOM     32  C   UNL     1      -0.514  -5.083   1.875  0.00  0.00    +0.034 A 
ATOM     33  C   UNL     1       0.098  -3.934   2.334  0.00  0.00    +0.140 A 
BRANCH  33  34
ATOM     34  N   UNL     1       0.426  -3.791   3.770  0.00  0.00    +0.058 N 
ATOM     35  O   UNL     1       0.155  -4.688   4.548  0.00  0.00    -0.126 OA
ATOM     36  O   UNL     1       0.967  -2.777   4.174  0.00  0.00    -0.126 OA
ENDBRANCH  33  34
ENDBRANCH  27  28
ENDBRANCH  12  27
TORSDOF 6
