REMARK  Name = ZINC37263959
REMARK  9 active torsions:
REMARK  status: ('A' for Active; 'I' for Inactive)
REMARK    1  A    between atoms: C_1  and  C_2
REMARK    2  A    between atoms: C_6  and  N_8
REMARK    3  A    between atoms: C_11  and  C_13
REMARK    4  A    between atoms: C_13  and  C_14
REMARK    5  A    between atoms: C_13  and  C_15
REMARK    6  A    between atoms: C_13  and  C_16
REMARK    7  A    between atoms: C_17  and  C_28
REMARK    8  A    between atoms: N_23  and  C_24
REMARK    9  A    between atoms: C_24  and  C_25
REMARK                            x       y       z     vdW  Elec       q    Type
REMARK                         _______ _______ _______ _____ _____    ______ ____
ROOT
ATOM      1  N   UNL     1      -1.023  -5.619   5.072  0.00  0.00    -0.218 N 
ATOM      2  C   UNL     1      -0.834  -6.046   6.343  0.00  0.00    +0.136 A 
ATOM      3  C   UNL     1      -0.063  -5.137   6.983  0.00  0.00    +0.034 A 
ATOM      4  C   UNL     1       0.231  -4.114   6.081  0.00  0.00    +0.075 A 
ATOM      5  N   UNL     1      -0.338  -4.401   4.935  0.00  0.00    -0.169 NA
ATOM      6  C   UNL     1       0.385  -5.247   8.418  0.00  0.00    +0.115 C 
ATOM      7  S   UNL     1      -1.047  -4.903   9.504  0.00  0.00    -0.138 S 
ATOM      8  C   UNL     1      -2.393  -5.777   8.637  0.00  0.00    +0.166 C 
ATOM      9  C   UNL     1      -1.926  -7.111   8.138  0.00  0.00    +0.231 C 
ATOM     10  O   UNL     1      -2.089  -8.101   8.819  0.00  0.00    -0.274 OA
ATOM     11  N   UNL     1      -1.330  -7.213   6.946  0.00  0.00    -0.246 N 
ENDROOT
BRANCH   6  12
ATOM     12  C   UNL     1       1.478  -4.244   8.684  0.00  0.00    +0.005 A 
ATOM     13  C   UNL     1       1.159  -2.977   9.136  0.00  0.00    +0.010 A 
ATOM     14  C   UNL     1       2.161  -2.057   9.381  0.00  0.00    +0.039 A 
ATOM     15  C   UNL     1       3.486  -2.404   9.174  0.00  0.00    +0.126 A 
ATOM     16  C   UNL     1       3.806  -3.672   8.722  0.00  0.00    +0.077 A 
ATOM     17  C   UNL     1       2.802  -4.595   8.482  0.00  0.00    +0.131 A 
ATOM     18  F   UNL     1       3.114  -5.835   8.046  0.00  0.00    -0.205 F 
ATOM     19  F   UNL     1       4.465  -1.504   9.413  0.00  0.00    -0.205 F 
ENDBRANCH   6  12
BRANCH   1  25
ATOM     20  C   UNL     1      -5.038  -8.124   3.734  0.00  0.00    +0.044 C 
ATOM     21  C   UNL     1      -3.709  -7.496   3.401  0.00  0.00    -0.048 A 
ATOM     22  C   UNL     1      -3.216  -7.566   2.111  0.00  0.00    +0.003 A 
ATOM     23  C   UNL     1      -1.997  -6.992   1.801  0.00  0.00    +0.002 A 
ATOM     24  C   UNL     1      -1.268  -6.346   2.781  0.00  0.00    +0.028 A 
ATOM     25  C   UNL     1      -1.760  -6.274   4.077  0.00  0.00    +0.068 A 
ATOM     26  C   UNL     1      -2.987  -6.847   4.383  0.00  0.00    +0.031 A 
ENDBRANCH   1  25
BRANCH   4  27
ATOM     27  C   UNL     1       1.063  -2.892   6.373  0.00  0.00    +0.007 C 
ATOM     28  C   UNL     1       2.446  -3.322   6.867  0.00  0.00    +0.017 C 
ATOM     29  C   UNL     1       1.213  -2.060   5.097  0.00  0.00    +0.017 C 
ATOM     30  C   UNL     1       0.375  -2.051   7.451  0.00  0.00    +0.017 C 
ENDBRANCH   4  27
BRANCH  11  31
ATOM     31  C   UNL     1      -1.197  -8.512   6.283  0.00  0.00    +0.210 C 
BRANCH  31  32
ATOM     32  C   UNL     1       0.030  -9.217   6.800  0.00  0.00    +0.228 C 
ATOM     33  O   UNL     1       0.726  -8.686   7.639  0.00  0.00    -0.274 OA
ATOM     34  N   UNL     1       0.355 -10.438   6.329  0.00  0.00    -0.328 N 
ATOM     35  H   UNL     1      -0.202 -10.863   5.658  0.00  0.00    +0.145 HD
ATOM     36  H   UNL     1       1.145 -10.891   6.662  0.00  0.00    +0.145 HD
ENDBRANCH  31  32
ENDBRANCH  11  31
TORSDOF 5
