REMARK  Name = ZINC48340435
REMARK  5 active torsions:
REMARK  status: ('A' for Active; 'I' for Inactive)
REMARK    1  A    between atoms: C_1  and  C_2
REMARK    2  A    between atoms: N_4  and  C_8
REMARK    3  A    between atoms: C_8  and  N_9
REMARK    4  A    between atoms: C_12  and  N_15
REMARK    5  A    between atoms: N_18  and  C_19
REMARK                            x       y       z     vdW  Elec       q    Type
REMARK                         _______ _______ _______ _____ _____    ______ ____
ROOT
ATOM      1  N   UNL     1      -2.519  -3.163  -1.342  0.00  0.00    +0.393 N 
ATOM      2  C   UNL     1      -1.554  -3.702  -2.309  0.00  0.00    -0.074 C 
ATOM      3  C   UNL     1      -2.158  -3.660  -3.714  0.00  0.00    +0.004 C 
ATOM      4  C   UNL     1      -3.435  -4.505  -3.741  0.00  0.00    +0.071 C 
ATOM      5  C   UNL     1      -4.404  -3.980  -2.677  0.00  0.00    +0.004 C 
ATOM      6  C   UNL     1      -3.718  -4.010  -1.310  0.00  0.00    -0.074 C 
ATOM      7  H   UNL     1      -2.777  -2.226  -1.614  0.00  0.00    -0.079 HD
ENDROOT
BRANCH   4   8
ATOM      8  N   UNL     1      -4.059  -4.408  -5.063  0.00  0.00    -0.297 N 
ATOM      9  C   UNL     1      -4.862  -5.397  -5.503  0.00  0.00    +0.300 C 
ATOM     10  O   UNL     1      -5.067  -6.370  -4.803  0.00  0.00    -0.253 OA
ATOM     11  N   UNL     1      -5.436  -5.309  -6.719  0.00  0.00    -0.297 N 
ATOM     12  H   UNL     1      -3.895  -3.632  -5.621  0.00  0.00    +0.151 HD
ATOM     13  H   UNL     1      -5.271  -4.532  -7.277  0.00  0.00    +0.151 HD
BRANCH  11  14
ATOM     14  C   UNL     1      -6.308  -6.384  -7.198  0.00  0.00    +0.074 C 
ATOM     15  C   UNL     1      -5.458  -7.481  -7.841  0.00  0.00    +0.022 C 
ATOM     16  C   UNL     1      -6.369  -8.604  -8.341  0.00  0.00    +0.002 C 
ATOM     17  C   UNL     1      -7.347  -8.045  -9.376  0.00  0.00    +0.000 C 
ATOM     18  C   UNL     1      -8.197  -6.948  -8.732  0.00  0.00    +0.002 C 
ATOM     19  C   UNL     1      -7.287  -5.824  -8.232  0.00  0.00    +0.022 C 
ENDBRANCH  11  14
ENDBRANCH   4   8
BRANCH   1  20
ATOM     20  C   UNL     1      -1.907  -3.133  -0.007  0.00  0.00    +0.071 C 
BRANCH  20  24
ATOM     21  C   UNL     1      -0.018   1.503   0.010  0.00  0.00    +0.075 C 
ATOM     22  C   UNL     1       0.002  -0.004   0.002  0.00  0.00    +0.098 A 
ATOM     23  N   UNL     1      -0.998  -0.836   0.002  0.00  0.00    -0.170 NA
ATOM     24  N   UNL     1      -0.781  -2.195  -0.007  0.00  0.00    -0.267 N 
ATOM     25  C   UNL     1       0.498  -2.648  -0.016  0.00  0.00    +0.142 A 
ATOM     26  S   UNL     1       1.084  -4.257  -0.028  0.00  0.00    -0.023 S 
ATOM     27  S   UNL     1       1.405  -1.109  -0.018  0.00  0.00    -0.046 S 
ENDBRANCH  20  24
ENDBRANCH   1  20
TORSDOF 4
