REMARK  Name = ZINC12042755
REMARK  9 active torsions:
REMARK  status: ('A' for Active; 'I' for Inactive)
REMARK    1  A    between atoms: C_1  and  O_2
REMARK    2  A    between atoms: O_2  and  C_3
REMARK    3  A    between atoms: C_8  and  N_9
REMARK    4  A    between atoms: C_10  and  C_12
REMARK    5  A    between atoms: C_20  and  C_21
REMARK    6  A    between atoms: C_20  and  N_66
REMARK    7  A    between atoms: C_24  and  O_27
REMARK    8  A    between atoms: O_27  and  C_28
REMARK    9  A    between atoms: C_28  and  C_29
REMARK                            x       y       z     vdW  Elec       q    Type
REMARK                         _______ _______ _______ _____ _____    ______ ____
ROOT
ATOM      1  C   UNL     1       4.753   4.420  -0.109  0.00  0.00    +0.082 C 
ATOM      2  C   UNL     1       5.130   5.199   1.153  0.00  0.00    +0.020 C 
ATOM      3  C   UNL     1       4.563   5.935  -0.059  0.00  0.00    -0.021 C 
ATOM      4  C   UNL     1       3.131   6.473   0.035  0.00  0.00    -0.011 C 
ATOM      5  C   UNL     1       2.628   6.777  -1.380  0.00  0.00    -0.078 C 
ATOM      6  C   UNL     1       4.876   7.087  -2.243  0.00  0.00    -0.078 C 
ATOM      7  C   UNL     1       5.521   6.803  -0.882  0.00  0.00    -0.011 C 
ATOM      8  N   UNL     1       3.561   7.728  -2.024  0.00  0.00    +0.382 N 
ATOM      9  H   UNL     1       3.686   8.539  -1.407  0.00  0.00    -0.081 HD
ENDROOT
BRANCH   1  11
ATOM     10  N   UNL     1       3.193   2.777  -1.101  0.00  0.00    -0.282 N 
ATOM     11  C   UNL     1       3.516   3.561  -0.054  0.00  0.00    +0.221 C 
ATOM     12  O   UNL     1       2.812   3.576   0.933  0.00  0.00    -0.275 OA
ATOM     13  H   UNL     1       3.797   2.703  -1.857  0.00  0.00    +0.155 HD
BRANCH  10  19
ATOM     14  C   UNL     1       1.855   0.907  -1.857  0.00  0.00    +0.141 A 
ATOM     15  C   UNL     1       0.658   0.209  -1.851  0.00  0.00    +0.047 A 
ATOM     16  C   UNL     1      -0.404   0.665  -1.092  0.00  0.00    +0.004 A 
ATOM     17  C   UNL     1      -0.276   1.817  -0.338  0.00  0.00    +0.002 A 
ATOM     18  C   UNL     1       0.915   2.519  -0.339  0.00  0.00    +0.027 A 
ATOM     19  C   UNL     1       1.985   2.067  -1.098  0.00  0.00    +0.076 A 
BRANCH  14  21
ATOM     20  C   UNL     1       2.694  -0.737  -3.357  0.00  0.00    +0.277 C 
ATOM     21  O   UNL     1       2.900   0.460  -2.603  0.00  0.00    -0.493 OA
ENDBRANCH  14  21
ENDBRANCH  10  19
ENDBRANCH   1  11
BRANCH   8  22
ATOM     22  C   UNL     1       3.003   8.186  -3.312  0.00  0.00    -0.043 C 
BRANCH  22  23
ATOM     23  C   UNL     1       1.778   9.020  -3.039  0.00  0.00    -0.064 A 
ATOM     24  C   UNL     1       0.532   8.422  -2.996  0.00  0.00    +0.005 A 
ATOM     25  C   UNL     1      -0.593   9.183  -2.740  0.00  0.00    +0.046 A 
ATOM     26  C   UNL     1      -0.472  10.550  -2.538  0.00  0.00    +0.121 A 
ATOM     27  C   UNL     1       0.779  11.149  -2.588  0.00  0.00    +0.046 A 
ATOM     28  C   UNL     1       1.900  10.382  -2.838  0.00  0.00    +0.005 A 
BRANCH  26  29
ATOM     29  O   UNL     1      -1.577  11.302  -2.292  0.00  0.00    -0.487 OA
BRANCH  29  30
ATOM     30  C   UNL     1      -2.832  10.618  -2.255  0.00  0.00    +0.264 C 
BRANCH  30  31
ATOM     31  C   UNL     1      -3.934  11.606  -1.971  0.00  0.00    -0.010 A 
ATOM     32  C   UNL     1      -4.307  11.869  -0.667  0.00  0.00    +0.007 A 
ATOM     33  C   UNL     1      -5.315  12.779  -0.406  0.00  0.00    +0.000 A 
ATOM     34  C   UNL     1      -5.956  13.418  -1.451  0.00  0.00    +0.000 A 
ATOM     35  C   UNL     1      -5.586  13.151  -2.756  0.00  0.00    +0.000 A 
ATOM     36  C   UNL     1      -4.575  12.245  -3.016  0.00  0.00    +0.007 A 
ENDBRANCH  30  31
ENDBRANCH  29  30
ENDBRANCH  26  29
ENDBRANCH  22  23
ENDBRANCH   8  22
TORSDOF 8
