REMARK  Name = ZINC20830354
REMARK  6 active torsions:
REMARK  status: ('A' for Active; 'I' for Inactive)
REMARK    1  A    between atoms: C_5  and  C_7
REMARK    2  A    between atoms: C_10  and  S_13
REMARK    3  A    between atoms: N_11  and  N_12
REMARK    4  A    between atoms: S_13  and  C_14
REMARK    5  A    between atoms: C_14  and  C_15
REMARK    6  A    between atoms: C_18  and  C_20
REMARK                            x       y       z     vdW  Elec       q    Type
REMARK                         _______ _______ _______ _____ _____    ______ ____
ROOT
ATOM      1  C   UNL     1       0.004  -0.006   0.005  0.00  0.00    +0.183 A 
ATOM      2  N   UNL     1      -0.010   1.299   0.144  0.00  0.00    -0.127 NA
ATOM      3  N   UNL     1       1.188   1.760   0.085  0.00  0.00    -0.121 NA
ATOM      4  C   UNL     1       2.041   0.776  -0.095  0.00  0.00    +0.209 A 
ATOM      5  N   UNL     1       1.318  -0.381  -0.152  0.00  0.00    -0.224 N 
ENDROOT
BRANCH   1  10
ATOM      6  C   UNL     1      -2.256  -2.901   0.792  0.00  0.00    +0.001 A 
ATOM      7  C   UNL     1      -3.372  -2.586   0.037  0.00  0.00    +0.001 A 
ATOM      8  C   UNL     1      -3.393  -1.434  -0.730  0.00  0.00    +0.016 A 
ATOM      9  C   UNL     1      -2.301  -0.588  -0.740  0.00  0.00    +0.029 A 
ATOM     10  C   UNL     1      -1.171  -0.904   0.016  0.00  0.00    +0.035 A 
ATOM     11  C   UNL     1      -1.157  -2.068   0.787  0.00  0.00    +0.013 A 
ATOM     12 BR   UNL     1      -2.335   0.990  -1.781  0.00  0.00    -0.050 Br
ENDBRANCH   1  10
BRANCH   5  13
ATOM     13  N   UNL     1       1.800  -1.647  -0.329  0.00  0.00    -0.295 N 
ATOM     14  H   UNL     1       2.881  -1.813  -0.444  0.00  0.00    +0.163 HD
ATOM     15  H   UNL     1       1.106  -2.501  -0.357  0.00  0.00    +0.163 HD
ENDBRANCH   5  13
BRANCH   4  16
ATOM     16  S   UNL     1       3.791   0.923  -0.237  0.00  0.00    -0.075 S 
BRANCH  16  17
ATOM     17  C   UNL     1       3.971   2.716  -0.064  0.00  0.00    +0.175 C 
BRANCH  17  18
ATOM     18  C   UNL     1       5.428   3.086  -0.156  0.00  0.00    +0.228 A 
ATOM     19  N   UNL     1       6.079   3.386  -1.246  0.00  0.00    -0.111 NA
ATOM     20  N   UNL     1       7.304   3.651  -0.956  0.00  0.00    -0.107 NA
ATOM     21  C   UNL     1       7.479   3.528   0.339  0.00  0.00    +0.248 A 
ATOM     22  O   UNL     1       6.292   3.173   0.870  0.00  0.00    -0.419 OA
BRANCH  21  23
ATOM     23  C   UNL     1       8.741   3.743   1.078  0.00  0.00    +0.039 A 
ATOM     24  C   UNL     1       8.778   3.580   2.463  0.00  0.00    +0.016 A 
ATOM     25  C   UNL     1       9.959   3.777   3.147  0.00  0.00    +0.039 A 
ATOM     26  C   UNL     1      11.106   4.147   2.462  0.00  0.00    +0.123 A 
ATOM     27  C   UNL     1      11.074   4.315   1.087  0.00  0.00    +0.039 A 
ATOM     28  C   UNL     1       9.899   4.116   0.393  0.00  0.00    +0.016 A 
ATOM     29  F   UNL     1      12.260   4.344   3.137  0.00  0.00    -0.205 F 
ENDBRANCH  21  23
ENDBRANCH  17  18
ENDBRANCH  16  17
ENDBRANCH   4  16
TORSDOF 6
