REMARK  Name = ZINC39561146
REMARK  10 active torsions:
REMARK  status: ('A' for Active; 'I' for Inactive)
REMARK    1  A    between atoms: C_1  and  C_2
REMARK    2  A    between atoms: C_4  and  C_28
REMARK    3  A    between atoms: C_5  and  N_9
REMARK    4  A    between atoms: C_6  and  C_8
REMARK    5  A    between atoms: C_10  and  C_12
REMARK    6  A    between atoms: C_12  and  C_14
REMARK    7  A    between atoms: C_12  and  O_15
REMARK    8  A    between atoms: O_15  and  C_16
REMARK    9  A    between atoms: C_16  and  C_18
REMARK   10  A    between atoms: C_20  and  N_26
REMARK                            x       y       z     vdW  Elec       q    Type
REMARK                         _______ _______ _______ _____ _____    ______ ____
ROOT
ATOM      1  C   UNL     1       0.399  -6.476   0.969  0.00  0.00    +0.259 C 
ATOM      2  C   UNL     1       1.461  -6.920  -0.039  0.00  0.00    +0.062 C 
ENDROOT
BRANCH   1   4
ATOM      3  N   UNL     1      -0.052  -4.280  -0.077  0.00  0.00    -0.282 N 
ATOM      4  C   UNL     1       0.345  -4.970   1.011  0.00  0.00    +0.258 C 
ATOM      5  O   UNL     1       0.659  -4.380   2.022  0.00  0.00    -0.271 OA
ATOM      6  H   UNL     1      -0.370  -4.753  -0.862  0.00  0.00    +0.155 HD
BRANCH   3  11
ATOM      7  C   UNL     1       0.137   1.390  -0.065  0.00  0.00    +0.044 C 
ATOM      8  C   UNL     1       0.086  -0.116  -0.068  0.00  0.00    -0.050 A 
ATOM      9  C   UNL     1       0.759  -0.827  -1.045  0.00  0.00    +0.008 A 
ATOM     10  C   UNL     1       0.715  -2.207  -1.051  0.00  0.00    -0.029 A 
ATOM     11  C   UNL     1      -0.005  -2.882  -0.074  0.00  0.00    +0.039 A 
ATOM     12  C   UNL     1      -0.679  -2.165   0.906  0.00  0.00    -0.029 A 
ATOM     13  C   UNL     1      -0.627  -0.785   0.909  0.00  0.00    +0.008 A 
ATOM     14  C   UNL     1      -1.463  -2.893   1.968  0.00  0.00    +0.045 C 
ATOM     15  C   UNL     1       1.448  -2.981  -2.117  0.00  0.00    +0.045 C 
ENDBRANCH   3  11
ENDBRANCH   1   4
BRANCH   1  16
ATOM     16  O   UNL     1       0.734  -6.976   2.265  0.00  0.00    -0.448 OA
BRANCH  16  17
ATOM     17  C   UNL     1       0.248  -8.188   2.598  0.00  0.00    +0.360 C 
ATOM     18  O   UNL     1      -0.441  -8.803   1.809  0.00  0.00    -0.243 OA
BRANCH  17  19
ATOM     19  C   UNL     1       0.553  -8.769   3.923  0.00  0.00    +0.169 A 
ATOM     20  C   UNL     1       0.052 -10.024   4.257  0.00  0.00    +0.095 A 
ATOM     21  C   UNL     1       0.350 -10.559   5.511  0.00  0.00    +0.067 A 
ATOM     22  C   UNL     1       1.141  -9.808   6.380  0.00  0.00    +0.100 A 
ATOM     23  C   UNL     1       1.602  -8.566   5.974  0.00  0.00    +0.150 A 
ATOM     24  N   UNL     1       1.308  -8.090   4.782  0.00  0.00    -0.226 NA
ATOM     25 CL   UNL     1       2.587  -7.626   7.050  0.00  0.00    -0.060 Cl
ATOM     26 CL   UNL     1       1.543 -10.422   7.953  0.00  0.00    -0.078 Cl
ATOM     27 CL   UNL     1      -0.928 -10.910   3.132  0.00  0.00    -0.079 Cl
BRANCH  21  28
ATOM     28  N   UNL     1      -0.131 -11.811   5.886  0.00  0.00    -0.356 N 
ATOM     29  H   UNL     1      -0.681 -12.323   5.273  0.00  0.00    +0.142 HD
ATOM     30  H   UNL     1       0.083 -12.171   6.761  0.00  0.00    +0.142 HD
ENDBRANCH  21  28
ENDBRANCH  17  19
ENDBRANCH  16  17
ENDBRANCH   1  16
TORSDOF 6
