REMARK  Name = ZINC12557557
REMARK  7 active torsions:
REMARK  status: ('A' for Active; 'I' for Inactive)
REMARK    1  A    between atoms: C_1  and  C_2
REMARK    2  A    between atoms: C_11  and  N_28
REMARK    3  A    between atoms: C_13  and  S_15
REMARK    4  A    between atoms: S_15  and  C_16
REMARK    5  A    between atoms: C_16  and  C_17
REMARK    6  A    between atoms: C_17  and  O_19
REMARK    7  A    between atoms: O_19  and  C_20
REMARK                            x       y       z     vdW  Elec       q    Type
REMARK                         _______ _______ _______ _____ _____    ______ ____
ROOT
ATOM      1  C   UNL     1       3.153   2.076  -2.207  0.00  0.00    +0.008 C 
ATOM      2  C   UNL     1       1.846   1.375  -1.833  0.00  0.00    -0.009 C 
ATOM      3  C   UNL     1       1.235   2.043  -0.597  0.00  0.00    +0.008 C 
ATOM      4  C   UNL     1      -0.182   1.516  -0.370  0.00  0.00    +0.037 C 
ATOM      5  C   UNL     1      -0.143  -0.009  -0.337  0.00  0.00    -0.025 A 
ATOM      6  C   UNL     1       0.909  -0.681  -0.856  0.00  0.00    -0.004 A 
ATOM      7  S   UNL     1       0.537  -2.399  -0.604  0.00  0.00    -0.073 S 
ATOM      8  C   UNL     1      -1.025  -2.217   0.193  0.00  0.00    +0.115 A 
ATOM      9  C   UNL     1      -1.210  -0.812   0.240  0.00  0.00    +0.051 A 
ATOM     10  C   UNL     1      -2.412  -0.338   0.841  0.00  0.00    +0.129 A 
ATOM     11  N   UNL     1      -3.241  -1.272   1.300  0.00  0.00    -0.207 NA
ATOM     12  C   UNL     1      -3.005  -2.574   1.223  0.00  0.00    +0.191 A 
ATOM     13  N   UNL     1      -1.899  -3.080   0.672  0.00  0.00    -0.214 NA
ATOM     14  C   UNL     1       2.127  -0.098  -1.504  0.00  0.00    +0.046 C 
ENDROOT
BRANCH  10  15
ATOM     15  N   UNL     1      -2.699   1.011   0.943  0.00  0.00    -0.343 N 
ATOM     16  H   UNL     1      -2.214   1.652   0.400  0.00  0.00    +0.144 HD
ATOM     17  H   UNL     1      -3.384   1.316   1.557  0.00  0.00    +0.144 HD
ENDBRANCH  10  15
BRANCH  12  18
ATOM     18  S   UNL     1      -4.204  -3.687   1.877  0.00  0.00    -0.075 S 
BRANCH  18  19
ATOM     19  C   UNL     1      -5.439  -2.504   2.470  0.00  0.00    +0.197 C 
BRANCH  19  20
ATOM     20  C   UNL     1      -6.593  -3.251   3.089  0.00  0.00    +0.318 C 
ATOM     21  O   UNL     1      -6.581  -4.459   3.124  0.00  0.00    -0.250 OA
BRANCH  20  22
ATOM     22  O   UNL     1      -7.633  -2.575   3.600  0.00  0.00    -0.459 OA
BRANCH  22  23
ATOM     23  C   UNL     1      -8.709  -3.359   4.179  0.00  0.00    +0.199 C 
ATOM     24  C   UNL     1      -9.381  -2.563   5.311  0.00  0.00    +0.069 C 
ATOM     25  C   UNL     1     -10.712  -3.242   5.715  0.00  0.00    +0.169 C 
ATOM     26  S   UNL     1     -11.229  -4.075   4.159  0.00  0.00    -0.027 S 
ATOM     27  O   UNL     1     -11.256  -5.480   4.374  0.00  0.00    -0.174 OA
ATOM     28  O   UNL     1     -12.383  -3.424   3.647  0.00  0.00    -0.174 OA
ATOM     29  C   UNL     1      -9.783  -3.660   3.095  0.00  0.00    +0.210 C 
ENDBRANCH  22  23
ENDBRANCH  20  22
ENDBRANCH  19  20
ENDBRANCH  18  19
ENDBRANCH  12  18
TORSDOF 6
