REMARK  Name = ZINC10246864
REMARK  6 active torsions:
REMARK  status: ('A' for Active; 'I' for Inactive)
REMARK    1  A    between atoms: C_1  and  C_2
REMARK    2  A    between atoms: C_6  and  N_8
REMARK    3  A    between atoms: C_10  and  C_15
REMARK    4  A    between atoms: N_17  and  C_18
REMARK    5  A    between atoms: C_26  and  C_27
REMARK    6  A    between atoms: N_29  and  C_30
REMARK                            x       y       z     vdW  Elec       q    Type
REMARK                         _______ _______ _______ _____ _____    ______ ____
ROOT
ATOM      1  C   UNL     1      -3.661   1.704  -0.032  0.00  0.00    +0.092 A 
ATOM      2  C   UNL     1      -4.636   0.694   0.397  0.00  0.00    +0.042 A 
ATOM      3  C   UNL     1      -5.990   0.733   0.734  0.00  0.00    +0.013 A 
ATOM      4  C   UNL     1      -6.628  -0.416   1.108  0.00  0.00    +0.001 A 
ATOM      5  C   UNL     1      -5.939  -1.619   1.156  0.00  0.00    +0.004 A 
ATOM      6  C   UNL     1      -4.602  -1.678   0.828  0.00  0.00    +0.047 A 
ATOM      7  C   UNL     1      -3.932  -0.522   0.443  0.00  0.00    +0.138 A 
ATOM      8  O   UNL     1      -2.659  -0.276   0.074  0.00  0.00    -0.448 OA
ATOM      9  C   UNL     1      -2.483   1.033  -0.213  0.00  0.00    +0.212 A 
ENDROOT
BRANCH   1  12
ATOM     10  C   UNL     1      -5.075   3.487  -0.698  0.00  0.00    +0.222 C 
ATOM     11  O   UNL     1      -5.976   2.696  -0.874  0.00  0.00    -0.275 OA
ATOM     12  N   UNL     1      -3.889   3.062  -0.218  0.00  0.00    -0.282 N 
ATOM     13  H   UNL     1      -3.195   3.705  -0.004  0.00  0.00    +0.155 HD
BRANCH  10  16
ATOM     14  N   UNL     1      -6.495   6.237  -2.630  0.00  0.00    -0.271 N 
ATOM     15  C   UNL     1      -6.681   5.188  -1.620  0.00  0.00    +0.127 C 
ATOM     16  C   UNL     1      -5.281   4.946  -1.014  0.00  0.00    +0.102 C 
ATOM     17  C   UNL     1      -4.355   5.398  -2.168  0.00  0.00    +0.110 C 
ATOM     18  C   UNL     1      -5.199   6.373  -2.960  0.00  0.00    +0.221 C 
ATOM     19  O   UNL     1      -4.768   7.162  -3.773  0.00  0.00    -0.275 OA
BRANCH  14  25
ATOM     20  C   UNL     1     -11.251   7.479  -2.700  0.00  0.00    +0.044 C 
ATOM     21  C   UNL     1      -9.848   7.621  -3.231  0.00  0.00    -0.049 A 
ATOM     22  C   UNL     1      -9.585   8.505  -4.262  0.00  0.00    +0.003 A 
ATOM     23  C   UNL     1      -8.299   8.637  -4.752  0.00  0.00    +0.002 A 
ATOM     24  C   UNL     1      -7.271   7.891  -4.209  0.00  0.00    +0.023 A 
ATOM     25  C   UNL     1      -7.532   6.999  -3.178  0.00  0.00    +0.037 A 
ATOM     26  C   UNL     1      -8.826   6.868  -2.688  0.00  0.00    +0.027 A 
ENDBRANCH  14  25
ENDBRANCH  10  16
ENDBRANCH   1  12
BRANCH   9  27
ATOM     27  C   UNL     1      -1.225   1.640  -0.645  0.00  0.00    +0.285 C 
ATOM     28  O   UNL     1      -1.149   2.847  -0.790  0.00  0.00    -0.266 OA
ATOM     29  N   UNL     1      -0.149   0.864  -0.882  0.00  0.00    -0.279 N 
ATOM     30  H   UNL     1      -0.227  -0.102  -0.833  0.00  0.00    +0.155 HD
BRANCH  29  31
ATOM     31  C   UNL     1       1.081   1.451  -1.204  0.00  0.00    +0.037 A 
ATOM     32  C   UNL     1       2.263   0.878  -0.755  0.00  0.00    +0.027 A 
ATOM     33  C   UNL     1       3.477   1.453  -1.077  0.00  0.00    +0.051 A 
ATOM     34  C   UNL     1       3.518   2.610  -1.840  0.00  0.00    +0.166 A 
ATOM     35  C   UNL     1       2.334   3.190  -2.287  0.00  0.00    +0.168 A 
ATOM     36  C   UNL     1       1.117   2.609  -1.969  0.00  0.00    +0.072 A 
ATOM     37  O   UNL     1       2.640   4.307  -3.010  0.00  0.00    -0.453 OA
ATOM     38  C   UNL     1       4.035   4.178  -3.344  0.00  0.00    +0.466 C 
ATOM     39  O   UNL     1       4.567   3.364  -2.282  0.00  0.00    -0.453 OA
ENDBRANCH  29  31
ENDBRANCH   9  27
TORSDOF 5
