REMARK  Name = ZINC63567106
REMARK  3 active torsions:
REMARK  status: ('A' for Active; 'I' for Inactive)
REMARK    1  A    between atoms: C_6  and  N_7
REMARK    2  A    between atoms: C_11  and  C_13
REMARK    3  A    between atoms: C_13  and  N_14
REMARK                            x       y       z     vdW  Elec       q    Type
REMARK                         _______ _______ _______ _____ _____    ______ ____
ROOT
ATOM      1  N   UNL     1      -1.202  -0.721   0.011  0.00  0.00    -0.269 N 
ATOM      2  C   UNL     1      -2.375  -0.068   0.128  0.00  0.00    +0.310 C 
ATOM      3  O   UNL     1      -2.395   1.148   0.135  0.00  0.00    -0.252 OA
ATOM      4  N   UNL     1      -3.525  -0.762   0.237  0.00  0.00    -0.239 N 
ATOM      5  C   UNL     1      -4.698  -0.108   0.355  0.00  0.00    +0.234 C 
ATOM      6  O   UNL     1      -4.718   1.104   0.362  0.00  0.00    -0.274 OA
ATOM      7  H   UNL     1      -1.191  -1.688  -0.073  0.00  0.00    +0.156 HD
ATOM      8  H   UNL     1      -3.508  -1.732   0.232  0.00  0.00    +0.159 HD
ENDROOT
BRANCH   1  14
ATOM      9  C   UNL     1       0.122   1.154   0.764  0.00  0.00    +0.027 A 
ATOM     10  C   UNL     1       1.309   1.861   0.764  0.00  0.00    +0.051 A 
ATOM     11  C   UNL     1       2.383   1.417   0.010  0.00  0.00    +0.166 A 
ATOM     12  C   UNL     1       2.266   0.255  -0.749  0.00  0.00    +0.168 A 
ATOM     13  C   UNL     1       1.076  -0.454  -0.748  0.00  0.00    +0.073 A 
ATOM     14  C   UNL     1       0.002  -0.005   0.009  0.00  0.00    +0.038 A 
ATOM     15  O   UNL     1       3.449   0.033  -1.393  0.00  0.00    -0.453 OA
ATOM     16  C   UNL     1       4.154   1.288  -1.345  0.00  0.00    +0.466 C 
ATOM     17  O   UNL     1       3.640   1.923  -0.159  0.00  0.00    -0.453 OA
ENDBRANCH   1  14
BRANCH   5  18
ATOM     18  C   UNL     1      -5.984  -0.884   0.477  0.00  0.00    +0.181 C 
BRANCH  18  19
ATOM     19  N   UNL     1      -7.111   0.051   0.591  0.00  0.00    -0.286 NA
ATOM     20  C   UNL     1      -7.048   0.800   1.856  0.00  0.00    +0.113 C 
ATOM     21  C   UNL     1      -8.210   1.796   1.917  0.00  0.00    +0.175 C 
ATOM     22  O   UNL     1      -9.447   1.096   1.757  0.00  0.00    -0.374 OA
ATOM     23  C   UNL     1      -9.534   0.365   0.532  0.00  0.00    +0.135 C 
ATOM     24  C   UNL     1      -8.394  -0.654   0.474  0.00  0.00    +0.086 C 
ATOM     25  C   UNL     1      -8.460  -1.410  -0.853  0.00  0.00    +0.021 C 
ATOM     26  C   UNL     1      -9.799  -2.145  -0.948  0.00  0.00    +0.002 C 
ATOM     27  C   UNL     1     -10.947  -1.136  -0.872  0.00  0.00    +0.003 C 
ATOM     28  C   UNL     1     -10.872  -0.370   0.451  0.00  0.00    +0.033 C 
ENDBRANCH  18  19
ENDBRANCH   5  18
TORSDOF 3
