REMARK  Name = ZINC30975039
REMARK  11 active torsions:
REMARK  status: ('A' for Active; 'I' for Inactive)
REMARK    1  A    between atoms: C_1  and  C_2
REMARK    2  A    between atoms: C_6  and  C_8
REMARK    3  A    between atoms: C_10  and  C_13
REMARK    4  A    between atoms: C_13  and  N_14
REMARK    5  A    between atoms: C_17  and  C_20
REMARK    6  A    between atoms: N_22  and  C_23
REMARK    7  A    between atoms: C_23  and  C_24
REMARK    8  A    between atoms: C_24  and  C_25
REMARK    9  A    between atoms: C_25  and  S_26
REMARK   10  A    between atoms: S_26  and  C_27
REMARK   11  A    between atoms: C_27  and  C_28
REMARK                            x       y       z     vdW  Elec       q    Type
REMARK                         _______ _______ _______ _____ _____    ______ ____
ROOT
ATOM      1  N   UNL     1       6.468   4.393  -1.417  0.00  0.00    +0.386 N 
ATOM      2  C   UNL     1       5.766   5.402  -2.220  0.00  0.00    -0.077 C 
ATOM      3  C   UNL     1       6.182   5.269  -3.687  0.00  0.00    -0.006 C 
ATOM      4  C   UNL     1       7.697   5.461  -3.802  0.00  0.00    +0.071 C 
ATOM      5  C   UNL     1       8.403   4.429  -2.919  0.00  0.00    -0.006 C 
ATOM      6  C   UNL     1       7.923   4.587  -1.474  0.00  0.00    -0.077 C 
ATOM      7  H   UNL     1       6.244   3.406  -1.848  0.00  0.00    -0.081 HD
ENDROOT
BRANCH   4   8
ATOM      8  C   UNL     1       8.121   5.271  -5.236  0.00  0.00    +0.216 C 
ATOM      9  O   UNL     1       8.910   4.397  -5.524  0.00  0.00    -0.276 OA
ATOM     10  N   UNL     1       7.623   6.073  -6.198  0.00  0.00    -0.315 N 
ATOM     11  H   UNL     1       6.907   6.867  -5.936  0.00  0.00    +0.149 HD
BRANCH  10  12
ATOM     12  C   UNL     1       8.035   5.889  -7.591  0.00  0.00    +0.105 C 
BRANCH  12  13
ATOM     13  C   UNL     1       7.329   6.921  -8.473  0.00  0.00    +0.029 C 
BRANCH  13  14
ATOM     14  C   UNL     1       7.759   6.729  -9.928  0.00  0.00    +0.071 C 
BRANCH  14  15
ATOM     15  S   UNL     1       6.921   7.952 -10.973  0.00  0.00    -0.156 S 
BRANCH  15  16
ATOM     16  C   UNL     1       7.531   7.593 -12.644  0.00  0.00    +0.107 C 
BRANCH  16  17
ATOM     17  C   UNL     1       6.905   8.552 -13.624  0.00  0.00    -0.002 A 
ATOM     18  C   UNL     1       5.714   8.226 -14.245  0.00  0.00    +0.007 A 
ATOM     19  C   UNL     1       5.136   9.107 -15.139  0.00  0.00    +0.000 A 
ATOM     20  C   UNL     1       5.755  10.311 -15.423  0.00  0.00    +0.003 A 
ATOM     21  C   UNL     1       6.949  10.636 -14.807  0.00  0.00    +0.038 A 
ATOM     22  C   UNL     1       7.525   9.757 -13.907  0.00  0.00    +0.127 A 
ATOM     23  F   UNL     1       8.693  10.074 -13.305  0.00  0.00    -0.205 F 
ENDBRANCH  16  17
ENDBRANCH  15  16
ENDBRANCH  14  15
ENDBRANCH  13  14
ENDBRANCH  12  13
ENDBRANCH  10  12
ENDBRANCH   4   8
BRANCH   1  24
ATOM     24  C   UNL     1       5.991   4.400  -0.028  0.00  0.00    +0.022 C 
BRANCH  24  27
ATOM     25  C   UNL     1       2.426   3.937   0.000  0.00  0.00    +0.202 A 
ATOM     26  N   UNL     1       3.675   3.417  -0.008  0.00  0.00    -0.193 NA
ATOM     27  C   UNL     1       4.485   4.447  -0.015  0.00  0.00    +0.211 A 
ATOM     28  O   UNL     1       3.724   5.546  -0.002  0.00  0.00    -0.340 OA
ATOM     29  N   UNL     1       2.551   5.239   0.006  0.00  0.00    -0.056 NA
BRANCH  25  35
ATOM     30  C   UNL     1      -2.566   3.860   0.046  0.00  0.00    +0.044 C 
ATOM     31  C   UNL     1      -1.246   3.133   0.030  0.00  0.00    -0.050 A 
ATOM     32  C   UNL     1      -1.220   1.750   0.017  0.00  0.00    +0.003 A 
ATOM     33  C   UNL     1      -0.013   1.076   0.008  0.00  0.00    +0.001 A 
ATOM     34  C   UNL     1       1.174   1.781   0.000  0.00  0.00    +0.012 A 
ATOM     35  C   UNL     1       1.154   3.174   0.008  0.00  0.00    +0.023 A 
ATOM     36  C   UNL     1      -0.066   3.848   0.022  0.00  0.00    +0.015 A 
ENDBRANCH  25  35
ENDBRANCH  24  27
ENDBRANCH   1  24
TORSDOF 10
