REMARK  Name = ZINC14277731
REMARK  6 active torsions:
REMARK  status: ('A' for Active; 'I' for Inactive)
REMARK    1  A    between atoms: C_1  and  C_2
REMARK    2  A    between atoms: C_5  and  C_25
REMARK    3  A    between atoms: C_7  and  N_8
REMARK    4  A    between atoms: C_9  and  C_11
REMARK    5  A    between atoms: C_14  and  N_20
REMARK    6  A    between atoms: C_15  and  N_17
REMARK                            x       y       z     vdW  Elec       q    Type
REMARK                         _______ _______ _______ _____ _____    ______ ____
ROOT
ATOM      1  N   UNL     1       5.709   8.418  -0.078  0.00  0.00    -0.281 N 
ATOM      2  C   UNL     1       6.427   7.291   0.097  0.00  0.00    +0.248 C 
ATOM      3  O   UNL     1       5.863   6.217   0.180  0.00  0.00    -0.270 OA
ATOM      4  H   UNL     1       6.161   9.265  -0.212  0.00  0.00    +0.155 HD
ENDROOT
BRANCH   1  11
ATOM      5  C   UNL     1       4.295  10.636   0.999  0.00  0.00    +0.045 C 
ATOM      6  C   UNL     1       3.580   9.428   0.451  0.00  0.00    -0.029 A 
ATOM      7  C   UNL     1       2.198   9.380   0.465  0.00  0.00    +0.006 A 
ATOM      8  C   UNL     1       1.536   8.280  -0.039  0.00  0.00    +0.013 A 
ATOM      9  C   UNL     1       2.261   7.205  -0.556  0.00  0.00    +0.039 A 
ATOM     10  C   UNL     1       3.655   7.252  -0.570  0.00  0.00    +0.036 A 
ATOM     11  C   UNL     1       4.311   8.365  -0.066  0.00  0.00    +0.037 A 
BRANCH   9  12
ATOM     12  C   UNL     1       1.554   6.022  -1.092  0.00  0.00    +0.228 A 
ATOM     13  N   UNL     1       2.137   4.967  -1.602  0.00  0.00    -0.209 NA
ATOM     14  C   UNL     1       1.181   4.085  -1.990  0.00  0.00    +0.111 A 
ATOM     15  C   UNL     1       1.219   2.820  -2.583  0.00  0.00    +0.051 A 
ATOM     16  C   UNL     1       0.042   2.161  -2.861  0.00  0.00    +0.043 A 
ATOM     17  C   UNL     1      -1.180   2.747  -2.560  0.00  0.00    +0.024 A 
ATOM     18  C   UNL     1      -1.232   3.993  -1.969  0.00  0.00    +0.050 A 
ATOM     19  C   UNL     1      -0.058   4.671  -1.683  0.00  0.00    +0.156 A 
ATOM     20  O   UNL     1       0.217   5.873  -1.127  0.00  0.00    -0.435 OA
ATOM     21 CL   UNL     1       0.086   0.590  -3.599  0.00  0.00    -0.083 Cl
ENDBRANCH   9  12
ENDBRANCH   1  11
BRANCH   2  22
ATOM     22  C   UNL     1       7.898   7.360   0.188  0.00  0.00    +0.039 A 
ATOM     23  C   UNL     1       8.548   8.594   0.086  0.00  0.00    +0.015 A 
ATOM     24  C   UNL     1       9.920   8.656   0.176  0.00  0.00    +0.026 A 
ATOM     25  C   UNL     1      10.661   7.491   0.357  0.00  0.00    +0.060 A 
ATOM     26  C   UNL     1      10.016   6.261   0.453  0.00  0.00    +0.148 A 
ATOM     27  C   UNL     1       8.644   6.192   0.369  0.00  0.00    +0.047 A 
BRANCH  25  28
ATOM     28  N   UNL     1      12.047   7.556   0.442  0.00  0.00    -0.328 N 
ATOM     29  C   UNL     1      12.618   8.281  -0.722  0.00  0.00    +0.105 C 
ATOM     30  C   UNL     1      14.019   8.711  -0.220  0.00  0.00    +0.020 C 
ATOM     31  C   UNL     1      13.760   9.069   1.262  0.00  0.00    +0.020 C 
ATOM     32  C   UNL     1      12.469   8.317   1.637  0.00  0.00    +0.105 C 
ENDBRANCH  25  28
BRANCH  26  33
ATOM     33  N   UNL     1      10.807   5.024   0.645  0.00  0.00    +0.058 N 
ATOM     34  O   UNL     1      10.254   3.939   0.634  0.00  0.00    -0.126 OA
ATOM     35  O   UNL     1      12.012   5.093   0.815  0.00  0.00    -0.126 OA
ENDBRANCH  26  33
ENDBRANCH   2  22
TORSDOF 5
