REMARK  Name = ZINC40659310
REMARK  7 active torsions:
REMARK  status: ('A' for Active; 'I' for Inactive)
REMARK    1  A    between atoms: C_1  and  C_2
REMARK    2  A    between atoms: C_5  and  S_8
REMARK    3  A    between atoms: S_8  and  N_11
REMARK    4  A    between atoms: N_11  and  N_12
REMARK    5  A    between atoms: C_14  and  N_32
REMARK    6  A    between atoms: C_15  and  N_19
REMARK    7  A    between atoms: N_22  and  C_25
REMARK                            x       y       z     vdW  Elec       q    Type
REMARK                         _______ _______ _______ _____ _____    ______ ____
ROOT
ATOM      1  N   UNL     1       2.563  -4.599   1.011  0.00  0.00    -0.244 N 
ATOM      2  C   UNL     1       3.247  -5.576   1.717  0.00  0.00    +0.169 A 
ATOM      3  C   UNL     1       4.093  -5.228   2.766  0.00  0.00    +0.206 A 
ATOM      4  C   UNL     1       4.756  -6.246   3.443  0.00  0.00    +0.157 A 
ATOM      5  N   UNL     1       4.559  -7.509   3.066  0.00  0.00    -0.218 NA
ATOM      6  C   UNL     1       3.750  -7.798   2.067  0.00  0.00    +0.225 A 
ATOM      7  N   UNL     1       3.100  -6.862   1.405  0.00  0.00    -0.217 NA
ATOM      8  H   UNL     1       2.675  -3.664   1.244  0.00  0.00    +0.169 HD
ENDROOT
BRANCH   4   9
ATOM      9  N   UNL     1       5.609  -5.952   4.495  0.00  0.00    -0.310 N 
ATOM     10  C   UNL     1       5.129  -5.995   5.883  0.00  0.00    +0.125 C 
ATOM     11  C   UNL     1       6.031  -6.941   6.685  0.00  0.00    +0.124 C 
ATOM     12  N   UNL     1       7.433  -6.580   6.432  0.00  0.00    -0.327 N 
ATOM     13  C   UNL     1       7.914  -6.537   5.044  0.00  0.00    +0.124 C 
ATOM     14  C   UNL     1       7.013  -5.596   4.242  0.00  0.00    +0.125 C 
BRANCH  12  15
ATOM     15  C   UNL     1       8.294  -6.283   7.493  0.00  0.00    +0.030 A 
ATOM     16  C   UNL     1       9.578  -5.821   7.237  0.00  0.00    +0.026 A 
ATOM     17  C   UNL     1      10.427  -5.528   8.287  0.00  0.00    +0.040 A 
ATOM     18  C   UNL     1       9.998  -5.694   9.593  0.00  0.00    +0.124 A 
ATOM     19  C   UNL     1       8.717  -6.154   9.850  0.00  0.00    +0.040 A 
ATOM     20  C   UNL     1       7.864  -6.444   8.803  0.00  0.00    +0.026 A 
ATOM     21  F   UNL     1      10.830  -5.407  10.618  0.00  0.00    -0.205 F 
ENDBRANCH  12  15
ENDBRANCH   4   9
BRANCH   3  22
ATOM     22  N   UNL     1       4.282  -3.811   3.151  0.00  0.00    +0.063 N 
ATOM     23  O   UNL     1       3.504  -3.282   3.911  0.00  0.00    -0.126 OA
ATOM     24  O   UNL     1       5.214  -3.183   2.705  0.00  0.00    -0.126 OA
ENDBRANCH   3  22
BRANCH   1  25
ATOM     25  N   UNL     1       1.710  -4.961  -0.040  0.00  0.00    -0.109 NA
ATOM     26  H   UNL     1       2.044  -5.503  -0.771  0.00  0.00    +0.172 HD
BRANCH  25  27
ATOM     27  S   UNL     1       0.130  -4.464  -0.033  0.00  0.00    +0.074 S 
ATOM     28  O   UNL     1      -0.419  -4.874   1.212  0.00  0.00    -0.152 OA
ATOM     29  O   UNL     1      -0.426  -4.860  -1.279  0.00  0.00    -0.152 OA
BRANCH  27  34
ATOM     30  C   UNL     1       0.156   1.570   0.002  0.00  0.00    +0.044 C 
ATOM     31  C   UNL     1       0.150   0.063  -0.006  0.00  0.00    -0.050 A 
ATOM     32  C   UNL     1       0.144  -0.621  -1.208  0.00  0.00    +0.005 A 
ATOM     33  C   UNL     1       0.139  -2.004  -1.216  0.00  0.00    +0.029 A 
ATOM     34  C   UNL     1       0.139  -2.702  -0.022  0.00  0.00    +0.107 A 
ATOM     35  C   UNL     1       0.145  -2.017   1.179  0.00  0.00    +0.029 A 
ATOM     36  C   UNL     1       0.155  -0.635   1.187  0.00  0.00    +0.005 A 
ENDBRANCH  27  34
ENDBRANCH  25  27
ENDBRANCH   1  25
TORSDOF 6
