REMARK  Name = ZINC35023493
REMARK  8 active torsions:
REMARK  status: ('A' for Active; 'I' for Inactive)
REMARK    1  A    between atoms: C_1  and  O_2
REMARK    2  A    between atoms: O_2  and  C_3
REMARK    3  A    between atoms: C_6  and  N_37
REMARK    4  A    between atoms: C_8  and  N_9
REMARK    5  A    between atoms: C_10  and  C_12
REMARK    6  A    between atoms: C_14  and  C_31
REMARK    7  A    between atoms: C_18  and  C_25
REMARK    8  A    between atoms: C_20  and  C_22
REMARK                            x       y       z     vdW  Elec       q    Type
REMARK                         _______ _______ _______ _____ _____    ______ ____
ROOT
ATOM      1  C   UNL     1      -0.627  -4.963   0.816  0.00  0.00    +0.101 C 
ATOM      2  C   UNL     1       0.023  -4.750   2.185  0.00  0.00    +0.054 C 
ATOM      3  C   UNL     1      -0.507  -5.750   3.170  0.00  0.00    -0.022 C 
ATOM      4  C   UNL     1      -1.128  -6.836   2.837  0.00  0.00    -0.022 C 
ATOM      5  C   UNL     1      -1.415  -7.241   1.421  0.00  0.00    +0.056 C 
ATOM      6  C   UNL     1      -0.532  -6.450   0.454  0.00  0.00    +0.126 C 
ENDROOT
BRANCH   5   7
ATOM      7  C   UNL     1      -1.138  -8.713   1.257  0.00  0.00    -0.040 A 
ATOM      8  C   UNL     1      -0.791  -9.478   2.355  0.00  0.00    +0.004 A 
ATOM      9  C   UNL     1      -0.537 -10.829   2.204  0.00  0.00    +0.000 A 
ATOM     10  C   UNL     1      -0.631 -11.414   0.956  0.00  0.00    +0.000 A 
ATOM     11  C   UNL     1      -0.979 -10.650  -0.142  0.00  0.00    +0.000 A 
ATOM     12  C   UNL     1      -1.237  -9.300   0.009  0.00  0.00    +0.004 A 
ENDBRANCH   5   7
BRANCH   2  13
ATOM     13  C   UNL     1      -0.286  -3.359   2.674  0.00  0.00    -0.040 A 
ATOM     14  C   UNL     1      -1.598  -2.970   2.867  0.00  0.00    +0.004 A 
ATOM     15  C   UNL     1      -1.882  -1.694   3.316  0.00  0.00    +0.000 A 
ATOM     16  C   UNL     1      -0.854  -0.806   3.572  0.00  0.00    +0.000 A 
ATOM     17  C   UNL     1       0.459  -1.196   3.380  0.00  0.00    +0.000 A 
ATOM     18  C   UNL     1       0.743  -2.473   2.935  0.00  0.00    +0.004 A 
ENDBRANCH   2  13
BRANCH   1  20
ATOM     19  N   UNL     1       0.150  -2.801  -0.102  0.00  0.00    -0.282 N 
ATOM     20  C   UNL     1       0.096  -4.142  -0.221  0.00  0.00    +0.222 C 
ATOM     21  O   UNL     1       0.629  -4.689  -1.163  0.00  0.00    -0.275 OA
ATOM     22  H   UNL     1      -0.223  -2.368   0.682  0.00  0.00    +0.155 HD
BRANCH  19  28
ATOM     23  C   UNL     1       0.236  -0.772  -1.420  0.00  0.00    +0.141 A 
ATOM     24  C   UNL     1       0.832  -0.013  -2.415  0.00  0.00    +0.050 A 
ATOM     25  C   UNL     1       1.926  -0.508  -3.100  0.00  0.00    +0.036 A 
ATOM     26  C   UNL     1       2.428  -1.760  -2.797  0.00  0.00    +0.128 A 
ATOM     27  C   UNL     1       1.840  -2.523  -1.806  0.00  0.00    +0.059 A 
ATOM     28  C   UNL     1       0.745  -2.031  -1.110  0.00  0.00    +0.078 A 
BRANCH  26  29
ATOM     29  N   UNL     1       3.599  -2.284  -3.535  0.00  0.00    +0.056 N 
ATOM     30  O   UNL     1       4.115  -1.618  -4.402  0.00  0.00    -0.126 OA
ATOM     31  O   UNL     1       4.040  -3.379  -3.271  0.00  0.00    -0.126 OA
ENDBRANCH  26  29
BRANCH  23  33
ATOM     32  C   UNL     1      -1.308   1.011  -1.117  0.00  0.00    +0.277 C 
ATOM     33  O   UNL     1      -0.840  -0.287  -0.745  0.00  0.00    -0.493 OA
ENDBRANCH  23  33
ENDBRANCH  19  28
ENDBRANCH   1  20
BRANCH   6  34
ATOM     34  C   UNL     1       0.896  -6.913   0.586  0.00  0.00    +0.361 C 
ATOM     35  O   UNL     1       1.137  -8.045   0.971  0.00  0.00    -0.246 OA
ATOM     36  O   UNL     1       1.810  -6.157   0.306  0.00  0.00    -0.246 OA
ENDBRANCH   6  34
TORSDOF 7
