REMARK  Name = ZINC39758266
REMARK  12 active torsions:
REMARK  status: ('A' for Active; 'I' for Inactive)
REMARK    1  A    between atoms: C_1  and  C_2
REMARK    2  A    between atoms: C_6  and  C_8
REMARK    3  A    between atoms: C_8  and  N_9
REMARK    4  A    between atoms: C_12  and  C_15
REMARK    5  A    between atoms: N_17  and  C_18
REMARK    6  A    between atoms: C_21  and  S_24
REMARK    7  A    between atoms: S_24  and  N_27
REMARK    8  A    between atoms: N_27  and  C_28
REMARK    9  A    between atoms: C_30  and  O_36
REMARK   10  A    between atoms: C_33  and  O_34
REMARK   11  A    between atoms: O_34  and  C_35
REMARK   12  A    between atoms: O_36  and  C_37
REMARK                            x       y       z     vdW  Elec       q    Type
REMARK                         _______ _______ _______ _____ _____    ______ ____
ROOT
ATOM      1  C   UNL     1       6.824  -4.049   5.862  0.00  0.00    +0.034 A 
ATOM      2  C   UNL     1       6.988  -5.343   6.338  0.00  0.00    +0.025 A 
ATOM      3  C   UNL     1       8.244  -5.790   6.701  0.00  0.00    +0.030 A 
ATOM      4  C   UNL     1       9.337  -4.950   6.590  0.00  0.00    +0.109 A 
ATOM      5  C   UNL     1       9.177  -3.661   6.117  0.00  0.00    +0.030 A 
ATOM      6  C   UNL     1       7.925  -3.210   5.747  0.00  0.00    +0.025 A 
ENDROOT
BRANCH   1   9
ATOM      7  C   UNL     1       5.416  -2.750   4.452  0.00  0.00    +0.220 C 
ATOM      8  O   UNL     1       6.399  -2.317   3.888  0.00  0.00    -0.275 OA
ATOM      9  N   UNL     1       5.554  -3.593   5.494  0.00  0.00    -0.285 N 
ATOM     10  H   UNL     1       4.772  -3.884   5.989  0.00  0.00    +0.155 HD
BRANCH   7  14
ATOM     11  N   UNL     1       2.080  -2.268   1.856  0.00  0.00    +0.382 N 
ATOM     12  C   UNL     1       2.766  -1.041   2.281  0.00  0.00    -0.078 C 
ATOM     13  C   UNL     1       4.164  -1.387   2.798  0.00  0.00    -0.006 C 
ATOM     14  C   UNL     1       4.041  -2.343   3.987  0.00  0.00    +0.072 C 
ATOM     15  C   UNL     1       3.260  -3.586   3.552  0.00  0.00    -0.006 C 
ATOM     16  C   UNL     1       1.895  -3.159   3.007  0.00  0.00    -0.078 C 
ATOM     17  H   UNL     1       2.636  -2.736   1.156  0.00  0.00    -0.081 HD
BRANCH  11  18
ATOM     18  C   UNL     1       0.770  -1.923   1.290  0.00  0.00    -0.043 C 
BRANCH  18  24
ATOM     19  C   UNL     1       1.287   2.519  -0.957  0.00  0.00    +0.044 C 
ATOM     20  C   UNL     1       1.209   1.016  -1.038  0.00  0.00    -0.050 A 
ATOM     21  C   UNL     1       1.315   0.385  -2.264  0.00  0.00    +0.003 A 
ATOM     22  C   UNL     1       1.245  -0.994  -2.339  0.00  0.00    +0.000 A 
ATOM     23  C   UNL     1       1.068  -1.740  -1.189  0.00  0.00    +0.002 A 
ATOM     24  C   UNL     1       0.963  -1.109   0.036  0.00  0.00    -0.064 A 
ATOM     25  C   UNL     1       1.038   0.270   0.112  0.00  0.00    +0.005 A 
ENDBRANCH  18  24
ENDBRANCH  11  18
ENDBRANCH   7  14
ENDBRANCH   1   9
BRANCH   4  26
ATOM     26  S   UNL     1      10.937  -5.524   7.054  0.00  0.00    +0.072 S 
ATOM     27  O   UNL     1      11.706  -4.372   7.371  0.00  0.00    -0.150 OA
ATOM     28  O   UNL     1      10.736  -6.584   7.979  0.00  0.00    -0.150 OA
BRANCH  26  29
ATOM     29  N   UNL     1      11.626  -6.196   5.707  0.00  0.00    -0.213 N 
ATOM     30  H   UNL     1      11.888  -7.130   5.710  0.00  0.00    +0.174 HD
BRANCH  29  31
ATOM     31  C   UNL     1      11.829  -5.417   4.562  0.00  0.00    +0.093 A 
ATOM     32  C   UNL     1      12.175  -4.079   4.685  0.00  0.00    +0.073 A 
ATOM     33  C   UNL     1      12.376  -3.310   3.549  0.00  0.00    +0.122 A 
ATOM     34  C   UNL     1      12.231  -3.877   2.292  0.00  0.00    +0.049 A 
ATOM     35  C   UNL     1      11.886  -5.210   2.167  0.00  0.00    +0.051 A 
ATOM     36  C   UNL     1      11.691  -5.984   3.298  0.00  0.00    +0.143 A 
BRANCH  36  37
ATOM     37  O   UNL     1      11.357  -7.298   3.174  0.00  0.00    -0.493 OA
ATOM     38  C   UNL     1      11.232  -7.813   1.847  0.00  0.00    +0.277 C 
ENDBRANCH  36  37
BRANCH  33  39
ATOM     39  O   UNL     1      12.716  -1.998   3.668  0.00  0.00    -0.495 OA
ATOM     40  C   UNL     1      12.907  -1.265   2.457  0.00  0.00    +0.277 C 
ENDBRANCH  33  39
ENDBRANCH  29  31
ENDBRANCH  26  29
ENDBRANCH   4  26
TORSDOF 9
