REMARK  Name = ZINC03111070
REMARK  5 active torsions:
REMARK  status: ('A' for Active; 'I' for Inactive)
REMARK    1  A    between atoms: C_3  and  C_9
REMARK    2  A    between atoms: N_10  and  N_11
REMARK    3  A    between atoms: C_12  and  C_14
REMARK    4  A    between atoms: N_17  and  C_20
REMARK    5  A    between atoms: C_23  and  C_25
REMARK                            x       y       z     vdW  Elec       q    Type
REMARK                         _______ _______ _______ _____ _____    ______ ____
ROOT
ATOM      1  C   UNL     1       3.647  -6.344  -0.084  0.00  0.00    +0.080 C 
ATOM      2  C   UNL     1       2.920  -6.881   1.152  0.00  0.00    +0.032 C 
ATOM      3  C   UNL     1       3.009  -8.409   1.166  0.00  0.00    +0.107 C 
ATOM      4  N   UNL     1       4.419  -8.818   1.189  0.00  0.00    -0.315 N 
ATOM      5  C   UNL     1       5.127  -8.354  -0.011  0.00  0.00    +0.107 C 
ATOM      6  C   UNL     1       5.101  -6.824  -0.061  0.00  0.00    +0.032 C 
ENDROOT
BRANCH   4   7
ATOM      7  C   UNL     1       4.536 -10.196   1.335  0.00  0.00    +0.117 A 
ATOM      8  C   UNL     1       4.668 -10.747   2.607  0.00  0.00    +0.079 A 
ATOM      9  C   UNL     1       4.778 -12.120   2.737  0.00  0.00    +0.037 A 
ATOM     10  C   UNL     1       4.763 -12.898   1.586  0.00  0.00    +0.072 A 
ATOM     11  C   UNL     1       4.634 -12.284   0.357  0.00  0.00    +0.096 A 
ATOM     12 CL   UNL     1       4.689  -9.725   4.011  0.00  0.00    -0.080 Cl
ATOM     13  N   UNL     1       4.519 -10.939   0.191  0.00  0.00    -0.348 N 
ATOM     14  H   UNL     1       4.424 -10.510  -0.737  0.00  0.00    +0.167 HD
BRANCH  10  15
ATOM     15  C   UNL     1       4.885 -14.397   1.680  0.00  0.00    +0.419 C 
ATOM     16  F   UNL     1       4.843 -14.949   0.395  0.00  0.00    -0.166 F 
ATOM     17  F   UNL     1       6.099 -14.729   2.290  0.00  0.00    -0.166 F 
ATOM     18  F   UNL     1       3.826 -14.905   2.440  0.00  0.00    -0.166 F 
ENDBRANCH  10  15
ENDBRANCH   4   7
BRANCH   1  20
ATOM     19  N   UNL     1       2.433  -4.189  -0.090  0.00  0.00    -0.207 N 
ATOM     20  C   UNL     1       3.614  -4.837  -0.073  0.00  0.00    +0.235 C 
ATOM     21  O   UNL     1       4.651  -4.208  -0.048  0.00  0.00    -0.274 OA
ATOM     22  H   UNL     1       1.604  -4.692  -0.109  0.00  0.00    +0.177 HD
BRANCH  19  24
ATOM     23  C   UNL     1       1.265  -2.164  -0.095  0.00  0.00    +0.139 C 
ATOM     24  N   UNL     1       2.403  -2.788  -0.079  0.00  0.00    -0.188 NA
BRANCH  23  27
ATOM     25  C   UNL     1      -0.012   1.365  -0.091  0.00  0.00    +0.021 A 
ATOM     26  C   UNL     1       0.011  -0.014  -0.101  0.00  0.00    +0.012 A 
ATOM     27  C   UNL     1       1.233  -0.690  -0.084  0.00  0.00    +0.013 A 
ATOM     28  C   UNL     1       2.427   0.039  -0.056  0.00  0.00    +0.051 A 
ATOM     29  C   UNL     1       2.389   1.418  -0.046  0.00  0.00    +0.040 A 
ATOM     30  C   UNL     1       1.173   2.080  -0.064  0.00  0.00    +0.042 A 
ATOM     31 CL   UNL     1       1.134   3.816  -0.051  0.00  0.00    -0.083 Cl
ATOM     32 CL   UNL     1       3.952  -0.791  -0.035  0.00  0.00    -0.083 Cl
ENDBRANCH  23  27
ENDBRANCH  19  24
ENDBRANCH   1  20
TORSDOF 5
