REMARK  Name = ZINC09427999
REMARK  8 active torsions:
REMARK  status: ('A' for Active; 'I' for Inactive)
REMARK    1  A    between atoms: C_1  and  C_2
REMARK    2  A    between atoms: C_6  and  C_33
REMARK    3  A    between atoms: C_7  and  O_8
REMARK    4  A    between atoms: O_8  and  C_9
REMARK    5  A    between atoms: C_9  and  C_10
REMARK    6  A    between atoms: N_12  and  C_13
REMARK    7  A    between atoms: C_14  and  C_22
REMARK    8  A    between atoms: N_24  and  C_25
REMARK                            x       y       z     vdW  Elec       q    Type
REMARK                         _______ _______ _______ _____ _____    ______ ____
ROOT
ATOM      1  C   UNL     1      -0.966   2.141  -3.579  0.00  0.00    +0.084 A 
ATOM      2  C   UNL     1      -0.171   1.655  -2.551  0.00  0.00    +0.069 A 
ATOM      3  C   UNL     1      -0.755   1.593  -1.222  0.00  0.00    -0.023 A 
ATOM      4  C   UNL     1      -2.032   2.025  -1.135  0.00  0.00    -0.004 A 
ATOM      5  S   UNL     1      -2.461   2.507  -2.783  0.00  0.00    -0.077 S 
ATOM      6  C   UNL     1      -2.886   2.077   0.095  0.00  0.00    +0.043 C 
ATOM      7  C   UNL     1      -2.223   1.217   1.181  0.00  0.00    +0.005 C 
ATOM      8  C   UNL     1      -0.735   1.582   1.262  0.00  0.00    +0.005 C 
ATOM      9  C   UNL     1      -0.013   1.086   0.008  0.00  0.00    +0.037 C 
ENDROOT
BRANCH   1  12
ATOM     10  C   UNL     1      -1.554   2.790  -5.779  0.00  0.00    +0.255 C 
ATOM     11  O   UNL     1      -2.658   3.098  -5.382  0.00  0.00    -0.272 OA
ATOM     12  N   UNL     1      -0.642   2.296  -4.918  0.00  0.00    -0.277 N 
ATOM     13  H   UNL     1       0.241   2.050  -5.236  0.00  0.00    +0.155 HD
BRANCH  10  14
ATOM     14  C   UNL     1      -1.203   2.958  -7.235  0.00  0.00    +0.324 C 
BRANCH  14  15
ATOM     15  O   UNL     1      -2.326   3.494  -7.937  0.00  0.00    -0.482 OA
BRANCH  15  22
ATOM     16  C   UNL     1      -1.375   6.028  -8.749  0.00  0.00    +0.047 C 
ATOM     17  C   UNL     1      -1.711   4.934  -9.729  0.00  0.00    -0.009 A 
ATOM     18  C   UNL     1      -1.552   5.147 -11.085  0.00  0.00    +0.007 A 
ATOM     19  C   UNL     1      -1.867   4.146 -11.985  0.00  0.00    +0.001 A 
ATOM     20  C   UNL     1      -2.334   2.926 -11.531  0.00  0.00    +0.007 A 
ATOM     21  C   UNL     1      -2.488   2.706 -10.176  0.00  0.00    -0.009 A 
ATOM     22  C   UNL     1      -2.175   3.709  -9.271  0.00  0.00    +0.127 A 
ATOM     23  C   UNL     1      -2.997   1.376  -9.682  0.00  0.00    +0.047 C 
ENDBRANCH  15  22
ENDBRANCH  14  15
ENDBRANCH  10  14
ENDBRANCH   1  12
BRANCH   2  24
ATOM     24  C   UNL     1       1.207   1.219  -2.796  0.00  0.00    +0.247 C 
ATOM     25  O   UNL     1       1.436   0.061  -3.094  0.00  0.00    -0.270 OA
ATOM     26  N   UNL     1       2.221   2.101  -2.692  0.00  0.00    -0.307 N 
ATOM     27  H   UNL     1       2.039   3.023  -2.454  0.00  0.00    +0.149 HD
BRANCH  26  28
ATOM     28  C   UNL     1       3.599   1.666  -2.937  0.00  0.00    +0.096 C 
ATOM     29  C   UNL     1       4.201   1.095  -1.642  0.00  0.00    +0.046 C 
ATOM     30  C   UNL     1       5.732   0.932  -1.800  0.00  0.00    +0.168 C 
ATOM     31  S   UNL     1       6.153   2.240  -3.023  0.00  0.00    -0.029 S 
ATOM     32  O   UNL     1       6.671   1.626  -4.195  0.00  0.00    -0.174 OA
ATOM     33  O   UNL     1       6.907   3.255  -2.374  0.00  0.00    -0.174 OA
ATOM     34  C   UNL     1       4.463   2.881  -3.378  0.00  0.00    +0.188 C 
ENDBRANCH  26  28
ENDBRANCH   2  24
TORSDOF 6
