REMARK  Name = ZINC50654115
REMARK  3 active torsions:
REMARK  status: ('A' for Active; 'I' for Inactive)
REMARK    1  A    between atoms: C_4  and  N_8
REMARK    2  A    between atoms: N_8  and  S_9
REMARK    3  A    between atoms: S_9  and  C_12
REMARK                            x       y       z     vdW  Elec       q    Type
REMARK                         _______ _______ _______ _____ _____    ______ ____
ROOT
ATOM      1  S   UNL     1       3.645  -2.309  -0.047  0.00  0.00    +0.093 S 
ATOM      2  O   UNL     1       3.113  -2.729   1.202  0.00  0.00    -0.148 OA
ATOM      3  O   UNL     1       3.088  -2.716  -1.288  0.00  0.00    -0.148 OA
ENDROOT
BRANCH   1   4
ATOM      4  C   UNL     1       5.336  -2.805  -0.067  0.00  0.00    +0.126 A 
ATOM      5  C   UNL     1       5.998  -2.991  -1.273  0.00  0.00    +0.033 A 
ATOM      6  C   UNL     1       7.325  -3.381  -1.245  0.00  0.00    +0.043 A 
ATOM      7  C   UNL     1       7.947  -3.573  -0.016  0.00  0.00    +0.094 A 
ATOM      8  N   UNL     1       7.282  -3.385   1.113  0.00  0.00    -0.348 N 
ATOM      9  C   UNL     1       6.017  -3.008   1.117  0.00  0.00    +0.113 A 
ATOM     10  N   UNL     1       9.280  -3.965   0.028  0.00  0.00    -0.345 N 
ATOM     11  H   UNL     1       9.772  -4.104  -0.797  0.00  0.00    +0.144 HD
ATOM     12  H   UNL     1       9.718  -4.100   0.882  0.00  0.00    +0.144 HD
ATOM     13  H   UNL     1       7.736  -3.526   1.959  0.00  0.00    +0.167 HD
ENDBRANCH   1   4
BRANCH   1  14
ATOM     14  N   UNL     1       3.622  -0.653  -0.037  0.00  0.00    -0.095 NA
BRANCH  14  18
ATOM     15  C   UNL     1      -0.017   1.379   0.010  0.00  0.00    +0.023 A 
ATOM     16  C   UNL     1       1.170   2.090   0.002  0.00  0.00    +0.042 A 
ATOM     17  C   UNL     1       2.379   1.420  -0.013  0.00  0.00    +0.148 A 
ATOM     18  C   UNL     1       2.401   0.029  -0.021  0.00  0.00    +0.111 A 
ATOM     19  C   UNL     1       1.208  -0.681  -0.013  0.00  0.00    +0.049 A 
ATOM     20  C   UNL     1       0.002  -0.004   0.002  0.00  0.00    +0.043 A 
ATOM     21 CL   UNL     1      -1.490  -0.891   0.012  0.00  0.00    -0.083 Cl
ATOM     22  F   UNL     1       3.537   2.115  -0.022  0.00  0.00    -0.203 F 
ENDBRANCH  14  18
ENDBRANCH   1  14
TORSDOF 3
