REMARK  Name = ZINC37350137
REMARK  4 active torsions:
REMARK  status: ('A' for Active; 'I' for Inactive)
REMARK    1  A    between atoms: C_1  and  C_2
REMARK    2  A    between atoms: C_5  and  C_9
REMARK    3  A    between atoms: C_10  and  C_15
REMARK    4  A    between atoms: C_11  and  N_14
REMARK                            x       y       z     vdW  Elec       q    Type
REMARK                         _______ _______ _______ _____ _____    ______ ____
ROOT
ATOM      1  C   UNL     1       0.058  -4.257  -0.024  0.00  0.00    +0.123 A 
ATOM      2  C   UNL     1       0.746  -5.125   0.935  0.00  0.00    +0.071 A 
ATOM      3  C   UNL     1       0.494  -6.425   0.544  0.00  0.00    +0.224 A 
ATOM      4  O   UNL     1      -0.276  -6.385  -0.554  0.00  0.00    -0.339 OA
ATOM      5  N   UNL     1      -0.542  -5.038  -0.890  0.00  0.00    -0.075 NA
ENDROOT
BRANCH   1  10
ATOM      6  C   UNL     1      -0.018   1.503   0.010  0.00  0.00    +0.047 C 
ATOM      7  C   UNL     1       0.002  -0.004   0.002  0.00  0.00    -0.015 A 
ATOM      8  C   UNL     1       0.006  -0.687  -1.201  0.00  0.00    +0.007 A 
ATOM      9  C   UNL     1       0.024  -2.067  -1.215  0.00  0.00    +0.010 A 
ATOM     10  C   UNL     1       0.039  -2.774  -0.014  0.00  0.00    +0.007 A 
ATOM     11  C   UNL     1       0.036  -2.083   1.196  0.00  0.00    +0.048 A 
ATOM     12  C   UNL     1       0.023  -0.701   1.199  0.00  0.00    +0.127 A 
ATOM     13  F   UNL     1       0.025  -0.029   2.371  0.00  0.00    -0.205 F 
ENDBRANCH   1  10
BRANCH   2  14
ATOM     14  C   UNL     1       1.554  -4.691   2.099  0.00  0.00    -0.011 A 
ATOM     15  C   UNL     1       2.737  -3.979   1.903  0.00  0.00    +0.010 A 
ATOM     16  C   UNL     1       3.485  -3.578   2.990  0.00  0.00    +0.016 A 
ATOM     17  C   UNL     1       3.064  -3.881   4.274  0.00  0.00    +0.018 A 
ATOM     18  C   UNL     1       1.891  -4.588   4.474  0.00  0.00    +0.016 A 
ATOM     19  C   UNL     1       1.132  -4.989   3.394  0.00  0.00    +0.010 A 
ATOM     20 BR   UNL     1       4.096  -3.327   5.758  0.00  0.00    -0.050 Br
ENDBRANCH   2  14
BRANCH   3  21
ATOM     21  N   UNL     1       0.954  -7.564   1.171  0.00  0.00    -0.327 N 
ATOM     22  H   UNL     1       1.508  -7.491   1.964  0.00  0.00    +0.145 HD
ATOM     23  H   UNL     1       0.723  -8.438   0.820  0.00  0.00    +0.145 HD
ENDBRANCH   3  21
TORSDOF 3
