REMARK  Name = ZINC00673420
REMARK  6 active torsions:
REMARK  status: ('A' for Active; 'I' for Inactive)
REMARK    1  A    between atoms: C_4  and  C_7
REMARK    2  A    between atoms: C_12  and  C_28
REMARK    3  A    between atoms: C_14  and  C_26
REMARK    4  A    between atoms: C_15  and  N_25
REMARK    5  A    between atoms: N_16  and  C_17
REMARK    6  A    between atoms: C_22  and  C_23
REMARK                            x       y       z     vdW  Elec       q    Type
REMARK                         _______ _______ _______ _____ _____    ______ ____
ROOT
ATOM      1  C   UNL     1      -3.415  -1.448   3.449  0.00  0.00    +0.032 C 
ATOM      2  C   UNL     1      -2.379  -2.029   2.483  0.00  0.00    +0.060 C 
ATOM      3  C   UNL     1      -2.329  -1.190   1.230  0.00  0.00    +0.025 C 
ATOM      4  C   UNL     1      -2.584   0.135   1.269  0.00  0.00    +0.025 C 
ATOM      5  C   UNL     1      -2.513   0.975   0.019  0.00  0.00    +0.097 C 
ATOM      6  C   UNL     1      -2.576   0.121  -1.213  0.00  0.00    +0.077 C 
ATOM      7  C   UNL     1      -2.325  -1.212  -1.156  0.00  0.00    +0.107 C 
ATOM      8  N   UNL     1      -2.012  -1.806   0.047  0.00  0.00    -0.259 N 
ATOM      9  C   UNL     1      -2.925   0.771   2.476  0.00  0.00    +0.162 C 
ATOM     10  O   UNL     1      -3.143   1.967   2.478  0.00  0.00    -0.292 OA
ATOM     11  C   UNL     1      -3.027   0.001   3.763  0.00  0.00    +0.088 C 
ENDROOT
BRANCH   5  12
ATOM     12  C   UNL     1      -1.220   1.749   0.017  0.00  0.00    -0.031 A 
ATOM     13  C   UNL     1      -0.013   1.076   0.008  0.00  0.00    +0.008 A 
ATOM     14  C   UNL     1       1.176   1.782   0.000  0.00  0.00    +0.050 A 
ATOM     15  C   UNL     1       1.160   3.167   0.007  0.00  0.00    +0.166 A 
ATOM     16  C   UNL     1      -0.057   3.845   0.022  0.00  0.00    +0.167 A 
ATOM     17  C   UNL     1      -1.244   3.131   0.029  0.00  0.00    +0.054 A 
ATOM     18  O   UNL     1       0.192   5.188   0.026  0.00  0.00    -0.453 OA
ATOM     19  C   UNL     1       1.569   5.322   0.426  0.00  0.00    +0.466 C 
ATOM     20  O   UNL     1       2.171   4.084   0.002  0.00  0.00    -0.453 OA
ENDBRANCH   5  12
BRANCH   1  24
ATOM     21  C   UNL     1      -3.459  -3.739   7.054  0.00  0.00    +0.000 A 
ATOM     22  C   UNL     1      -4.610  -3.617   6.298  0.00  0.00    +0.000 A 
ATOM     23  C   UNL     1      -4.596  -2.876   5.131  0.00  0.00    +0.004 A 
ATOM     24  C   UNL     1      -3.430  -2.256   4.721  0.00  0.00    -0.044 A 
ATOM     25  C   UNL     1      -2.278  -2.382   5.473  0.00  0.00    +0.004 A 
ATOM     26  C   UNL     1      -2.293  -3.120   6.642  0.00  0.00    +0.000 A 
ENDBRANCH   1  24
BRANCH   8  27
ATOM     27  C   UNL     1      -1.369  -3.043   0.061  0.00  0.00    +0.057 A 
ATOM     28  C   UNL     1       0.018  -3.108   0.059  0.00  0.00    +0.025 A 
ATOM     29  C   UNL     1       0.653  -4.334   0.079  0.00  0.00    +0.002 A 
ATOM     30  C   UNL     1      -0.085  -5.506   0.089  0.00  0.00    +0.001 A 
ATOM     31  C   UNL     1      -1.463  -5.461   0.086  0.00  0.00    +0.021 A 
ATOM     32  C   UNL     1      -2.119  -4.228   0.072  0.00  0.00    +0.073 A 
BRANCH  32  33
ATOM     33  C   UNL     1      -3.550  -4.174   0.068  0.00  0.00    +0.101 C 
ATOM     34  N   UNL     1      -4.686  -4.131   0.065  0.00  0.00    -0.191 NA
ENDBRANCH  32  33
ENDBRANCH   8  27
BRANCH   7  35
ATOM     35  N   UNL     1      -2.382  -1.970  -2.301  0.00  0.00    -0.345 N 
ATOM     36  H   UNL     1      -2.602  -1.553  -3.148  0.00  0.00    +0.144 HD
ATOM     37  H   UNL     1      -2.202  -2.923  -2.261  0.00  0.00    +0.144 HD
ENDBRANCH   7  35
BRANCH   6  38
ATOM     38  C   UNL     1      -2.907   0.722  -2.470  0.00  0.00    +0.099 C 
ATOM     39  N   UNL     1      -3.170   1.199  -3.466  0.00  0.00    -0.191 NA
ENDBRANCH   6  38
TORSDOF 6
