REMARK  Name = ZINC13223378
REMARK  7 active torsions:
REMARK  status: ('A' for Active; 'I' for Inactive)
REMARK    1  A    between atoms: C_1  and  C_2
REMARK    2  A    between atoms: C_5  and  N_8
REMARK    3  A    between atoms: C_12  and  S_13
REMARK    4  A    between atoms: S_13  and  C_14
REMARK    5  A    between atoms: C_14  and  C_15
REMARK    6  A    between atoms: N_17  and  C_18
REMARK    7  A    between atoms: C_23  and  C_24
REMARK                            x       y       z     vdW  Elec       q    Type
REMARK                         _______ _______ _______ _____ _____    ______ ____
ROOT
ATOM      1  N   UNL     1       0.008   1.353  -0.056  0.00  0.00    -0.259 N 
ATOM      2  C   UNL     1       1.306   1.788  -0.086  0.00  0.00    +0.225 A 
ATOM      3  N   UNL     1       2.085   0.735  -0.104  0.00  0.00    -0.112 NA
ATOM      4  N   UNL     1       1.273  -0.407  -0.086  0.00  0.00    -0.120 NA
ATOM      5  C   UNL     1       0.023  -0.016  -0.057  0.00  0.00    +0.198 A 
ATOM      6  N   UNL     1       1.723   3.112  -0.095  0.00  0.00    -0.299 N 
ATOM      7  C   UNL     1       1.302   3.811   1.147  0.00  0.00    +0.108 C 
ATOM      8  C   UNL     1       2.259   5.028   1.210  0.00  0.00    +0.020 C 
ATOM      9  C   UNL     1       3.594   4.446   0.690  0.00  0.00    +0.020 C 
ATOM     10  C   UNL     1       3.199   3.203  -0.129  0.00  0.00    +0.108 C 
ENDROOT
BRANCH   1  15
ATOM     11  C   UNL     1      -4.615   4.645   0.031  0.00  0.00    +0.044 C 
ATOM     12  C   UNL     1      -3.388   3.771   0.008  0.00  0.00    -0.050 A 
ATOM     13  C   UNL     1      -3.099   2.958   1.089  0.00  0.00    +0.005 A 
ATOM     14  C   UNL     1      -1.975   2.156   1.070  0.00  0.00    +0.026 A 
ATOM     15  C   UNL     1      -1.134   2.166  -0.035  0.00  0.00    +0.052 A 
ATOM     16  C   UNL     1      -1.423   2.988  -1.115  0.00  0.00    +0.026 A 
ATOM     17  C   UNL     1      -2.552   3.784  -1.093  0.00  0.00    +0.005 A 
ENDBRANCH   1  15
BRANCH   5  18
ATOM     18  S   UNL     1      -1.391  -1.067  -0.025  0.00  0.00    -0.076 S 
BRANCH  18  19
ATOM     19  C   UNL     1      -0.694  -2.741  -0.042  0.00  0.00    +0.173 C 
BRANCH  19  20
ATOM     20  C   UNL     1      -1.812  -3.752  -0.016  0.00  0.00    +0.228 C 
ATOM     21  O   UNL     1      -2.966  -3.379   0.011  0.00  0.00    -0.275 OA
ATOM     22  N   UNL     1      -1.530  -5.070  -0.024  0.00  0.00    -0.284 N 
ATOM     23  H   UNL     1      -0.611  -5.368  -0.110  0.00  0.00    +0.155 HD
BRANCH  22  24
ATOM     24  C   UNL     1      -2.557  -6.002   0.093  0.00  0.00    +0.049 A 
ATOM     25  C   UNL     1      -3.794  -5.753  -0.483  0.00  0.00    +0.044 A 
ATOM     26  C   UNL     1      -4.811  -6.682  -0.369  0.00  0.00    +0.043 A 
ATOM     27  C   UNL     1      -4.607  -7.863   0.328  0.00  0.00    +0.021 A 
ATOM     28  C   UNL     1      -3.387  -8.125   0.911  0.00  0.00    +0.018 A 
ATOM     29  C   UNL     1      -2.348  -7.197   0.800  0.00  0.00    +0.084 A 
ATOM     30 CL   UNL     1      -6.354  -6.365  -1.099  0.00  0.00    -0.083 Cl
BRANCH  29  31
ATOM     31  C   UNL     1      -1.040  -7.471   1.421  0.00  0.00    +0.388 C 
ATOM     32  O   UNL     1      -0.171  -6.622   1.407  0.00  0.00    -0.241 OA
ATOM     33  O   UNL     1      -0.808  -8.664   2.005  0.00  0.00    -0.241 OA
ENDBRANCH  29  31
ENDBRANCH  22  24
ENDBRANCH  19  20
ENDBRANCH  18  19
ENDBRANCH   5  18
TORSDOF 6
