REMARK  Name = ZINC04553415
REMARK  7 active torsions:
REMARK  status: ('A' for Active; 'I' for Inactive)
REMARK    1  A    between atoms: C_1  and  C_2
REMARK    2  A    between atoms: C_2  and  C_3
REMARK    3  A    between atoms: C_3  and  C_4
REMARK    4  A    between atoms: C_3  and  C_5
REMARK    5  A    between atoms: C_3  and  C_6
REMARK    6  A    between atoms: C_15  and  O_25
REMARK    7  A    between atoms: C_17  and  C_20
REMARK                            x       y       z     vdW  Elec       q    Type
REMARK                         _______ _______ _______ _____ _____    ______ ____
ROOT
ATOM      1  C   UNL     1       0.763  -2.041   1.233  0.00  0.00    -0.000 C 
ATOM      2  C   UNL     1       1.498  -2.551   2.476  0.00  0.00    +0.009 C 
ATOM      3  C   UNL     1       1.740  -4.057   2.357  0.00  0.00    +0.037 C 
ATOM      4  C   UNL     1       0.419  -4.741   2.038  0.00  0.00    -0.023 A 
ATOM      5  C   UNL     1      -0.631  -4.042   1.549  0.00  0.00    -0.004 A 
ATOM      6  S   UNL     1      -1.917  -5.243   1.340  0.00  0.00    -0.078 S 
ATOM      7  C   UNL     1      -1.116  -6.596   1.865  0.00  0.00    +0.080 A 
ATOM      8  C   UNL     1       0.165  -6.158   2.222  0.00  0.00    +0.068 A 
ATOM      9  C   UNL     1       1.113  -7.173   2.751  0.00  0.00    +0.220 C 
ATOM     10  N   UNL     1       0.791  -8.431   2.617  0.00  0.00    -0.220 NA
ATOM     11  C   UNL     1      -0.402  -8.910   1.931  0.00  0.00    +0.260 C 
ATOM     12  N   UNL     1      -1.491  -7.916   1.975  0.00  0.00    -0.311 N 
ATOM     13  C   UNL     1      -0.677  -2.575   1.250  0.00  0.00    +0.046 C 
ATOM     14  H   UNL     1      -2.419  -8.178   2.076  0.00  0.00    +0.149 HD
ENDROOT
BRANCH  11  15
ATOM     15  C   UNL     1      -0.059  -9.198   0.492  0.00  0.00    +0.147 A 
ATOM     16  C   UNL     1       1.140  -9.600   0.034  0.00  0.00    +0.048 A 
ATOM     17  C   UNL     1       1.016  -9.749  -1.366  0.00  0.00    +0.041 A 
ATOM     18  C   UNL     1      -0.253  -9.430  -1.681  0.00  0.00    +0.195 A 
ATOM     19  O   UNL     1      -0.900  -9.102  -0.551  0.00  0.00    -0.464 OA
ENDBRANCH  11  15
BRANCH   1  20
ATOM     20  C   UNL     1       0.742  -0.511   1.242  0.00  0.00    -0.032 C 
ATOM     21  C   UNL     1       2.178   0.019   1.231  0.00  0.00    +0.011 C 
ATOM     22  C   UNL     1       0.026  -0.018   2.500  0.00  0.00    +0.011 C 
BRANCH  20  24
ATOM     23  C   UNL     1      -0.019   1.526   0.010  0.00  0.00    +0.004 C 
ATOM     24  C   UNL     1       0.002  -0.004   0.002  0.00  0.00    +0.003 C 
ENDBRANCH  20  24
ENDBRANCH   1  20
BRANCH   9  25
ATOM     25  O   UNL     1       2.270  -6.805   3.348  0.00  0.00    -0.492 OA
ATOM     26  H   UNL     1       2.808  -7.548   3.653  0.00  0.00    +0.294 HD
ENDBRANCH   9  25
TORSDOF 4
