REMARK  Name = ZINC04123007
REMARK  11 active torsions:
REMARK  status: ('A' for Active; 'I' for Inactive)
REMARK    1  A    between atoms: C_1  and  C_2
REMARK    2  A    between atoms: C_4  and  C_33
REMARK    3  A    between atoms: C_9  and  C_11
REMARK    4  A    between atoms: C_14  and  N_17
REMARK    5  A    between atoms: N_17  and  C_18
REMARK    6  A    between atoms: C_18  and  N_20
REMARK    7  A    between atoms: C_21  and  C_23
REMARK    8  A    between atoms: C_24  and  O_31
REMARK    9  A    between atoms: C_28  and  O_29
REMARK   10  A    between atoms: O_29  and  C_30
REMARK   11  A    between atoms: O_31  and  C_32
REMARK                            x       y       z     vdW  Elec       q    Type
REMARK                         _______ _______ _______ _____ _____    ______ ____
ROOT
ATOM      1  N   UNL     1       2.998  -5.784  -0.056  0.00  0.00    -0.297 N 
ATOM      2  H   UNL     1       2.672  -6.390  -0.739  0.00  0.00    +0.154 HD
ENDROOT
BRANCH   1   6
ATOM      3  C   UNL     1       1.761  -1.804  -0.043  0.00  0.00    +0.037 A 
ATOM      4  C   UNL     1       0.839  -2.823  -0.295  0.00  0.00    +0.015 A 
ATOM      5  C   UNL     1       1.252  -4.137  -0.304  0.00  0.00    +0.024 A 
ATOM      6  C   UNL     1       2.583  -4.451  -0.051  0.00  0.00    +0.033 A 
ATOM      7  C   UNL     1       3.503  -3.439   0.205  0.00  0.00    +0.024 A 
ATOM      8  C   UNL     1       3.098  -2.123   0.210  0.00  0.00    +0.015 A 
BRANCH   3  17
ATOM      9  C   UNL     1       0.974   5.526   0.289  0.00  0.00    +0.044 C 
ATOM     10  C   UNL     1       0.656   4.062   0.125  0.00  0.00    -0.048 A 
ATOM     11  C   UNL     1      -0.640   3.666  -0.168  0.00  0.00    +0.010 A 
ATOM     12  C   UNL     1      -0.948   2.330  -0.318  0.00  0.00    -0.006 A 
ATOM     13  C   UNL     1       0.046   1.373  -0.183  0.00  0.00    +0.159 A 
ATOM     14  C   UNL     1       1.360   1.768   0.114  0.00  0.00    +0.110 A 
ATOM     15  C   UNL     1       1.656   3.126   0.267  0.00  0.00    +0.035 A 
ATOM     16  N   UNL     1       2.102   0.633   0.190  0.00  0.00    -0.209 NA
ATOM     17  C   UNL     1       1.323  -0.394  -0.039  0.00  0.00    +0.228 A 
ATOM     18  O   UNL     1       0.064   0.024  -0.270  0.00  0.00    -0.435 OA
ATOM     19  C   UNL     1      -2.361   1.911  -0.630  0.00  0.00    +0.047 C 
ENDBRANCH   3  17
ENDBRANCH   1   6
BRANCH   1  20
ATOM     20  C   UNL     1       3.849  -6.228   0.890  0.00  0.00    +0.141 C 
ATOM     21  S   UNL     1       4.312  -5.198   2.177  0.00  0.00    -0.018 S 
BRANCH  20  22
ATOM     22  N   UNL     1       4.337  -7.482   0.822  0.00  0.00    -0.263 N 
ATOM     23  C   UNL     1       5.188  -7.926   1.768  0.00  0.00    +0.257 C 
ATOM     24  O   UNL     1       5.517  -7.195   2.682  0.00  0.00    -0.270 OA
ATOM     25  H   UNL     1       4.074  -8.066   0.093  0.00  0.00    +0.157 HD
BRANCH  23  26
ATOM     26  C   UNL     1       5.721  -9.296   1.694  0.00  0.00    +0.120 A 
ATOM     27  C   UNL     1       6.910  -9.556   0.997  0.00  0.00    +0.136 A 
ATOM     28  C   UNL     1       7.405 -10.848   0.938  0.00  0.00    +0.046 A 
ATOM     29  C   UNL     1       6.725 -11.883   1.555  0.00  0.00    +0.007 A 
ATOM     30  C   UNL     1       5.549 -11.639   2.239  0.00  0.00    +0.046 A 
ATOM     31  C   UNL     1       5.039 -10.353   2.315  0.00  0.00    +0.136 A 
BRANCH  31  32
ATOM     32  O   UNL     1       3.885 -10.117   2.988  0.00  0.00    -0.494 OA
ATOM     33  C   UNL     1       3.246 -11.242   3.595  0.00  0.00    +0.277 C 
ENDBRANCH  31  32
BRANCH  27  34
ATOM     34  O   UNL     1       7.576  -8.544   0.387  0.00  0.00    -0.494 OA
ATOM     35  C   UNL     1       8.780  -8.883  -0.304  0.00  0.00    +0.277 C 
ENDBRANCH  27  34
ENDBRANCH  23  26
ENDBRANCH  20  22
ENDBRANCH   1  20
TORSDOF 7
