REMARK  Name = ZINC39767639
REMARK  14 active torsions:
REMARK  status: ('A' for Active; 'I' for Inactive)
REMARK    1  A    between atoms: C_1  and  C_2
REMARK    2  A    between atoms: C_6  and  C_8
REMARK    3  A    between atoms: N_10  and  CA_11
REMARK    4  A    between atoms: CA_11  and  C_13
REMARK    5  A    between atoms: CA_11  and  C_15
REMARK    6  A    between atoms: C_13  and  O_14
REMARK    7  A    between atoms: C_18  and  S_26
REMARK    8  A    between atoms: N_19  and  C_20
REMARK    9  A    between atoms: S_26  and  C_27
REMARK   10  A    between atoms: C_27  and  C_28
REMARK   11  A    between atoms: N_30  and  C_31
REMARK   12  A    between atoms: C_36  and  C_37
REMARK   13  A    between atoms: C_37  and  C_38
REMARK   14  A    between atoms: C_37  and  C_39
REMARK                            x       y       z     vdW  Elec       q    Type
REMARK                         _______ _______ _______ _____ _____    ______ ____
ROOT
ATOM      1  C   UNL     1       0.738  -6.273   3.451  0.00  0.00    +0.161 A 
ATOM      2  N   UNL     1       0.490  -7.081   2.459  0.00  0.00    -0.131 NA
ATOM      3  N   UNL     1       1.182  -8.157   2.581  0.00  0.00    -0.122 NA
ATOM      4  C   UNL     1       1.918  -8.095   3.667  0.00  0.00    +0.197 A 
ATOM      5  N   UNL     1       1.662  -6.887   4.255  0.00  0.00    -0.273 N 
ENDROOT
BRANCH   5   6
ATOM      6  C   UNL     1       2.226  -6.383   5.436  0.00  0.00    +0.050 A 
ATOM      7  C   UNL     1       3.030  -5.252   5.396  0.00  0.00    +0.026 A 
ATOM      8  C   UNL     1       3.583  -4.758   6.561  0.00  0.00    +0.002 A 
ATOM      9  C   UNL     1       3.338  -5.389   7.766  0.00  0.00    +0.000 A 
ATOM     10  C   UNL     1       2.538  -6.516   7.809  0.00  0.00    +0.002 A 
ATOM     11  C   UNL     1       1.976  -7.011   6.649  0.00  0.00    +0.026 A 
ENDBRANCH   5   6
BRANCH   1  12
ATOM     12  CA  UNL     1       0.128  -4.913   3.669  0.00  0.00    +0.167 C 
BRANCH  12  15
ATOM     13  C   UNL     1       0.114  -2.823   2.417  0.00  0.00    +0.245 C 
ATOM     14  O   UNL     1       0.108  -2.223   3.474  0.00  0.00    -0.270 OA
ATOM     15  N   UNL     1       0.124  -4.170   2.406  0.00  0.00    -0.299 N 
ATOM     16  H   UNL     1       0.129  -4.649   1.562  0.00  0.00    +0.150 HD
BRANCH  13  22
ATOM     17  C   UNL     1       0.085   1.522  -0.038  0.00  0.00    +0.044 C 
ATOM     18  C   UNL     1       0.096   0.015  -0.043  0.00  0.00    -0.050 A 
ATOM     19  C   UNL     1       0.103  -0.671  -1.245  0.00  0.00    +0.003 A 
ATOM     20  C   UNL     1       0.114  -2.054  -1.260  0.00  0.00    +0.001 A 
ATOM     21  C   UNL     1       0.118  -2.759  -0.074  0.00  0.00    +0.013 A 
ATOM     22  C   UNL     1       0.111  -2.074   1.142  0.00  0.00    +0.037 A 
ATOM     23  C   UNL     1       0.105  -0.678   1.149  0.00  0.00    +0.016 A 
ENDBRANCH  13  22
ENDBRANCH  12  15
BRANCH  12  24
ATOM     24  C   UNL     1      -1.309  -5.073   4.170  0.00  0.00    +0.186 C 
BRANCH  24  25
ATOM     25  O   UNL     1      -2.045  -5.888   3.255  0.00  0.00    -0.393 OA
ATOM     26  H   UNL     1      -2.966  -6.032   3.510  0.00  0.00    +0.209 HD
ENDBRANCH  24  25
ENDBRANCH  12  24
ENDBRANCH   1  12
BRANCH   4  27
ATOM     27  S   UNL     1       3.030  -9.331   4.251  0.00  0.00    -0.076 S 
BRANCH  27  28
ATOM     28  C   UNL     1       2.901 -10.655   3.018  0.00  0.00    +0.173 C 
BRANCH  28  29
ATOM     29  C   UNL     1       3.815 -11.790   3.404  0.00  0.00    +0.227 C 
ATOM     30  O   UNL     1       4.486 -11.713   4.411  0.00  0.00    -0.275 OA
ATOM     31  N   UNL     1       3.885 -12.891   2.629  0.00  0.00    -0.285 N 
ATOM     32  H   UNL     1       3.292 -12.987   1.868  0.00  0.00    +0.155 HD
BRANCH  31  33
ATOM     33  C   UNL     1       4.816 -13.894   2.922  0.00  0.00    +0.037 A 
ATOM     34  C   UNL     1       5.972 -13.586   3.628  0.00  0.00    +0.023 A 
ATOM     35  C   UNL     1       6.888 -14.579   3.916  0.00  0.00    +0.002 A 
ATOM     36  C   UNL     1       6.656 -15.878   3.501  0.00  0.00    +0.000 A 
ATOM     37  C   UNL     1       5.506 -16.187   2.797  0.00  0.00    +0.006 A 
ATOM     38  C   UNL     1       4.583 -15.200   2.512  0.00  0.00    -0.024 A 
BRANCH  38  39
ATOM     39  C   UNL     1       3.327 -15.540   1.752  0.00  0.00    +0.015 C 
ATOM     40  C   UNL     1       3.697 -16.224   0.435  0.00  0.00    +0.012 C 
ATOM     41  C   UNL     1       2.461 -16.482   2.591  0.00  0.00    +0.012 C 
ENDBRANCH  38  39
ENDBRANCH  31  33
ENDBRANCH  28  29
ENDBRANCH  27  28
ENDBRANCH   4  27
TORSDOF 11
