REMARK  Name = ZINC59367532
REMARK  11 active torsions:
REMARK  status: ('A' for Active; 'I' for Inactive)
REMARK    1  A    between atoms: C_1  and  C_2
REMARK    2  A    between atoms: C_2  and  O_3
REMARK    3  A    between atoms: O_3  and  C_4
REMARK    4  A    between atoms: C_4  and  C_6
REMARK    5  A    between atoms: C_4  and  N_21
REMARK    6  A    between atoms: C_6  and  N_8
REMARK    7  A    between atoms: C_6  and  O_18
REMARK    8  A    between atoms: C_9  and  C_11
REMARK    9  A    between atoms: O_18  and  C_19
REMARK   10  A    between atoms: C_19  and  C_20
REMARK   11  A    between atoms: C_22  and  C_24
REMARK                            x       y       z     vdW  Elec       q    Type
REMARK                         _______ _______ _______ _____ _____    ______ ____
ROOT
ATOM      1  C   UNL     1       0.746  -1.888  -1.280  0.00  0.00    +0.253 C 
ENDROOT
BRANCH   1   2
ATOM      2  N   UNL     1      -0.565  -2.419  -1.662  0.00  0.00    -0.283 N 
ATOM      3  C   UNL     1      -1.418  -2.856  -0.714  0.00  0.00    +0.246 C 
ATOM      4  O   UNL     1      -1.099  -2.810   0.458  0.00  0.00    -0.270 OA
ATOM      5  H   UNL     1      -0.820  -2.455  -2.597  0.00  0.00    +0.152 HD
BRANCH   3   6
ATOM      6  C   UNL     1      -2.740  -3.392  -1.100  0.00  0.00    +0.037 A 
ATOM      7  C   UNL     1      -3.107  -3.451  -2.445  0.00  0.00    +0.014 A 
ATOM      8  C   UNL     1      -4.342  -3.952  -2.799  0.00  0.00    +0.016 A 
ATOM      9  C   UNL     1      -5.218  -4.395  -1.822  0.00  0.00    +0.018 A 
ATOM     10  C   UNL     1      -4.860  -4.338  -0.486  0.00  0.00    +0.016 A 
ATOM     11  C   UNL     1      -3.625  -3.845  -0.120  0.00  0.00    +0.014 A 
ATOM     12 BR   UNL     1      -6.911  -5.079  -2.315  0.00  0.00    -0.050 Br
ENDBRANCH   3   6
ENDBRANCH   1   2
BRANCH   1  13
ATOM     13  O   UNL     1       0.671  -0.465  -1.174  0.00  0.00    -0.355 OA
BRANCH  13  15
ATOM     14  C   UNL     1      -0.019   1.526   0.010  0.00  0.00    +0.034 C 
ATOM     15  C   UNL     1       0.002  -0.004   0.002  0.00  0.00    +0.159 C 
ENDBRANCH  13  15
ENDBRANCH   1  13
BRANCH   1  16
ATOM     16  C   UNL     1       1.779  -2.267  -2.343  0.00  0.00    +0.253 C 
BRANCH  16  17
ATOM     17  N   UNL     1       3.110  -1.840  -1.904  0.00  0.00    -0.283 N 
ATOM     18  C   UNL     1       4.191  -2.585  -2.209  0.00  0.00    +0.246 C 
ATOM     19  O   UNL     1       4.061  -3.611  -2.848  0.00  0.00    -0.270 OA
ATOM     20  H   UNL     1       3.213  -1.022  -1.394  0.00  0.00    +0.152 HD
BRANCH  18  21
ATOM     21  C   UNL     1       5.534  -2.155  -1.766  0.00  0.00    +0.037 A 
ATOM     22  C   UNL     1       5.685  -0.980  -1.027  0.00  0.00    +0.014 A 
ATOM     23  C   UNL     1       6.941  -0.584  -0.616  0.00  0.00    +0.016 A 
ATOM     24  C   UNL     1       8.050  -1.349  -0.936  0.00  0.00    +0.018 A 
ATOM     25  C   UNL     1       7.906  -2.515  -1.669  0.00  0.00    +0.016 A 
ATOM     26  C   UNL     1       6.655  -2.925  -2.080  0.00  0.00    +0.014 A 
ATOM     27 BR   UNL     1       9.768  -0.798  -0.370  0.00  0.00    -0.050 Br
ENDBRANCH  18  21
ENDBRANCH  16  17
BRANCH  16  28
ATOM     28  O   UNL     1       1.454  -1.620  -3.575  0.00  0.00    -0.355 OA
BRANCH  28  29
ATOM     29  C   UNL     1       2.137  -2.155  -4.710  0.00  0.00    +0.159 C 
ATOM     30  C   UNL     1       1.714  -1.390  -5.966  0.00  0.00    +0.034 C 
ENDBRANCH  28  29
ENDBRANCH  16  28
ENDBRANCH   1  16
TORSDOF 9
