REMARK  Name = ZINC02242485
REMARK  5 active torsions:
REMARK  status: ('A' for Active; 'I' for Inactive)
REMARK    1  A    between atoms: C_4  and  C_7
REMARK    2  A    between atoms: C_10  and  C_12
REMARK    3  A    between atoms: C_14  and  C_29
REMARK    4  A    between atoms: C_15  and  N_28
REMARK    5  A    between atoms: C_25  and  C_26
REMARK                            x       y       z     vdW  Elec       q    Type
REMARK                         _______ _______ _______ _____ _____    ______ ____
ROOT
ATOM      1  C   UNL     1      -5.247   4.752   0.061  0.00  0.00    +0.141 C 
ATOM      2  C   UNL     1      -4.032   5.658   0.060  0.00  0.00    +0.081 C 
ATOM      3  C   UNL     1      -2.800   5.099   0.042  0.00  0.00    +0.108 C 
ATOM      4  N   UNL     1      -2.574   3.723   0.036  0.00  0.00    -0.249 N 
ATOM      5  C   UNL     1      -1.289   3.147   0.011  0.00  0.00    +0.054 A 
ATOM      6  C   UNL     1      -0.071   3.848   0.001  0.00  0.00    +0.025 A 
ATOM      7  C   UNL     1       1.127   3.174  -0.024  0.00  0.00    +0.002 A 
ATOM      8  C   UNL     1       1.173   1.790  -0.041  0.00  0.00    +0.001 A 
ATOM      9  C   UNL     1      -0.013   1.076  -0.032  0.00  0.00    +0.017 A 
ATOM     10  C   UNL     1      -1.210   1.753  -0.012  0.00  0.00    +0.036 A 
ATOM     11  S   UNL     1      -2.911   1.244  -0.002  0.00  0.00    -0.071 S 
ATOM     12  C   UNL     1      -3.648   2.865   0.025  0.00  0.00    +0.093 C 
ATOM     13  C   UNL     1      -4.957   3.264   0.042  0.00  0.00    +0.073 C 
ENDROOT
BRANCH   1  17
ATOM     14  C   UNL     1      -6.644   5.234   3.403  0.00  0.00    +0.135 A 
ATOM     15  C   UNL     1      -7.676   5.715   2.660  0.00  0.00    +0.050 A 
ATOM     16  C   UNL     1      -7.290   5.604   1.309  0.00  0.00    +0.046 A 
ATOM     17  C   UNL     1      -6.058   5.059   1.294  0.00  0.00    +0.119 A 
ATOM     18  O   UNL     1      -5.669   4.840   2.561  0.00  0.00    -0.459 OA
BRANCH  14  22
ATOM     19  C   UNL     1      -6.516   5.013   7.643  0.00  0.00    +0.000 A 
ATOM     20  C   UNL     1      -5.438   4.571   6.897  0.00  0.00    +0.001 A 
ATOM     21  C   UNL     1      -5.473   4.640   5.520  0.00  0.00    +0.011 A 
ATOM     22  C   UNL     1      -6.599   5.157   4.878  0.00  0.00    +0.017 A 
ATOM     23  C   UNL     1      -7.681   5.608   5.637  0.00  0.00    +0.011 A 
ATOM     24  C   UNL     1      -7.636   5.527   7.013  0.00  0.00    +0.001 A 
ENDBRANCH  14  22
ENDBRANCH   1  17
BRANCH   3  25
ATOM     25  N   UNL     1      -1.709   5.935   0.041  0.00  0.00    -0.345 N 
ATOM     26  H   UNL     1      -1.614   6.609   0.732  0.00  0.00    +0.144 HD
ATOM     27  H   UNL     1      -1.034   5.851  -0.651  0.00  0.00    +0.144 HD
ENDBRANCH   3  25
BRANCH  13  28
ATOM     28  C   UNL     1      -6.021   2.305   0.042  0.00  0.00    +0.098 C 
ATOM     29  N   UNL     1      -6.864   1.544   0.042  0.00  0.00    -0.191 NA
ENDBRANCH  13  28
BRANCH   2  30
ATOM     30  C   UNL     1      -4.185   7.082   0.078  0.00  0.00    +0.099 C 
ATOM     31  N   UNL     1      -4.307   8.211   0.092  0.00  0.00    -0.191 NA
ENDBRANCH   2  30
TORSDOF 5
