REMARK  Name = ZINC39678322
REMARK  8 active torsions:
REMARK  status: ('A' for Active; 'I' for Inactive)
REMARK    1  A    between atoms: C_1  and  C_2
REMARK    2  A    between atoms: C_2  and  C_3
REMARK    3  A    between atoms: C_3  and  C_5
REMARK    4  A    between atoms: C_3  and  C_11
REMARK    5  A    between atoms: C_15  and  C_24
REMARK    6  A    between atoms: N_26  and  C_27
REMARK    7  A    between atoms: C_27  and  C_28
REMARK    8  A    between atoms: C_33  and  N_34
REMARK                            x       y       z     vdW  Elec       q    Type
REMARK                         _______ _______ _______ _____ _____    ______ ____
ROOT
ATOM      1  C   UNL     1       0.721  -2.856  -1.313  0.00  0.00    +0.223 C 
ATOM      2  O   UNL     1       1.637  -3.586  -1.628  0.00  0.00    -0.275 OA
ATOM      3  N   UNL     1      -0.553  -3.250  -1.511  0.00  0.00    -0.300 N 
ATOM      4  C   UNL     1      -1.794  -2.502  -1.200  0.00  0.00    +0.121 C 
ATOM      5  C   UNL     1      -2.737  -2.801  -2.386  0.00  0.00    +0.100 C 
ATOM      6  C   UNL     1      -2.232  -4.134  -2.964  0.00  0.00    -0.004 C 
ATOM      7  C   UNL     1      -1.029  -4.528  -2.094  0.00  0.00    +0.115 C 
ATOM      8  C   UNL     1      -3.322  -5.197  -2.872  0.00  0.00    -0.010 C 
ATOM      9  C   UNL     1      -2.816  -6.496  -3.505  0.00  0.00    -0.082 C 
ATOM     10  N   UNL     1      -2.459  -6.253  -4.908  0.00  0.00    +0.379 N 
ATOM     11  C   UNL     1      -1.346  -5.298  -4.983  0.00  0.00    -0.082 C 
ATOM     12  C   UNL     1      -1.790  -3.948  -4.412  0.00  0.00    -0.010 C 
ATOM     13  H   UNL     1      -2.184  -7.122  -5.339  0.00  0.00    -0.086 HD
ATOM     14  H   UNL     1      -3.257  -5.876  -5.396  0.00  0.00    -0.086 HD
ENDROOT
BRANCH   5  15
ATOM     15  C   UNL     1      -4.158  -2.941  -1.904  0.00  0.00    +0.218 C 
ATOM     16  O   UNL     1      -4.395  -3.551  -0.883  0.00  0.00    -0.275 OA
ATOM     17  N   UNL     1      -5.166  -2.388  -2.607  0.00  0.00    -0.311 N 
ATOM     18  H   UNL     1      -4.977  -1.900  -3.424  0.00  0.00    +0.149 HD
BRANCH  17  19
ATOM     19  C   UNL     1      -6.548  -2.524  -2.138  0.00  0.00    +0.141 C 
BRANCH  19  20
ATOM     20  C   UNL     1      -7.475  -1.821  -3.096  0.00  0.00    -0.009 A 
ATOM     21  C   UNL     1      -7.945  -0.556  -2.800  0.00  0.00    +0.007 A 
ATOM     22  C   UNL     1      -8.796   0.089  -3.678  0.00  0.00    +0.000 A 
ATOM     23  C   UNL     1      -9.179  -0.528  -4.855  0.00  0.00    +0.002 A 
ATOM     24  C   UNL     1      -8.712  -1.792  -5.157  0.00  0.00    +0.023 A 
ATOM     25  C   UNL     1      -7.852  -2.442  -4.280  0.00  0.00    +0.034 A 
BRANCH  25  26
ATOM     26  N   UNL     1      -7.374  -3.718  -4.585  0.00  0.00    -0.330 N 
ATOM     27  C   UNL     1      -8.116  -4.915  -4.167  0.00  0.00    +0.105 C 
ATOM     28  C   UNL     1      -8.359  -5.798  -5.394  0.00  0.00    +0.019 C 
ATOM     29  C   UNL     1      -7.022  -6.094  -6.078  0.00  0.00    +0.003 C 
ATOM     30  C   UNL     1      -6.384  -4.783  -6.544  0.00  0.00    +0.019 C 
ATOM     31  C   UNL     1      -6.122  -3.889  -5.335  0.00  0.00    +0.105 C 
ENDBRANCH  25  26
ENDBRANCH  19  20
ENDBRANCH  17  19
ENDBRANCH   5  15
BRANCH   1  32
ATOM     32  C   UNL     1       1.006  -1.509  -0.701  0.00  0.00    +0.105 C 
BRANCH  32  33
ATOM     33  C   UNL     1       2.497  -1.313  -0.590  0.00  0.00    -0.036 A 
ATOM     34  C   UNL     1       3.255  -2.193   0.159  0.00  0.00    +0.004 A 
ATOM     35  C   UNL     1       4.622  -2.014   0.261  0.00  0.00    +0.000 A 
ATOM     36  C   UNL     1       5.230  -0.955  -0.387  0.00  0.00    +0.000 A 
ATOM     37  C   UNL     1       4.472  -0.076  -1.137  0.00  0.00    +0.000 A 
ATOM     38  C   UNL     1       3.106  -0.258  -1.242  0.00  0.00    +0.004 A 
ENDBRANCH  32  33
BRANCH  32  40
ATOM     39  C   UNL     1       0.559  -0.030   1.262  0.00  0.00    +0.005 C 
ATOM     40  C   UNL     1       0.377  -1.438   0.692  0.00  0.00    +0.014 C 
ENDBRANCH  32  40
ENDBRANCH   1  32
TORSDOF 7
