REMARK  Name = ZINC36970242
REMARK  4 active torsions:
REMARK  status: ('A' for Active; 'I' for Inactive)
REMARK    1  A    between atoms: C_1  and  C_2
REMARK    2  A    between atoms: C_9  and  O_12
REMARK    3  A    between atoms: O_12  and  C_13
REMARK    4  A    between atoms: C_18  and  N_19
REMARK                            x       y       z     vdW  Elec       q    Type
REMARK                         _______ _______ _______ _____ _____    ______ ____
ROOT
ATOM      1  C   UNL     1       0.078   1.535   0.042  0.00  0.00    +0.065 C 
ATOM      2  C   UNL     1       0.074   0.028   0.020  0.00  0.00    +0.039 A 
ATOM      3  C   UNL     1       0.080  -0.632  -1.207  0.00  0.00    +0.023 A 
ATOM      4  C   UNL     1       0.077  -1.998  -1.245  0.00  0.00    +0.012 A 
ATOM      5  C   UNL     1       0.068  -2.696  -0.023  0.00  0.00    +0.004 A 
ATOM      6  C   UNL     1       0.064  -4.101   0.016  0.00  0.00    +0.010 A 
ATOM      7  C   UNL     1       0.055  -4.743   1.217  0.00  0.00    +0.004 A 
ATOM      8  C   UNL     1       0.049  -4.027   2.411  0.00  0.00    +0.048 A 
ATOM      9  C   UNL     1       0.051  -2.661   2.413  0.00  0.00    +0.154 A 
ATOM     10  C   UNL     1       0.062  -1.962   1.188  0.00  0.00    +0.113 A 
ATOM     11  N   UNL     1       0.070  -0.626   1.156  0.00  0.00    -0.248 NA
ENDROOT
BRANCH   9  12
ATOM     12  O   UNL     1       0.044  -1.980   3.588  0.00  0.00    -0.452 OA
BRANCH  12  13
ATOM     13  C   UNL     1      -1.144  -1.492   4.036  0.00  0.00    +0.149 A 
ATOM     14  C   UNL     1      -2.316  -1.794   3.362  0.00  0.00    +0.049 A 
ATOM     15  C   UNL     1      -3.523  -1.297   3.818  0.00  0.00    +0.019 A 
ATOM     16  C   UNL     1      -3.565  -0.498   4.947  0.00  0.00    +0.020 A 
ATOM     17  C   UNL     1      -2.399  -0.194   5.626  0.00  0.00    +0.041 A 
ATOM     18  C   UNL     1      -1.185  -0.694   5.177  0.00  0.00    +0.068 A 
ATOM     19 BR   UNL     1      -5.219   0.178   5.564  0.00  0.00    -0.050 Br
BRANCH  18  20
ATOM     20  N   UNL     1      -0.004  -0.391   5.864  0.00  0.00    -0.355 N 
ATOM     21  H   UNL     1       0.844  -0.738   5.547  0.00  0.00    +0.142 HD
ATOM     22  H   UNL     1      -0.035   0.165   6.659  0.00  0.00    +0.142 HD
ENDBRANCH  18  20
ENDBRANCH  12  13
ENDBRANCH   9  12
TORSDOF 3
