REMARK  Name = ZINC67426712
REMARK  9 active torsions:
REMARK  status: ('A' for Active; 'I' for Inactive)
REMARK    1  A    between atoms: C_1  and  C_2
REMARK    2  A    between atoms: C_5  and  C_30
REMARK    3  A    between atoms: C_6  and  N_8
REMARK    4  A    between atoms: C_9  and  C_11
REMARK    5  A    between atoms: N_13  and  C_14
REMARK    6  A    between atoms: C_14  and  C_16
REMARK    7  A    between atoms: C_14  and  C_17
REMARK    8  A    between atoms: C_20  and  N_23
REMARK    9  A    between atoms: N_26  and  C_29
REMARK                            x       y       z     vdW  Elec       q    Type
REMARK                         _______ _______ _______ _____ _____    ______ ____
ROOT
ATOM      1  C   UNL     1       0.282  -2.897   4.839  0.00  0.00    +0.300 C 
ATOM      2  O   UNL     1       0.296  -4.110   4.828  0.00  0.00    -0.265 OA
ATOM      3  N   UNL     1       0.380  -2.232   6.008  0.00  0.00    -0.301 N 
ATOM      4  H   UNL     1       0.369  -1.262   6.017  0.00  0.00    +0.150 HD
ENDROOT
BRANCH   1   6
ATOM      5  N   UNL     1       0.061  -2.803   2.389  0.00  0.00    -0.278 N 
ATOM      6  C   UNL     1       0.158  -2.139   3.558  0.00  0.00    +0.303 C 
ATOM      7  O   UNL     1       0.145  -0.926   3.569  0.00  0.00    -0.265 OA
ATOM      8  H   UNL     1      -0.010  -3.771   2.386  0.00  0.00    +0.155 HD
BRANCH   5  14
ATOM      9  C   UNL     1       1.291   1.213  -0.162  0.00  0.00    +0.044 C 
ATOM     10  C   UNL     1       0.651  -0.149  -0.083  0.00  0.00    -0.049 A 
ATOM     11  C   UNL     1       0.062  -0.702  -1.206  0.00  0.00    +0.004 A 
ATOM     12  C   UNL     1      -0.526  -1.951  -1.137  0.00  0.00    +0.005 A 
ATOM     13  C   UNL     1      -0.528  -2.651   0.053  0.00  0.00    -0.029 A 
ATOM     14  C   UNL     1       0.062  -2.099   1.183  0.00  0.00    +0.037 A 
ATOM     15  C   UNL     1       0.657  -0.845   1.109  0.00  0.00    +0.027 A 
ATOM     16  C   UNL     1      -1.171  -4.012   0.127  0.00  0.00    +0.045 C 
ENDBRANCH   5  14
ENDBRANCH   1   6
BRANCH   3  17
ATOM     17  C   UNL     1       0.502  -2.975   7.265  0.00  0.00    +0.101 C 
ATOM     18  C   UNL     1      -0.891  -3.359   7.768  0.00  0.00    +0.033 C 
BRANCH  17  19
ATOM     19  C   UNL     1       1.187  -2.113   8.294  0.00  0.00    -0.027 A 
ATOM     20  C   UNL     1       0.880  -0.768   8.382  0.00  0.00    +0.007 A 
ATOM     21  C   UNL     1       1.506   0.025   9.323  0.00  0.00    +0.023 A 
ATOM     22  C   UNL     1       2.446  -0.530  10.182  0.00  0.00    +0.030 A 
ATOM     23  C   UNL     1       2.752  -1.882  10.091  0.00  0.00    +0.023 A 
ATOM     24  C   UNL     1       2.118  -2.671   9.151  0.00  0.00    +0.007 A 
BRANCH  22  25
ATOM     25  N   UNL     1       3.081   0.269  11.135  0.00  0.00    -0.333 N 
ATOM     26  C   UNL     1       4.164  -0.270  11.974  0.00  0.00    +0.086 C 
ATOM     27  C   UNL     1       5.356   0.690  11.903  0.00  0.00    -0.060 C 
ATOM     28  N   UNL     1       4.918   2.041  12.274  0.00  0.00    +0.380 N 
ATOM     29  C   UNL     1       3.950   2.541  11.289  0.00  0.00    -0.060 C 
ATOM     30  C   UNL     1       2.692   1.674  11.325  0.00  0.00    +0.086 C 
ATOM     31  C   UNL     1       6.081   2.937  12.313  0.00  0.00    -0.096 C 
ATOM     32  H   UNL     1       4.486   2.015  13.185  0.00  0.00    -0.082 HD
ENDBRANCH  22  25
ENDBRANCH  17  19
ENDBRANCH   3  17
TORSDOF 5
