REMARK  Name = ZINC35375125
REMARK  7 active torsions:
REMARK  status: ('A' for Active; 'I' for Inactive)
REMARK    1  A    between atoms: C_1  and  C_2
REMARK    2  A    between atoms: C_2  and  C_3
REMARK    3  A    between atoms: C_3  and  C_5
REMARK    4  A    between atoms: C_3  and  C_6
REMARK    5  A    between atoms: C_6  and  N_7
REMARK    6  A    between atoms: C_8  and  C_10
REMARK    7  A    between atoms: N_23  and  C_24
REMARK                            x       y       z     vdW  Elec       q    Type
REMARK                         _______ _______ _______ _____ _____    ______ ____
ROOT
ATOM      1  C   UNL     1       2.602  -4.363  -3.538  0.00  0.00    +0.028 C 
ATOM      2  C   UNL     1       1.633  -4.153  -4.741  0.00  0.00    +0.061 C 
ATOM      3  S   UNL     1       2.274  -5.463  -5.873  0.00  0.00    -0.174 S 
ATOM      4  C   UNL     1       3.137  -6.492  -4.622  0.00  0.00    -0.016 C 
ATOM      5  N   UNL     1       2.815  -5.812  -3.351  0.00  0.00    +0.397 N 
ATOM      6  C   UNL     1       2.576  -7.906  -4.640  0.00  0.00    +0.017 C 
ATOM      7  C   UNL     1       3.281  -8.751  -3.574  0.00  0.00    +0.109 C 
ATOM      8  N   UNL     1       4.733  -8.650  -3.776  0.00  0.00    -0.285 N 
ATOM      9  C   UNL     1       5.351  -7.317  -3.821  0.00  0.00    +0.109 C 
ATOM     10  C   UNL     1       4.635  -6.479  -4.887  0.00  0.00    +0.017 C 
ATOM     11  C   UNL     1       5.485  -9.759  -3.918  0.00  0.00    +0.306 C 
ATOM     12  O   UNL     1       4.978 -10.857  -3.791  0.00  0.00    -0.252 OA
ATOM     13  N   UNL     1       6.798  -9.652  -4.202  0.00  0.00    -0.268 N 
ATOM     14  H   UNL     1       3.576  -5.951  -2.704  0.00  0.00    -0.083 HD
ATOM     15  H   UNL     1       7.216  -8.777  -4.238  0.00  0.00    +0.156 HD
ATOM     16  H   UNL     1       1.977  -6.219  -2.962  0.00  0.00    -0.083 HD
ENDROOT
BRANCH  13  17
ATOM     17  C   UNL     1       7.558 -10.802  -4.445  0.00  0.00    +0.049 A 
ATOM     18  C   UNL     1       6.928 -11.997  -4.766  0.00  0.00    +0.024 A 
ATOM     19  C   UNL     1       7.681 -13.130  -5.006  0.00  0.00    +0.002 A 
ATOM     20  C   UNL     1       9.060 -13.076  -4.927  0.00  0.00    +0.001 A 
ATOM     21  C   UNL     1       9.691 -11.888  -4.607  0.00  0.00    +0.017 A 
ATOM     22  C   UNL     1       8.944 -10.749  -4.372  0.00  0.00    +0.039 A 
ATOM     23 BR   UNL     1       9.808  -9.123  -3.942  0.00  0.00    -0.048 Br
ENDBRANCH  13  17
BRANCH   1  25
ATOM     24  N   UNL     1       1.719  -2.457  -2.232  0.00  0.00    -0.316 N 
ATOM     25  C   UNL     1       1.996  -3.775  -2.290  0.00  0.00    +0.200 C 
ATOM     26  O   UNL     1       1.757  -4.487  -1.338  0.00  0.00    -0.278 OA
ATOM     27  H   UNL     1       1.910  -1.887  -2.994  0.00  0.00    +0.149 HD
BRANCH  24  28
ATOM     28  C   UNL     1       1.129  -1.885  -1.019  0.00  0.00    +0.107 C 
BRANCH  28  29
ATOM     29  C   UNL     1       0.917  -0.382  -1.215  0.00  0.00    +0.003 C 
ATOM     30  C   UNL     1      -0.120  -0.153  -2.316  0.00  0.00    +0.009 C 
BRANCH  29  32
ATOM     31  C   UNL     1       0.326   1.756  -0.066  0.00  0.00    +0.004 C 
ATOM     32  C   UNL     1       0.419   0.237   0.092  0.00  0.00    +0.001 C 
ENDBRANCH  29  32
ENDBRANCH  28  29
ENDBRANCH  24  28
ENDBRANCH   1  25
TORSDOF 5
