REMARK  Name = ZINC65594073
REMARK  7 active torsions:
REMARK  status: ('A' for Active; 'I' for Inactive)
REMARK    1  A    between atoms: C_1  and  C_2
REMARK    2  A    between atoms: C_2  and  C_3
REMARK    3  A    between atoms: C_3  and  N_4
REMARK    4  A    between atoms: C_5  and  C_7
REMARK    5  A    between atoms: C_10  and  N_13
REMARK    6  A    between atoms: N_16  and  C_17
REMARK    7  A    between atoms: C_17  and  C_21
REMARK                            x       y       z     vdW  Elec       q    Type
REMARK                         _______ _______ _______ _____ _____    ______ ____
ROOT
ATOM      1  N   UNL     1       1.388  -8.268  -2.314  0.00  0.00    -0.269 N 
ATOM      2  C   UNL     1       1.883  -8.927  -3.381  0.00  0.00    +0.305 C 
ATOM      3  O   UNL     1       2.389  -8.308  -4.296  0.00  0.00    -0.252 OA
ATOM      4  N   UNL     1       1.818 -10.273  -3.432  0.00  0.00    -0.290 N 
ATOM      5  H   UNL     1       1.044  -8.764  -1.555  0.00  0.00    +0.156 HD
ATOM      6  H   UNL     1       1.348 -10.762  -2.738  0.00  0.00    +0.151 HD
ENDROOT
BRANCH   1  10
ATOM      7  C   UNL     1       1.337  -4.104  -2.279  0.00  0.00    +0.037 A 
ATOM      8  C   UNL     1       2.392  -4.786  -2.892  0.00  0.00    +0.015 A 
ATOM      9  C   UNL     1       2.405  -6.162  -2.902  0.00  0.00    +0.024 A 
ATOM     10  C   UNL     1       1.371  -6.874  -2.303  0.00  0.00    +0.035 A 
ATOM     11  C   UNL     1       0.320  -6.198  -1.692  0.00  0.00    +0.024 A 
ATOM     12  C   UNL     1       0.303  -4.822  -1.673  0.00  0.00    +0.015 A 
BRANCH   7  14
ATOM     13  N   UNL     1       2.318  -1.937  -2.851  0.00  0.00    -0.311 N 
ATOM     14  C   UNL     1       1.320  -2.628  -2.266  0.00  0.00    +0.244 C 
ATOM     15  O   UNL     1       0.404  -2.036  -1.728  0.00  0.00    -0.270 OA
ATOM     16  H   UNL     1       3.048  -2.409  -3.280  0.00  0.00    +0.149 HD
BRANCH  13  17
ATOM     17  C   UNL     1       2.300  -0.472  -2.838  0.00  0.00    +0.104 C 
BRANCH  17  19
ATOM     18  C   UNL     1       3.520   1.589  -3.550  0.00  0.00    +0.005 C 
ATOM     19  C   UNL     1       3.538   0.059  -3.563  0.00  0.00    +0.015 C 
ENDBRANCH  17  19
ENDBRANCH  13  17
ENDBRANCH   7  14
ENDBRANCH   1  10
BRANCH   4  20
ATOM     20  C   UNL     1       2.456 -10.996  -4.535  0.00  0.00    +0.061 C 
ATOM     21  C   UNL     1       2.884 -12.426  -4.167  0.00  0.00    +0.031 C 
ATOM     22  C   UNL     1       4.225 -11.825  -3.715  0.00  0.00    +0.005 C 
ATOM     23  C   UNL     1       3.951 -10.675  -4.699  0.00  0.00    +0.031 C 
BRANCH  20  24
ATOM     24  C   UNL     1       1.675 -10.909  -5.821  0.00  0.00    -0.024 A 
ATOM     25  C   UNL     1       2.272 -11.262  -7.016  0.00  0.00    +0.007 A 
ATOM     26  C   UNL     1       1.556 -11.183  -8.196  0.00  0.00    +0.015 A 
ATOM     27  C   UNL     1       0.242 -10.750  -8.180  0.00  0.00    +0.018 A 
ATOM     28  C   UNL     1      -0.354 -10.396  -6.984  0.00  0.00    +0.015 A 
ATOM     29  C   UNL     1       0.361 -10.481  -5.804  0.00  0.00    +0.007 A 
ATOM     30 BR   UNL     1      -0.737 -10.641  -9.794  0.00  0.00    -0.050 Br
ENDBRANCH  20  24
ENDBRANCH   4  20
TORSDOF 6
