REMARK  Name = ZINC25381902
REMARK  5 active torsions:
REMARK  status: ('A' for Active; 'I' for Inactive)
REMARK    1  A    between atoms: C_5  and  C_6
REMARK    2  A    between atoms: N_8  and  C_9
REMARK    3  A    between atoms: C_9  and  C_10
REMARK    4  A    between atoms: N_12  and  N_13
REMARK    5  A    between atoms: N_13  and  C_14
REMARK                            x       y       z     vdW  Elec       q    Type
REMARK                         _______ _______ _______ _____ _____    ______ ____
ROOT
ATOM      1  C   UNL     1       3.538   5.892  -0.511  0.00  0.00    +0.246 C 
ATOM      2  O   UNL     1       4.580   5.328  -0.251  0.00  0.00    -0.273 OA
ATOM      3  N   UNL     1       2.369   5.230  -0.408  0.00  0.00    -0.235 N 
ATOM      4  H   UNL     1       1.424   5.742  -0.644  0.00  0.00    +0.173 HD
ENDROOT
BRANCH   3   5
ATOM      5  N   UNL     1       2.356   3.890   0.001  0.00  0.00    -0.262 N 
ATOM      6  H   UNL     1       3.304   3.351   0.147  0.00  0.00    +0.170 HD
BRANCH   5   7
ATOM      7  C   UNL     1       1.139   3.237   0.222  0.00  0.00    +0.081 A 
ATOM      8  C   UNL     1       1.001   1.893  -0.099  0.00  0.00    +0.066 A 
ATOM      9  C   UNL     1      -0.203   1.251   0.121  0.00  0.00    +0.042 A 
ATOM     10  C   UNL     1      -1.272   1.947   0.657  0.00  0.00    +0.044 A 
ATOM     11  C   UNL     1      -1.136   3.285   0.983  0.00  0.00    +0.042 A 
ATOM     12  C   UNL     1       0.065   3.933   0.765  0.00  0.00    +0.066 A 
ATOM     13 CL   UNL     1       0.233   5.612   1.169  0.00  0.00    -0.081 Cl
ATOM     14 CL   UNL     1      -2.785   1.139   0.927  0.00  0.00    -0.083 Cl
ATOM     15 CL   UNL     1       2.340   1.020  -0.777  0.00  0.00    -0.081 Cl
ENDBRANCH   5   7
ENDBRANCH   3   5
BRANCH   1  16
ATOM     16  C   UNL     1       3.551   7.334  -0.951  0.00  0.00    +0.202 C 
BRANCH  16  19
ATOM     17  C   UNL     1       5.189   9.093  -1.350  0.00  0.00    +0.280 C 
ATOM     18  O   UNL     1       4.274   9.835  -1.654  0.00  0.00    -0.267 OA
ATOM     19  N   UNL     1       4.932   7.822  -0.983  0.00  0.00    -0.300 N 
ATOM     20  H   UNL     1       5.759   7.151  -0.708  0.00  0.00    +0.150 HD
BRANCH  17  25
ATOM     21  C   UNL     1       6.969  10.839  -1.733  0.00  0.00    +0.056 A 
ATOM     22  C   UNL     1       8.367  10.866  -1.623  0.00  0.00    +0.058 A 
ATOM     23  C   UNL     1       8.758   9.636  -1.214  0.00  0.00    +0.171 A 
ATOM     24  O   UNL     1       7.671   8.867  -1.065  0.00  0.00    -0.444 OA
ATOM     25  C   UNL     1       6.571   9.581  -1.382  0.00  0.00    +0.191 A 
ATOM     26 BR   UNL     1      10.542   9.096  -0.898  0.00  0.00    -0.008 Br
ENDBRANCH  17  25
ENDBRANCH  16  19
ENDBRANCH   1  16
TORSDOF 5
