REMARK  Name = ZINC13175295
REMARK  10 active torsions:
REMARK  status: ('A' for Active; 'I' for Inactive)
REMARK    1  A    between atoms: C_1  and  C_2
REMARK    2  A    between atoms: C_12  and  C_14
REMARK    3  A    between atoms: C_14  and  S_15
REMARK    4  A    between atoms: S_15  and  C_16
REMARK    5  A    between atoms: C_17  and  C_38
REMARK    6  A    between atoms: C_18  and  C_30
REMARK    7  A    between atoms: C_24  and  C_28
REMARK    8  A    between atoms: C_24  and  C_29
REMARK    9  A    between atoms: C_33  and  O_36
REMARK   10  A    between atoms: O_36  and  C_37
REMARK                            x       y       z     vdW  Elec       q    Type
REMARK                         _______ _______ _______ _____ _____    ______ ____
ROOT
ATOM      1  C   UNL     1       1.595  -1.129   6.345  0.00  0.00    +0.080 C 
ATOM      2  C   UNL     1       1.349  -0.980   7.675  0.00  0.00    +0.069 C 
ATOM      3  C   UNL     1       2.246  -1.604   8.703  0.00  0.00    +0.097 C 
ATOM      4  C   UNL     1       3.578  -1.982   8.105  0.00  0.00    +0.024 C 
ATOM      5  C   UNL     1       3.732  -2.096   6.768  0.00  0.00    +0.016 C 
ATOM      6  N   UNL     1       2.680  -1.861   5.922  0.00  0.00    -0.311 N 
ATOM      7  C   UNL     1       5.059  -2.493   6.170  0.00  0.00    +0.058 C 
ATOM      8  C   UNL     1       6.196  -1.987   7.061  0.00  0.00    -0.023 C 
ATOM      9  C   UNL     1       6.016  -2.581   8.462  0.00  0.00    +0.086 C 
ATOM     10  C   UNL     1       4.654  -2.211   8.980  0.00  0.00    +0.162 C 
ATOM     11  O   UNL     1       4.480  -2.107  10.178  0.00  0.00    -0.292 OA
ATOM     12  C   UNL     1       6.146  -0.460   7.140  0.00  0.00    +0.011 C 
ATOM     13  C   UNL     1       7.540  -2.433   6.482  0.00  0.00    +0.011 C 
ATOM     14  H   UNL     1       2.702  -2.209   5.017  0.00  0.00    +0.152 HD
ENDROOT
BRANCH   3  15
ATOM     15  C   UNL     1       1.583  -2.841   9.251  0.00  0.00    -0.034 A 
ATOM     16  C   UNL     1       1.265  -3.887   8.404  0.00  0.00    +0.008 A 
ATOM     17  C   UNL     1       0.657  -5.022   8.905  0.00  0.00    +0.046 A 
ATOM     18  C   UNL     1       0.365  -5.112  10.258  0.00  0.00    +0.120 A 
ATOM     19  C   UNL     1       0.686  -4.061  11.106  0.00  0.00    +0.046 A 
ATOM     20  C   UNL     1       1.298  -2.931  10.601  0.00  0.00    +0.008 A 
BRANCH  18  21
ATOM     21  O   UNL     1      -0.233  -6.227  10.752  0.00  0.00    -0.495 OA
ATOM     22  C   UNL     1      -0.504  -6.251  12.155  0.00  0.00    +0.277 C 
ENDBRANCH  18  21
ENDBRANCH   3  15
BRANCH   2  23
ATOM     23  C   UNL     1       0.216  -0.214   8.100  0.00  0.00    +0.098 C 
ATOM     24  N   UNL     1      -0.682   0.394   8.437  0.00  0.00    -0.191 NA
ENDBRANCH   2  23
BRANCH   1  25
ATOM     25  S   UNL     1       0.516  -0.391   5.163  0.00  0.00    -0.100 S 
BRANCH  25  26
ATOM     26  C   UNL     1       1.231  -0.862   3.564  0.00  0.00    +0.171 C 
BRANCH  26  37
ATOM     27  C   UNL     1      -0.019   1.526   0.010  0.00  0.00    +0.029 C 
ATOM     28  C   UNL     1       0.002  -0.004   0.002  0.00  0.00    +0.083 C 
ATOM     29  C   UNL     1       0.778  -0.520  -1.221  0.00  0.00    +0.059 C 
ATOM     30  C   UNL     1       1.932  -1.304  -0.637  0.00  0.00    -0.024 A 
ATOM     31  C   UNL     1       2.960  -1.995  -1.249  0.00  0.00    +0.005 A 
ATOM     32  C   UNL     1       3.912  -2.643  -0.485  0.00  0.00    +0.000 A 
ATOM     33  C   UNL     1       3.833  -2.599   0.895  0.00  0.00    +0.002 A 
ATOM     34  C   UNL     1       2.809  -1.912   1.510  0.00  0.00    +0.024 A 
ATOM     35  C   UNL     1       1.844  -1.254   0.745  0.00  0.00    +0.040 A 
ATOM     36  N   UNL     1       0.735  -0.509   1.166  0.00  0.00    -0.267 N 
ATOM     37  C   UNL     1       0.393  -0.287   2.450  0.00  0.00    +0.230 C 
ATOM     38  O   UNL     1      -0.589   0.375   2.711  0.00  0.00    -0.274 OA
ENDBRANCH  26  37
ENDBRANCH  25  26
ENDBRANCH   1  25
TORSDOF 6
