REMARK  Name = ZINC43223274
REMARK  8 active torsions:
REMARK  status: ('A' for Active; 'I' for Inactive)
REMARK    1  A    between atoms: C_4  and  C_7
REMARK    2  A    between atoms: C_7  and  C_8
REMARK    3  A    between atoms: C_14  and  C_16
REMARK    4  A    between atoms: C_21  and  C_23
REMARK    5  A    between atoms: N_25  and  C_26
REMARK    6  A    between atoms: C_26  and  C_27
REMARK    7  A    between atoms: C_27  and  C_28
REMARK    8  A    between atoms: C_32  and  C_34
REMARK                            x       y       z     vdW  Elec       q    Type
REMARK                         _______ _______ _______ _____ _____    ______ ____
ROOT
ATOM      1  C   UNL     1       8.319  -1.488   4.164  0.00  0.00    +0.068 C 
ATOM      2  C   UNL     1       8.823  -1.706   2.721  0.00  0.00    -0.069 C 
ATOM      3  N   UNL     1       9.952  -0.752   2.572  0.00  0.00    +0.380 N 
ATOM      4  C   UNL     1      10.655  -0.810   3.879  0.00  0.00    -0.069 C 
ATOM      5  C   UNL     1       9.523  -0.900   4.928  0.00  0.00    +0.068 C 
ATOM      6  H   UNL     1      10.567  -1.046   1.827  0.00  0.00    -0.086 HD
ATOM      7  H   UNL     1       9.606   0.179   2.398  0.00  0.00    -0.086 HD
ENDROOT
BRANCH   1  14
ATOM      8  C   UNL     1       4.171  -0.963   1.399  0.00  0.00    -0.004 C 
ATOM      9  C   UNL     1       4.462   0.372   2.087  0.00  0.00    +0.023 C 
ATOM     10  C   UNL     1       4.889   0.114   3.535  0.00  0.00    +0.108 C 
ATOM     11  N   UNL     1       6.021  -0.823   3.534  0.00  0.00    -0.301 N 
ATOM     12  C   UNL     1       5.879  -2.101   2.823  0.00  0.00    +0.108 C 
ATOM     13  C   UNL     1       5.441  -1.818   1.383  0.00  0.00    +0.023 C 
ATOM     14  C   UNL     1       7.167  -0.516   4.174  0.00  0.00    +0.217 C 
ATOM     15  O   UNL     1       7.271   0.542   4.757  0.00  0.00    -0.275 OA
BRANCH   8  16
ATOM     16  C   UNL     1       3.711  -0.707  -0.038  0.00  0.00    +0.038 C 
BRANCH  16  20
ATOM     17  C   UNL     1      -0.017   1.378   0.010  0.00  0.00    +0.000 A 
ATOM     18  C   UNL     1       1.171   2.086   0.002  0.00  0.00    +0.000 A 
ATOM     19  C   UNL     1       2.377   1.411  -0.013  0.00  0.00    +0.003 A 
ATOM     20  C   UNL     1       2.396   0.029  -0.020  0.00  0.00    -0.047 A 
ATOM     21  C   UNL     1       1.208  -0.679  -0.012  0.00  0.00    +0.003 A 
ATOM     22  C   UNL     1       0.002  -0.004   0.002  0.00  0.00    +0.000 A 
ENDBRANCH  16  20
ENDBRANCH   8  16
ENDBRANCH   1  14
BRANCH   5  23
ATOM     23  C   UNL     1       9.923  -1.814   6.057  0.00  0.00    +0.215 C 
ATOM     24  O   UNL     1       9.314  -2.845   6.248  0.00  0.00    -0.276 OA
ATOM     25  N   UNL     1      10.959  -1.485   6.854  0.00  0.00    -0.315 N 
ATOM     26  H   UNL     1      11.447  -0.661   6.702  0.00  0.00    +0.149 HD
BRANCH  25  27
ATOM     27  C   UNL     1      11.349  -2.374   7.952  0.00  0.00    +0.109 C 
BRANCH  27  28
ATOM     28  C   UNL     1      12.543  -1.772   8.696  0.00  0.00    +0.054 C 
BRANCH  28  29
ATOM     29  C   UNL     1      12.944  -2.686   9.825  0.00  0.00    -0.045 A 
ATOM     30  C   UNL     1      12.375  -2.531  11.076  0.00  0.00    +0.004 A 
ATOM     31  C   UNL     1      12.742  -3.369  12.111  0.00  0.00    +0.001 A 
ATOM     32  C   UNL     1      13.678  -4.363  11.897  0.00  0.00    +0.012 A 
ATOM     33  C   UNL     1      14.246  -4.520  10.646  0.00  0.00    +0.055 A 
ATOM     34  C   UNL     1      13.876  -3.684   9.609  0.00  0.00    +0.016 A 
BRANCH  33  35
ATOM     35  C   UNL     1      15.267  -5.604  10.413  0.00  0.00    +0.417 C 
ATOM     36  F   UNL     1      15.473  -6.314  11.600  0.00  0.00    -0.166 F 
ATOM     37  F   UNL     1      14.803  -6.475   9.422  0.00  0.00    -0.166 F 
ATOM     38  F   UNL     1      16.473  -5.027   9.999  0.00  0.00    -0.166 F 
ENDBRANCH  33  35
ENDBRANCH  28  29
ENDBRANCH  27  28
ENDBRANCH  25  27
ENDBRANCH   5  23
TORSDOF 8
