REMARK  Name = ZINC09934815
REMARK  8 active torsions:
REMARK  status: ('A' for Active; 'I' for Inactive)
REMARK    1  A    between atoms: C_1  and  C_2
REMARK    2  A    between atoms: C_5  and  N_8
REMARK    3  A    between atoms: N_8  and  C_9
REMARK    4  A    between atoms: C_9  and  C_10
REMARK    5  A    between atoms: N_12  and  N_13
REMARK    6  A    between atoms: C_14  and  C_15
REMARK    7  A    between atoms: C_19  and  C_22
REMARK    8  A    between atoms: C_20  and  O_21
REMARK                            x       y       z     vdW  Elec       q    Type
REMARK                         _______ _______ _______ _____ _____    ______ ____
ROOT
ATOM      1  C   UNL     1       2.406   0.752  -0.017  0.00  0.00    +0.249 C 
ATOM      2  O   UNL     1       2.201  -0.444  -0.021  0.00  0.00    -0.272 OA
ATOM      3  N   UNL     1       3.671   1.218  -0.026  0.00  0.00    -0.206 N 
ATOM      4  H   UNL     1       3.835   2.174  -0.023  0.00  0.00    +0.177 HD
ENDROOT
BRANCH   3   5
ATOM      5  N   UNL     1       4.748   0.323  -0.042  0.00  0.00    -0.188 NA
ATOM      6  C   UNL     1       5.965   0.772  -0.051  0.00  0.00    +0.142 C 
BRANCH   6   7
ATOM      7  C   UNL     1       7.098  -0.171  -0.067  0.00  0.00    +0.037 A 
ATOM      8  C   UNL     1       8.410   0.309  -0.077  0.00  0.00    +0.027 A 
ATOM      9  C   UNL     1       9.466  -0.579  -0.091  0.00  0.00    +0.014 A 
ATOM     10  C   UNL     1       9.231  -1.944  -0.097  0.00  0.00    +0.021 A 
ATOM     11  C   UNL     1       7.937  -2.430  -0.086  0.00  0.00    -0.007 A 
ATOM     12  C   UNL     1       6.865  -1.552  -0.066  0.00  0.00    +0.128 A 
ATOM     13  C   UNL     1       7.692  -3.917  -0.092  0.00  0.00    +0.047 C 
ATOM     14  I   UNL     1      11.434   0.141  -0.107  0.00  0.00    -0.044 I 
BRANCH  12  15
ATOM     15  O   UNL     1       5.594  -2.030  -0.050  0.00  0.00    -0.506 OA
ATOM     16  H   UNL     1       5.214  -2.166  -0.929  0.00  0.00    +0.292 HD
ENDBRANCH  12  15
ENDBRANCH   6   7
ENDBRANCH   3   5
BRANCH   1  17
ATOM     17  C   UNL     1       1.248   1.716  -0.001  0.00  0.00    +0.199 C 
BRANCH  17  18
ATOM     18  N   UNL     1      -0.011   0.966   0.007  0.00  0.00    -0.335 N 
ATOM     19  H   UNL     1       0.002  -0.004   0.002  0.00  0.00    +0.147 HD
BRANCH  18  24
ATOM     20  C   UNL     1      -4.960   3.734   0.047  0.00  0.00    +0.044 C 
ATOM     21  C   UNL     1      -3.645   2.998   0.037  0.00  0.00    -0.050 A 
ATOM     22  C   UNL     1      -3.628   1.616   0.029  0.00  0.00    +0.005 A 
ATOM     23  C   UNL     1      -2.424   0.938   0.019  0.00  0.00    +0.023 A 
ATOM     24  C   UNL     1      -1.230   1.648   0.017  0.00  0.00    +0.028 A 
ATOM     25  C   UNL     1      -1.251   3.037   0.030  0.00  0.00    +0.023 A 
ATOM     26  C   UNL     1      -2.458   3.708   0.035  0.00  0.00    +0.005 A 
ENDBRANCH  18  24
ENDBRANCH  17  18
ENDBRANCH   1  17
TORSDOF 6
