REMARK  Name = ZINC59170412
REMARK  12 active torsions:
REMARK  status: ('A' for Active; 'I' for Inactive)
REMARK    1  A    between atoms: C_1  and  C_2
REMARK    2  A    between atoms: C_5  and  N_8
REMARK    3  A    between atoms: C_9  and  C_11
REMARK    4  A    between atoms: C_15  and  C_34
REMARK    5  A    between atoms: C_17  and  O_33
REMARK    6  A    between atoms: N_21  and  N_22
REMARK    7  A    between atoms: N_22  and  S_23
REMARK    8  A    between atoms: S_23  and  C_26
REMARK    9  A    between atoms: C_29  and  C_32
REMARK   10  A    between atoms: C_34  and  C_35
REMARK   11  A    between atoms: C_34  and  C_36
REMARK   12  A    between atoms: C_34  and  C_37
REMARK                            x       y       z     vdW  Elec       q    Type
REMARK                         _______ _______ _______ _____ _____    ______ ____
ROOT
ATOM      1  C   UNL     1       0.723  -6.434   0.944  0.00  0.00    +0.099 A 
ATOM      2  C   UNL     1       0.682  -7.079   2.157  0.00  0.00    +0.030 A 
ATOM      3  C   UNL     1       0.239  -8.478   2.170  0.00  0.00    +0.022 A 
ATOM      4  C   UNL     1      -0.084  -9.113   3.374  0.00  0.00    +0.016 A 
ATOM      5  C   UNL     1      -0.501 -10.427   3.363  0.00  0.00    -0.038 A 
ATOM      6  C   UNL     1      -0.602 -11.121   2.168  0.00  0.00    +0.053 A 
ATOM      7  C   UNL     1      -0.285 -10.506   0.968  0.00  0.00    +0.160 A 
ATOM      8  C   UNL     1       0.139  -9.183   0.959  0.00  0.00    +0.179 A 
ATOM      9  O   UNL     1       0.460  -8.568  -0.209  0.00  0.00    -0.434 OA
ATOM     10  C   UNL     1       0.309  -7.209  -0.249  0.00  0.00    +0.225 A 
ATOM     11  N   UNL     1      -0.178  -6.615  -1.302  0.00  0.00    -0.260 N 
ATOM     12  H   UNL     1      -0.402  -5.672  -1.266  0.00  0.00    +0.189 HD
ENDROOT
BRANCH   1  14
ATOM     13  N   UNL     1       1.349  -4.297   1.948  0.00  0.00    -0.281 N 
ATOM     14  C   UNL     1       1.153  -5.030   0.835  0.00  0.00    +0.253 C 
ATOM     15  O   UNL     1       1.333  -4.533  -0.261  0.00  0.00    -0.270 OA
ATOM     16  H   UNL     1       1.306  -4.719   2.821  0.00  0.00    +0.155 HD
BRANCH  13  21
ATOM     17  C   UNL     1       2.421   1.257   1.536  0.00  0.00    +0.044 C 
ATOM     18  C   UNL     1       2.136  -0.218   1.645  0.00  0.00    -0.050 A 
ATOM     19  C   UNL     1       1.524  -0.720   2.779  0.00  0.00    +0.005 A 
ATOM     20  C   UNL     1       1.262  -2.072   2.883  0.00  0.00    +0.023 A 
ATOM     21  C   UNL     1       1.613  -2.928   1.847  0.00  0.00    +0.034 A 
ATOM     22  C   UNL     1       2.227  -2.420   0.709  0.00  0.00    +0.023 A 
ATOM     23  C   UNL     1       2.482  -1.066   0.610  0.00  0.00    +0.005 A 
ENDBRANCH  13  21
ENDBRANCH   1  14
BRANCH   5  24
ATOM     24  C   UNL     1      -0.848 -11.112   4.660  0.00  0.00    -0.013 C 
ATOM     25  C   UNL     1      -1.995 -10.363   5.341  0.00  0.00    +0.015 C 
ATOM     26  C   UNL     1      -1.278 -12.553   4.375  0.00  0.00    +0.015 C 
ATOM     27  C   UNL     1       0.375 -11.117   5.578  0.00  0.00    +0.015 C 
ENDBRANCH   5  24
BRANCH  11  28
ATOM     28  N   UNL     1      -0.378  -7.338  -2.485  0.00  0.00    -0.157 N 
ATOM     29  H   UNL     1      -0.232  -8.297  -2.498  0.00  0.00    +0.194 HD
BRANCH  28  30
ATOM     30  S   UNL     1      -0.863  -6.555  -3.861  0.00  0.00    +0.085 S 
ATOM     31  O   UNL     1      -0.681  -7.470  -4.934  0.00  0.00    -0.149 OA
ATOM     32  O   UNL     1      -2.122  -5.964  -3.570  0.00  0.00    -0.149 OA
BRANCH  30  33
ATOM     33  C   UNL     1       0.266  -5.230  -4.133  0.00  0.00    +0.110 A 
ATOM     34  C   UNL     1       0.032  -3.995  -3.557  0.00  0.00    +0.029 A 
ATOM     35  C   UNL     1       0.918  -2.955  -3.770  0.00  0.00    +0.005 A 
ATOM     36  C   UNL     1       2.037  -3.150  -4.558  0.00  0.00    -0.050 A 
ATOM     37  C   UNL     1       2.271  -4.385  -5.132  0.00  0.00    +0.005 A 
ATOM     38  C   UNL     1       1.387  -5.426  -4.916  0.00  0.00    +0.029 A 
ATOM     39  C   UNL     1       3.002  -2.016  -4.790  0.00  0.00    +0.044 C 
ENDBRANCH  30  33
ENDBRANCH  28  30
ENDBRANCH  11  28
BRANCH   7  40
ATOM     40  O   UNL     1      -0.388 -11.197  -0.200  0.00  0.00    -0.503 OA
ATOM     41  H   UNL     1      -1.255 -11.129  -0.622  0.00  0.00    +0.292 HD
ENDBRANCH   7  40
TORSDOF 7
