REMARK  Name = ZINC39884128
REMARK  5 active torsions:
REMARK  status: ('A' for Active; 'I' for Inactive)
REMARK    1  A    between atoms: C_3  and  O_36
REMARK    2  A    between atoms: C_6  and  C_7
REMARK    3  A    between atoms: N_11  and  C_15
REMARK    4  A    between atoms: C_15  and  C_16
REMARK    5  A    between atoms: N_18  and  C_19
REMARK                            x       y       z     vdW  Elec       q    Type
REMARK                         _______ _______ _______ _____ _____    ______ ____
ROOT
ATOM      1  C   UNL     1      -1.311  -0.775   0.010  0.00  0.00    +0.072 C 
ATOM      2  C   UNL     1      -1.358  -1.658   1.226  0.00  0.00    +0.033 A 
ATOM      3  C   UNL     1      -1.812  -2.924   1.351  0.00  0.00    +0.091 A 
ATOM      4  N   UNL     1      -1.695  -3.462   2.608  0.00  0.00    -0.288 N 
ATOM      5  C   UNL     1      -1.174  -2.727   3.608  0.00  0.00    +0.292 A 
ATOM      6  O   UNL     1      -1.004  -3.046   4.772  0.00  0.00    -0.259 OA
ATOM      7  S   UNL     1      -0.813  -1.261   2.866  0.00  0.00    -0.030 S 
ATOM      8  S   UNL     1      -2.521  -3.792  -0.042  0.00  0.00    -0.093 S 
ATOM      9  C   UNL     1      -2.759  -2.411  -1.189  0.00  0.00    +0.153 C 
ATOM     10  C   UNL     1      -1.401  -1.646  -1.214  0.00  0.00    +0.112 C 
ATOM     11  C   UNL     1      -1.449  -1.031  -2.573  0.00  0.00    +0.245 C 
ATOM     12  O   UNL     1      -0.822   0.088  -2.966  0.00  0.00    -0.273 OA
ATOM     13  N   UNL     1      -2.225  -1.799  -3.315  0.00  0.00    -0.145 NA
ATOM     14  C   UNL     1      -2.852  -2.800  -2.640  0.00  0.00    +0.253 C 
ATOM     15  O   UNL     1      -3.369  -3.797  -3.102  0.00  0.00    -0.272 OA
ENDROOT
BRANCH   1  21
ATOM     16  C   UNL     1      -0.033   1.377  -0.001  0.00  0.00    +0.008 A 
ATOM     17  C   UNL     1       1.153   2.085  -0.018  0.00  0.00    +0.045 A 
ATOM     18  C   UNL     1       2.364   1.407  -0.041  0.00  0.00    +0.117 A 
ATOM     19  C   UNL     1       2.379   0.020  -0.049  0.00  0.00    +0.045 A 
ATOM     20  C   UNL     1       1.190  -0.683  -0.032  0.00  0.00    +0.008 A 
ATOM     21  C   UNL     1      -0.015  -0.005  -0.008  0.00  0.00    -0.038 A 
BRANCH  18  22
ATOM     22  O   UNL     1       3.532   2.100  -0.058  0.00  0.00    -0.507 OA
ATOM     23  H   UNL     1       3.885   2.297   0.820  0.00  0.00    +0.292 HD
ENDBRANCH  18  22
ENDBRANCH   1  21
BRANCH   4  24
ATOM     24  C   UNL     1      -2.137  -4.836   2.862  0.00  0.00    +0.222 C 
BRANCH  24  25
ATOM     25  C   UNL     1      -0.990  -5.784   2.624  0.00  0.00    +0.237 C 
ATOM     26  O   UNL     1       0.090  -5.355   2.276  0.00  0.00    -0.274 OA
ATOM     27  N   UNL     1      -1.165  -7.109   2.797  0.00  0.00    -0.284 N 
ATOM     28  H   UNL     1      -2.007  -7.447   3.139  0.00  0.00    +0.155 HD
BRANCH  27  29
ATOM     29  C   UNL     1      -0.130  -7.999   2.483  0.00  0.00    +0.034 A 
ATOM     30  C   UNL     1      -0.423  -9.246   1.950  0.00  0.00    +0.026 A 
ATOM     31  C   UNL     1       0.599 -10.122   1.641  0.00  0.00    +0.040 A 
ATOM     32  C   UNL     1       1.916  -9.757   1.863  0.00  0.00    +0.124 A 
ATOM     33  C   UNL     1       2.211  -8.513   2.395  0.00  0.00    +0.040 A 
ATOM     34  C   UNL     1       1.192  -7.631   2.699  0.00  0.00    +0.026 A 
ATOM     35  F   UNL     1       2.915 -10.615   1.561  0.00  0.00    -0.205 F 
ENDBRANCH  27  29
ENDBRANCH  24  25
ENDBRANCH   4  24
TORSDOF 5
