REMARK  Name = ZINC01710084
REMARK  12 active torsions:
REMARK  status: ('A' for Active; 'I' for Inactive)
REMARK    1  A    between atoms: C_1  and  C_2
REMARK    2  A    between atoms: C_5  and  S_8
REMARK    3  A    between atoms: S_8  and  N_11
REMARK    4  A    between atoms: N_11  and  N_12
REMARK    5  A    between atoms: C_14  and  C_31
REMARK    6  A    between atoms: C_14  and  C_32
REMARK    7  A    between atoms: N_16  and  N_17
REMARK    8  A    between atoms: N_17  and  S_18
REMARK    9  A    between atoms: S_18  and  C_21
REMARK   10  A    between atoms: C_24  and  C_27
REMARK   11  A    between atoms: C_28  and  C_29
REMARK   12  A    between atoms: C_28  and  C_30
REMARK                            x       y       z     vdW  Elec       q    Type
REMARK                         _______ _______ _______ _____ _____    ______ ____
ROOT
ATOM      1  N   UNL     1      -1.947   0.461   2.069  0.00  0.00    -0.173 NA
ATOM      2  C   UNL     1      -1.589   1.627   1.683  0.00  0.00    +0.060 C 
ATOM      3  C   UNL     1      -2.283   2.894   1.219  0.00  0.00    +0.046 C 
ATOM      4  C   UNL     1      -1.058   3.648   1.696  0.00  0.00    +0.060 C 
ATOM      5  N   UNL     1      -0.798   4.835   2.099  0.00  0.00    -0.173 NA
ATOM      6  C   UNL     1      -0.281   2.365   1.484  0.00  0.00    +0.046 C 
ATOM      7  C   UNL     1       0.294   2.223   0.073  0.00  0.00    +0.023 C 
ATOM      8  C   UNL     1       0.752   2.086   2.578  0.00  0.00    +0.023 C 
ATOM      9  C   UNL     1      -3.551   3.223   2.008  0.00  0.00    +0.023 C 
ATOM     10  C   UNL     1      -2.491   2.962  -0.296  0.00  0.00    +0.023 C 
ENDROOT
BRANCH   1  11
ATOM     11  N   UNL     1      -3.306   0.128   2.127  0.00  0.00    -0.137 N 
ATOM     12  H   UNL     1      -3.977   0.781   1.873  0.00  0.00    +0.197 HD
BRANCH  11  13
ATOM     13  S   UNL     1      -3.769  -1.382   2.626  0.00  0.00    +0.086 S 
ATOM     14  O   UNL     1      -5.187  -1.363   2.715  0.00  0.00    -0.149 OA
ATOM     15  O   UNL     1      -3.068  -2.312   1.812  0.00  0.00    -0.149 OA
BRANCH  13  20
ATOM     16  C   UNL     1      -1.701  -2.112   8.247  0.00  0.00    +0.044 C 
ATOM     17  C   UNL     1      -2.218  -1.930   6.843  0.00  0.00    -0.050 A 
ATOM     18  C   UNL     1      -3.473  -1.390   6.633  0.00  0.00    +0.005 A 
ATOM     19  C   UNL     1      -3.947  -1.223   5.346  0.00  0.00    +0.029 A 
ATOM     20  C   UNL     1      -3.165  -1.595   4.268  0.00  0.00    +0.110 A 
ATOM     21  C   UNL     1      -1.912  -2.139   4.478  0.00  0.00    +0.029 A 
ATOM     22  C   UNL     1      -1.437  -2.303   5.766  0.00  0.00    +0.005 A 
ENDBRANCH  13  20
ENDBRANCH  11  13
ENDBRANCH   1  11
BRANCH   5  23
ATOM     23  N   UNL     1      -1.784   5.827   2.038  0.00  0.00    -0.137 N 
ATOM     24  H   UNL     1      -2.638   5.638   1.619  0.00  0.00    +0.197 HD
BRANCH  23  25
ATOM     25  S   UNL     1      -1.493   7.324   2.683  0.00  0.00    +0.086 S 
ATOM     26  O   UNL     1      -2.607   8.138   2.341  0.00  0.00    -0.149 OA
ATOM     27  O   UNL     1      -1.087   7.115   4.029  0.00  0.00    -0.149 OA
BRANCH  25  28
ATOM     28  C   UNL     1      -0.101   7.995   1.836  0.00  0.00    +0.110 A 
ATOM     29  C   UNL     1       1.175   7.771   2.318  0.00  0.00    +0.029 A 
ATOM     30  C   UNL     1       2.267   8.294   1.651  0.00  0.00    +0.005 A 
ATOM     31  C   UNL     1       2.083   9.048   0.507  0.00  0.00    -0.050 A 
ATOM     32  C   UNL     1       0.806   9.275   0.028  0.00  0.00    +0.005 A 
ATOM     33  C   UNL     1      -0.286   8.749   0.692  0.00  0.00    +0.029 A 
ATOM     34  C   UNL     1       3.273   9.621  -0.218  0.00  0.00    +0.044 C 
ENDBRANCH  25  28
ENDBRANCH  23  25
ENDBRANCH   5  23
TORSDOF 6
