REMARK  Name = ZINC43743318
REMARK  13 active torsions:
REMARK  status: ('A' for Active; 'I' for Inactive)
REMARK    1  A    between atoms: C_1  and  C_2
REMARK    2  A    between atoms: C_10  and  C_23
REMARK    3  A    between atoms: C_15  and  C_16
REMARK    4  A    between atoms: C_15  and  O_19
REMARK    5  A    between atoms: C_16  and  C_18
REMARK    6  A    between atoms: O_19  and  C_20
REMARK    7  A    between atoms: C_20  and  C_22
REMARK    8  A    between atoms: C_24  and  C_42
REMARK    9  A    between atoms: C_27  and  O_31
REMARK   10  A    between atoms: O_31  and  C_32
REMARK   11  A    between atoms: C_32  and  C_34
REMARK   12  A    between atoms: C_34  and  C_35
REMARK   13  A    between atoms: C_35  and  N_36
REMARK                            x       y       z     vdW  Elec       q    Type
REMARK                         _______ _______ _______ _____ _____    ______ ____
ROOT
ATOM      1  C   UNL     1       0.217   1.641  -0.202  0.00  0.00    +0.044 C 
ATOM      2  C   UNL     1       0.051   0.156  -0.028  0.00  0.00    -0.051 C 
ATOM      3  C   UNL     1       0.135  -0.632  -1.084  0.00  0.00    -0.019 C 
ATOM      4  C   UNL     1      -0.064  -2.117  -1.082  0.00  0.00    +0.020 C 
ATOM      5  C   UNL     1      -0.589  -2.650   0.244  0.00  0.00    +0.006 C 
ATOM      6  C   UNL     1      -2.108  -2.593   0.308  0.00  0.00    +0.005 C 
ATOM      7  C   UNL     1      -2.772  -3.495  -0.744  0.00  0.00    +0.011 C 
ATOM      8  C   UNL     1      -1.824  -3.749  -1.893  0.00  0.00    +0.018 C 
ATOM      9  C   UNL     1      -1.028  -2.465  -2.201  0.00  0.00    +0.006 C 
ATOM     10  C   UNL     1      -0.362  -2.807  -3.542  0.00  0.00    +0.009 C 
ATOM     11  C   UNL     1      -1.455  -3.608  -4.297  0.00  0.00    +0.057 C 
ATOM     12  C   UNL     1      -2.525  -3.991  -3.247  0.00  0.00    +0.176 C 
ATOM     13  C   UNL     1      -0.927  -4.957  -1.633  0.00  0.00    +0.016 C 
ATOM     14  C   UNL     1       0.039  -1.914   1.426  0.00  0.00    -0.003 C 
ATOM     15  C   UNL     1      -0.207  -0.439   1.301  0.00  0.00    -0.039 C 
ATOM     16  C   UNL     1      -0.643   0.307   2.295  0.00  0.00    +0.021 C 
ATOM     17  C   UNL     1      -0.904  -0.224   3.676  0.00  0.00    +0.200 C 
ATOM     18  C   UNL     1      -0.118  -1.518   3.892  0.00  0.00    +0.050 C 
ATOM     19  C   UNL     1      -0.443  -2.482   2.749  0.00  0.00    +0.015 C 
ATOM     20  C   UNL     1       1.557  -2.143   1.361  0.00  0.00    +0.016 C 
ENDROOT
BRANCH  12  21
ATOM     21  C   UNL     1      -2.898  -5.442  -3.374  0.00  0.00    +0.174 C 
ATOM     22  O   UNL     1      -2.166  -6.205  -3.957  0.00  0.00    -0.293 OA
ATOM     23  C   UNL     1      -4.186  -5.944  -2.773  0.00  0.00    +0.090 C 
ENDBRANCH  12  21
BRANCH  12  24
ATOM     24  O   UNL     1      -3.672  -3.155  -3.370  0.00  0.00    -0.450 OA
BRANCH  24  25
ATOM     25  C   UNL     1      -4.341  -3.206  -4.532  0.00  0.00    +0.305 C 
ATOM     26  O   UNL     1      -3.993  -3.976  -5.397  0.00  0.00    -0.251 OA
ATOM     27  C   UNL     1      -5.526  -2.304  -4.760  0.00  0.00    +0.136 C 
ENDBRANCH  24  25
ENDBRANCH  12  24
BRANCH  17  28
ATOM     28  O   UNL     1      -0.493   0.747   4.641  0.00  0.00    -0.457 OA
BRANCH  28  29
ATOM     29  C   UNL     1      -1.412   1.645   5.032  0.00  0.00    +0.306 C 
ATOM     30  O   UNL     1      -2.528   1.607   4.570  0.00  0.00    -0.251 OA
BRANCH  29  31
ATOM     31  C   UNL     1      -1.052   2.699   6.047  0.00  0.00    +0.102 C 
BRANCH  31  32
ATOM     32  C   UNL     1      -2.269   3.586   6.314  0.00  0.00    -0.068 C 
BRANCH  32  33
ATOM     33  N   UNL     1      -1.917   4.614   7.304  0.00  0.00    +0.380 N 
ATOM     34  C   UNL     1      -1.606   3.970   8.586  0.00  0.00    -0.079 C 
ATOM     35  C   UNL     1      -1.161   5.029   9.598  0.00  0.00    -0.019 C 
ATOM     36  C   UNL     1      -2.290   6.045   9.795  0.00  0.00    -0.004 C 
ATOM     37  C   UNL     1      -2.657   6.655   8.440  0.00  0.00    -0.019 C 
ATOM     38  C   UNL     1      -3.047   5.537   7.471  0.00  0.00    -0.079 C 
ATOM     39  H   UNL     1      -1.110   5.127   6.982  0.00  0.00    -0.082 HD
ENDBRANCH  32  33
ENDBRANCH  31  32
ENDBRANCH  29  31
ENDBRANCH  28  29
ENDBRANCH  17  28
TORSDOF 8
