REMARK  Name = ZINC39836238
REMARK  6 active torsions:
REMARK  status: ('A' for Active; 'I' for Inactive)
REMARK    1  A    between atoms: C_1  and  C_2
REMARK    2  A    between atoms: C_9  and  N_22
REMARK    3  A    between atoms: C_10  and  C_11
REMARK    4  A    between atoms: N_13  and  C_14
REMARK    5  A    between atoms: C_23  and  C_25
REMARK    6  A    between atoms: C_29  and  N_31
REMARK                            x       y       z     vdW  Elec       q    Type
REMARK                         _______ _______ _______ _____ _____    ______ ____
ROOT
ATOM      1  C   UNL     1      -0.019   1.526   0.010  0.00  0.00    +0.008 C 
ATOM      2  C   UNL     1       0.002  -0.004   0.002  0.00  0.00    -0.009 C 
ATOM      3  C   UNL     1       0.724  -0.500  -1.254  0.00  0.00    +0.008 C 
ATOM      4  C   UNL     1       0.537  -2.012  -1.399  0.00  0.00    +0.037 C 
ATOM      5  C   UNL     1       0.935  -2.680  -0.091  0.00  0.00    -0.023 A 
ATOM      6  C   UNL     1       1.019  -1.977   1.059  0.00  0.00    -0.004 A 
ATOM      7  S   UNL     1       1.507  -3.165   2.276  0.00  0.00    -0.077 S 
ATOM      8  C   UNL     1       1.598  -4.539   1.315  0.00  0.00    +0.085 A 
ATOM      9  C   UNL     1       1.253  -4.090   0.050  0.00  0.00    +0.069 A 
ATOM     10  C   UNL     1       0.750  -0.515   1.242  0.00  0.00    +0.046 C 
ENDROOT
BRANCH   9  11
ATOM     11  C   UNL     1       1.212  -5.001  -1.098  0.00  0.00    +0.247 C 
ATOM     12  O   UNL     1       2.208  -5.171  -1.777  0.00  0.00    -0.270 OA
ATOM     13  N   UNL     1       0.071  -5.651  -1.402  0.00  0.00    -0.307 N 
ATOM     14  H   UNL     1      -0.723  -5.516  -0.862  0.00  0.00    +0.149 HD
BRANCH  13  15
ATOM     15  C   UNL     1       0.029  -6.561  -2.550  0.00  0.00    +0.096 C 
ATOM     16  C   UNL     1       0.520  -7.952  -2.115  0.00  0.00    +0.046 C 
ATOM     17  C   UNL     1       0.174  -8.962  -3.246  0.00  0.00    +0.168 C 
ATOM     18  S   UNL     1      -1.509  -8.377  -3.717  0.00  0.00    -0.029 S 
ATOM     19  O   UNL     1      -2.476  -9.101  -2.969  0.00  0.00    -0.174 OA
ATOM     20  O   UNL     1      -1.605  -8.341  -5.135  0.00  0.00    -0.174 OA
ATOM     21  C   UNL     1      -1.423  -6.656  -3.078  0.00  0.00    +0.188 C 
ENDBRANCH  13  15
ENDBRANCH   9  11
BRANCH   8  22
ATOM     22  N   UNL     1       1.940  -5.826   1.700  0.00  0.00    -0.275 N 
ATOM     23  C   UNL     1       2.249  -6.085   2.985  0.00  0.00    +0.249 C 
ATOM     24  O   UNL     1       2.229  -5.190   3.808  0.00  0.00    -0.270 OA
ATOM     25  H   UNL     1       1.956  -6.540   1.043  0.00  0.00    +0.156 HD
BRANCH  23  26
ATOM     26  C   UNL     1       2.614  -7.457   3.395  0.00  0.00    +0.039 A 
ATOM     27  C   UNL     1       2.643  -8.486   2.451  0.00  0.00    +0.014 A 
ATOM     28  C   UNL     1       2.984  -9.764   2.839  0.00  0.00    +0.023 A 
ATOM     29  C   UNL     1       3.296 -10.029   4.163  0.00  0.00    +0.071 A 
ATOM     30  C   UNL     1       3.268  -9.013   5.104  0.00  0.00    +0.145 A 
ATOM     31  C   UNL     1       2.935  -7.729   4.726  0.00  0.00    +0.047 A 
ATOM     32 CL   UNL     1       3.723 -11.641   4.644  0.00  0.00    -0.081 Cl
BRANCH  30  33
ATOM     33  N   UNL     1       3.601  -9.305   6.516  0.00  0.00    +0.058 N 
ATOM     34  O   UNL     1       3.577  -8.419   7.338  0.00  0.00    -0.126 OA
ATOM     35  O   UNL     1       3.898 -10.429   6.847  0.00  0.00    -0.126 OA
ENDBRANCH  30  33
ENDBRANCH  23  26
ENDBRANCH   8  22
TORSDOF 5
