REMARK  Name = ZINC09132450
REMARK  4 active torsions:
REMARK  status: ('A' for Active; 'I' for Inactive)
REMARK    1  A    between atoms: C_6  and  C_7
REMARK    2  A    between atoms: C_17  and  C_19
REMARK    3  A    between atoms: N_21  and  C_22
REMARK    4  A    between atoms: C_22  and  C_23
REMARK                            x       y       z     vdW  Elec       q    Type
REMARK                         _______ _______ _______ _____ _____    ______ ____
ROOT
ATOM      1  C   UNL     1      -2.263   2.973   5.468  0.00  0.00    +0.250 C 
ATOM      2  O   UNL     1      -1.121   2.558   5.525  0.00  0.00    -0.270 OA
ATOM      3  N   UNL     1      -2.915   2.989   4.288  0.00  0.00    -0.261 N 
ATOM      4  C   UNL     1      -2.284   2.531   3.139  0.00  0.00    +0.165 A 
ATOM      5  N   UNL     1      -2.751   2.467   1.906  0.00  0.00    -0.229 NA
ATOM      6  C   UNL     1      -2.015   1.997   0.888  0.00  0.00    +0.066 A 
ATOM      7  C   UNL     1      -0.760   1.592   1.204  0.00  0.00    +0.015 A 
ATOM      8  S   UNL     1      -0.678   1.897   2.954  0.00  0.00    -0.057 S 
ATOM      9  C   UNL     1      -0.013   1.086   0.008  0.00  0.00    +0.045 C 
ATOM     10  C   UNL     1      -0.807   1.621  -1.205  0.00  0.00    +0.024 C 
ATOM     11  C   UNL     1      -2.220   1.783  -0.611  0.00  0.00    +0.125 C 
ATOM     12  H   UNL     1      -3.826   3.320   4.242  0.00  0.00    +0.157 HD
ENDROOT
BRANCH   1  18
ATOM     13  C   UNL     1      -4.243   3.942   6.623  0.00  0.00    +0.017 A 
ATOM     14  C   UNL     1      -4.869   4.391   7.766  0.00  0.00    +0.050 A 
ATOM     15  C   UNL     1      -4.200   4.376   8.982  0.00  0.00    +0.166 A 
ATOM     16  C   UNL     1      -2.889   3.900   9.053  0.00  0.00    +0.167 A 
ATOM     17  C   UNL     1      -2.258   3.444   7.912  0.00  0.00    +0.062 A 
ATOM     18  C   UNL     1      -2.933   3.459   6.689  0.00  0.00    +0.041 A 
ATOM     19  O   UNL     1      -2.463   3.991  10.347  0.00  0.00    -0.453 OA
ATOM     20  C   UNL     1      -3.659   4.142  11.135  0.00  0.00    +0.466 C 
ATOM     21  O   UNL     1      -4.590   4.763  10.230  0.00  0.00    -0.453 OA
ENDBRANCH   1  18
BRANCH  11  22
ATOM     22  C   UNL     1      -3.034   0.538  -0.855  0.00  0.00    +0.222 C 
ATOM     23  O   UNL     1      -2.543  -0.400  -1.447  0.00  0.00    -0.275 OA
ATOM     24  N   UNL     1      -4.306   0.468  -0.416  0.00  0.00    -0.312 N 
ATOM     25  H   UNL     1      -4.698   1.218   0.058  0.00  0.00    +0.149 HD
BRANCH  24  26
ATOM     26  C   UNL     1      -5.096  -0.743  -0.652  0.00  0.00    +0.135 C 
BRANCH  26  27
ATOM     27  C   UNL     1      -6.494  -0.563  -0.057  0.00  0.00    +0.135 C 
ATOM     28  C   UNL     1      -7.335  -1.832  -0.301  0.00  0.00    +0.035 C 
ATOM     29  C   UNL     1      -7.737  -2.299   1.119  0.00  0.00    +0.031 C 
ATOM     30  C   UNL     1      -7.566  -1.002   1.949  0.00  0.00    +0.160 C 
ATOM     31  O   UNL     1      -6.400  -0.381   1.365  0.00  0.00    -0.375 OA
ENDBRANCH  26  27
ENDBRANCH  24  26
ENDBRANCH  11  22
TORSDOF 4
