REMARK  Name = ZINC13185302
REMARK  8 active torsions:
REMARK  status: ('A' for Active; 'I' for Inactive)
REMARK    1  A    between atoms: C_1  and  N_2
REMARK    2  A    between atoms: N_2  and  C_3
REMARK    3  A    between atoms: C_3  and  C_4
REMARK    4  A    between atoms: N_6  and  C_7
REMARK    5  A    between atoms: C_12  and  C_13
REMARK    6  A    between atoms: C_15  and  C_17
REMARK    7  A    between atoms: C_21  and  S_23
REMARK    8  A    between atoms: S_23  and  N_26
REMARK                            x       y       z     vdW  Elec       q    Type
REMARK                         _______ _______ _______ _____ _____    ______ ____
ROOT
ATOM      1  C   UNL     1       1.888  -5.470  -0.676  0.00  0.00    +0.133 C 
ATOM      2  N   UNL     1       1.003  -5.551   0.488  0.00  0.00    -0.292 N 
ATOM      3  C   UNL     1       0.021  -4.644   0.653  0.00  0.00    +0.247 C 
ATOM      4  O   UNL     1      -0.670  -4.670   1.653  0.00  0.00    -0.270 OA
ENDROOT
BRANCH   3   5
ATOM      5  C   UNL     1      -0.217  -3.615  -0.382  0.00  0.00    +0.039 A 
ATOM      6  C   UNL     1       0.844  -3.139  -1.154  0.00  0.00    +0.013 A 
ATOM      7  C   UNL     1       0.615  -2.180  -2.118  0.00  0.00    +0.003 A 
ATOM      8  C   UNL     1      -0.663  -1.693  -2.325  0.00  0.00    +0.028 A 
ATOM      9  C   UNL     1      -1.719  -2.157  -1.560  0.00  0.00    +0.106 A 
ATOM     10  C   UNL     1      -1.504  -3.117  -0.592  0.00  0.00    +0.041 A 
BRANCH   9  11
ATOM     11  S   UNL     1      -3.342  -1.527  -1.828  0.00  0.00    +0.061 S 
ATOM     12  O   UNL     1      -4.245  -2.520  -1.362  0.00  0.00    -0.153 OA
ATOM     13  O   UNL     1      -3.372  -1.035  -3.160  0.00  0.00    -0.153 OA
BRANCH  11  14
ATOM     14  N   UNL     1      -3.528  -0.215  -0.835  0.00  0.00    -0.177 NA
ATOM     15  C   UNL     1      -3.176   1.099  -1.290  0.00  0.00    +0.109 C 
ATOM     16  C   UNL     1      -1.706   1.528  -1.060  0.00  0.00    +0.017 C 
ATOM     17  C   UNL     1      -1.229   1.072   0.340  0.00  0.00    +0.001 C 
ATOM     18  C   UNL     1      -2.323   1.237   1.355  0.00  0.00    +0.001 C 
ATOM     19  C   UNL     1      -2.964  -0.140   1.488  0.00  0.00    +0.017 C 
ATOM     20  C   UNL     1      -4.066  -0.382   0.557  0.00  0.00    +0.109 C 
ENDBRANCH  11  14
ENDBRANCH   9  11
ENDBRANCH   3   5
BRANCH   2  21
ATOM     21  C   UNL     1       1.186  -6.620   1.473  0.00  0.00    +0.203 C 
BRANCH  21  22
ATOM     22  C   UNL     1       0.358  -7.816   1.077  0.00  0.00    +0.235 C 
ATOM     23  O   UNL     1      -0.317  -7.779   0.070  0.00  0.00    -0.274 OA
ATOM     24  N   UNL     1       0.370  -8.926   1.840  0.00  0.00    -0.283 N 
ATOM     25  H   UNL     1       0.959  -8.980   2.609  0.00  0.00    +0.155 HD
BRANCH  24  26
ATOM     26  C   UNL     1      -0.465  -9.996   1.526  0.00  0.00    +0.048 A 
ATOM     27  C   UNL     1      -0.717 -10.317   0.199  0.00  0.00    +0.024 A 
ATOM     28  C   UNL     1      -1.540 -11.381  -0.111  0.00  0.00    +0.002 A 
ATOM     29  C   UNL     1      -2.129 -12.129   0.897  0.00  0.00    +0.001 A 
ATOM     30  C   UNL     1      -1.895 -11.822   2.219  0.00  0.00    +0.017 A 
ATOM     31  C   UNL     1      -1.059 -10.751   2.548  0.00  0.00    +0.084 A 
BRANCH  31  32
ATOM     32  C   UNL     1      -0.805 -10.416   3.961  0.00  0.00    +0.388 C 
ATOM     33  O   UNL     1      -0.167  -9.422   4.244  0.00  0.00    -0.241 OA
ATOM     34  O   UNL     1      -1.280 -11.213   4.938  0.00  0.00    -0.241 OA
ENDBRANCH  31  32
ENDBRANCH  24  26
ENDBRANCH  21  22
ENDBRANCH   2  21
TORSDOF 7
