REMARK  Name = ZINC59037844
REMARK  10 active torsions:
REMARK  status: ('A' for Active; 'I' for Inactive)
REMARK    1  A    between atoms: C_1  and  C_2
REMARK    2  A    between atoms: C_2  and  C_3
REMARK    3  A    between atoms: C_3  and  C_5
REMARK    4  A    between atoms: C_3  and  N_15
REMARK    5  A    between atoms: C_10  and  O_11
REMARK    6  A    between atoms: O_11  and  C_12
REMARK    7  A    between atoms: N_18  and  C_19
REMARK    8  A    between atoms: C_21  and  C_26
REMARK    9  A    between atoms: C_24  and  C_25
REMARK   10  A    between atoms: N_28  and  C_29
REMARK                            x       y       z     vdW  Elec       q    Type
REMARK                         _______ _______ _______ _____ _____    ______ ____
ROOT
ATOM      1  N   UNL     1      -0.075  -0.234  -2.194  0.00  0.00    -0.292 N 
ATOM      2  C   UNL     1       0.153   0.870  -2.933  0.00  0.00    +0.304 C 
ATOM      3  O   UNL     1       0.981   1.684  -2.571  0.00  0.00    -0.252 OA
ATOM      4  N   UNL     1      -0.537   1.073  -4.073  0.00  0.00    -0.269 N 
ATOM      5  H   UNL     1      -0.736  -0.883  -2.483  0.00  0.00    +0.151 HD
ATOM      6  H   UNL     1      -1.241   0.457  -4.329  0.00  0.00    +0.156 HD
ENDROOT
BRANCH   4   7
ATOM      7  C   UNL     1      -0.237   2.171  -4.887  0.00  0.00    +0.038 A 
ATOM      8  C   UNL     1       0.163   3.369  -4.315  0.00  0.00    +0.036 A 
ATOM      9  C   UNL     1       0.460   4.461  -5.130  0.00  0.00    +0.039 A 
ATOM     10  C   UNL     1       0.354   4.340  -6.517  0.00  0.00    +0.013 A 
ATOM     11  C   UNL     1      -0.045   3.143  -7.077  0.00  0.00    +0.006 A 
ATOM     12  C   UNL     1      -0.335   2.059  -6.269  0.00  0.00    -0.029 A 
ATOM     13  C   UNL     1      -0.763   0.754  -6.888  0.00  0.00    +0.045 C 
BRANCH   9  14
ATOM     14  C   UNL     1       0.887   5.742  -4.528  0.00  0.00    +0.248 C 
ATOM     15  O   UNL     1       0.978   5.845  -3.321  0.00  0.00    -0.270 OA
ATOM     16  N   UNL     1       1.174   6.795  -5.318  0.00  0.00    -0.282 N 
ATOM     17  H   UNL     1       1.022   6.740  -6.275  0.00  0.00    +0.155 HD
BRANCH  16  18
ATOM     18  C   UNL     1       1.690   7.968  -4.759  0.00  0.00    +0.034 A 
ATOM     19  C   UNL     1       1.341   9.204  -5.289  0.00  0.00    +0.023 A 
ATOM     20  C   UNL     1       1.853  10.361  -4.734  0.00  0.00    +0.002 A 
ATOM     21  C   UNL     1       2.712  10.290  -3.653  0.00  0.00    +0.000 A 
ATOM     22  C   UNL     1       3.061   9.061  -3.123  0.00  0.00    +0.002 A 
ATOM     23  C   UNL     1       2.549   7.901  -3.669  0.00  0.00    +0.023 A 
ENDBRANCH  16  18
ENDBRANCH   9  14
ENDBRANCH   4   7
BRANCH   1  24
ATOM     24  C   UNL     1       0.675  -0.453  -0.955  0.00  0.00    +0.108 C 
BRANCH  24  25
ATOM     25  C   UNL     1       0.850  -1.933  -0.729  0.00  0.00    +0.015 A 
ATOM     26  C   UNL     1      -0.055  -2.827  -1.270  0.00  0.00    +0.009 A 
ATOM     27  C   UNL     1       0.104  -4.184  -1.063  0.00  0.00    +0.001 A 
ATOM     28  C   UNL     1       1.170  -4.651  -0.315  0.00  0.00    +0.004 A 
ATOM     29  C   UNL     1       2.077  -3.762   0.227  0.00  0.00    +0.046 A 
ATOM     30  C   UNL     1       1.922  -2.400   0.016  0.00  0.00    +0.132 A 
BRANCH  30  31
ATOM     31  O   UNL     1       2.817  -1.523   0.543  0.00  0.00    -0.434 OA
BRANCH  31  32
ATOM     32  C   UNL     1       3.897  -2.075   1.300  0.00  0.00    +0.541 C 
ATOM     33  F   UNL     1       3.386  -2.791   2.388  0.00  0.00    -0.166 F 
ATOM     34  F   UNL     1       4.645  -2.933   0.487  0.00  0.00    -0.166 F 
ENDBRANCH  31  32
ENDBRANCH  30  31
ENDBRANCH  24  25
BRANCH  24  36
ATOM     35  C   UNL     1      -0.163   1.674   0.053  0.00  0.00    +0.006 C 
ATOM     36  C   UNL     1      -0.093   0.154   0.221  0.00  0.00    +0.024 C 
ENDBRANCH  24  36
ENDBRANCH   1  24
TORSDOF 8
