REMARK  Name = ZINC34681405
REMARK  5 active torsions:
REMARK  status: ('A' for Active; 'I' for Inactive)
REMARK    1  A    between atoms: C_1  and  C_2
REMARK    2  A    between atoms: C_5  and  S_8
REMARK    3  A    between atoms: S_8  and  N_11
REMARK    4  A    between atoms: C_21  and  N_24
REMARK    5  A    between atoms: N_27  and  C_28
REMARK                            x       y       z     vdW  Elec       q    Type
REMARK                         _______ _______ _______ _____ _____    ______ ____
ROOT
ATOM      1  N   UNL     1       1.699  -5.004  -0.011  0.00  0.00    -0.175 NA
ATOM      2  C   UNL     1       2.362  -5.189  -1.270  0.00  0.00    +0.111 C 
ATOM      3  C   UNL     1       2.080  -6.623  -1.748  0.00  0.00    +0.036 C 
ATOM      4  C   UNL     1       2.924  -7.607  -1.052  0.00  0.00    +0.108 C 
ATOM      5  N   UNL     1       2.704  -7.531   0.411  0.00  0.00    -0.315 N 
ATOM      6  C   UNL     1       3.305  -6.474   1.175  0.00  0.00    +0.123 C 
ATOM      7  C   UNL     1       2.392  -5.224   1.288  0.00  0.00    +0.128 C 
ATOM      8  C   UNL     1       1.914  -8.485   1.047  0.00  0.00    +0.099 A 
ATOM      9  C   UNL     1       1.795  -8.468   2.433  0.00  0.00    +0.043 A 
ATOM     10  C   UNL     1       1.008  -9.420   3.054  0.00  0.00    +0.028 A 
ATOM     11  C   UNL     1       0.360 -10.366   2.261  0.00  0.00    +0.051 A 
ATOM     12  C   UNL     1       0.525 -10.322   0.885  0.00  0.00    +0.107 A 
ATOM     13  N   UNL     1       1.280  -9.396   0.325  0.00  0.00    -0.348 N 
ATOM     14  H   UNL     1       1.375  -9.384  -0.640  0.00  0.00    +0.167 HD
ENDROOT
BRANCH  11  15
ATOM     15  N   UNL     1      -0.448 -11.350   2.848  0.00  0.00    -0.268 N 
ATOM     16  C   UNL     1      -1.169 -11.061   3.949  0.00  0.00    +0.308 C 
ATOM     17  O   UNL     1      -1.196  -9.924   4.377  0.00  0.00    -0.252 OA
ATOM     18  N   UNL     1      -1.859 -12.034   4.577  0.00  0.00    -0.269 N 
ATOM     19  H   UNL     1      -0.488 -12.239   2.461  0.00  0.00    +0.156 HD
ATOM     20  H   UNL     1      -1.891 -12.927   4.199  0.00  0.00    +0.156 HD
BRANCH  18  21
ATOM     21  C   UNL     1      -2.530 -11.755   5.774  0.00  0.00    +0.038 A 
ATOM     22  C   UNL     1      -2.602 -12.719   6.771  0.00  0.00    +0.026 A 
ATOM     23  C   UNL     1      -3.264 -12.443   7.952  0.00  0.00    +0.043 A 
ATOM     24  C   UNL     1      -3.856 -11.207   8.142  0.00  0.00    +0.159 A 
ATOM     25  C   UNL     1      -3.787 -10.243   7.148  0.00  0.00    +0.160 A 
ATOM     26  C   UNL     1      -3.120 -10.514   5.967  0.00  0.00    +0.064 A 
ATOM     27  F   UNL     1      -4.366  -9.037   7.336  0.00  0.00    -0.202 F 
ATOM     28  F   UNL     1      -4.503 -10.940   9.298  0.00  0.00    -0.202 F 
ENDBRANCH  18  21
ENDBRANCH  11  15
BRANCH   1  29
ATOM     29  S   UNL     1       0.114  -4.524  -0.003  0.00  0.00    +0.061 S 
ATOM     30  O   UNL     1      -0.431  -4.944   1.240  0.00  0.00    -0.153 OA
ATOM     31  O   UNL     1      -0.438  -4.922  -1.250  0.00  0.00    -0.153 OA
BRANCH  29  36
ATOM     32  C   UNL     1       0.075   1.510   0.051  0.00  0.00    +0.044 C 
ATOM     33  C   UNL     1       0.085   0.003   0.037  0.00  0.00    -0.050 A 
ATOM     34  C   UNL     1       0.088  -0.678  -1.166  0.00  0.00    +0.005 A 
ATOM     35  C   UNL     1       0.097  -2.060  -1.178  0.00  0.00    +0.029 A 
ATOM     36  C   UNL     1       0.104  -2.762   0.013  0.00  0.00    +0.105 A 
ATOM     37  C   UNL     1       0.102  -2.081   1.216  0.00  0.00    +0.029 A 
ATOM     38  C   UNL     1       0.098  -0.699   1.228  0.00  0.00    +0.005 A 
ENDBRANCH  29  36
ENDBRANCH   1  29
TORSDOF 4
