REMARK  Name = ZINC14544578
REMARK  4 active torsions:
REMARK  status: ('A' for Active; 'I' for Inactive)
REMARK    1  A    between atoms: C_7  and  C_11
REMARK    2  A    between atoms: C_22  and  S_27
REMARK    3  A    between atoms: S_27  and  N_30
REMARK    4  A    between atoms: N_30  and  C_31
REMARK                            x       y       z     vdW  Elec       q    Type
REMARK                         _______ _______ _______ _____ _____    ______ ____
ROOT
ATOM      1  C   UNL     1       3.028   5.065   0.000  0.00  0.00    +0.107 C 
ATOM      2  C   UNL     1       3.093   5.595   1.421  0.00  0.00    +0.029 C 
ATOM      3  C   UNL     1       1.821   5.472   2.271  0.00  0.00    +0.033 C 
ATOM      4  C   UNL     1       2.402   5.356   3.682  0.00  0.00    -0.030 C 
ATOM      5  C   UNL     1       3.631   4.857   3.626  0.00  0.00    -0.023 C 
ATOM      6  C   UNL     1       3.962   4.568   2.208  0.00  0.00    +0.049 C 
ATOM      7  C   UNL     1       5.345   4.653   1.692  0.00  0.00    -0.018 A 
ATOM      8  C   UNL     1       6.448   4.485   2.501  0.00  0.00    +0.034 A 
ATOM      9  C   UNL     1       7.722   4.559   1.968  0.00  0.00    +0.106 A 
ATOM     10  C   UNL     1       7.893   4.801   0.617  0.00  0.00    +0.030 A 
ATOM     11  C   UNL     1       6.795   4.977  -0.200  0.00  0.00    +0.025 A 
ATOM     12  C   UNL     1       5.510   4.913   0.327  0.00  0.00    +0.031 A 
ATOM     13  N   UNL     1       4.413   5.131  -0.514  0.00  0.00    -0.336 N 
ATOM     14  H   UNL     1       4.564   5.330  -1.452  0.00  0.00    +0.147 HD
ENDROOT
BRANCH   1  21
ATOM     15  C   UNL     1      -1.246   3.139   0.030  0.00  0.00    +0.001 A 
ATOM     16  C   UNL     1      -1.213   1.751   0.017  0.00  0.00    +0.002 A 
ATOM     17  C   UNL     1      -0.013   1.076   0.008  0.00  0.00    +0.026 A 
ATOM     18  C   UNL     1       1.181   1.790   0.000  0.00  0.00    +0.047 A 
ATOM     19  C   UNL     1       1.143   3.196   0.008  0.00  0.00    +0.005 A 
ATOM     20  C   UNL     1      -0.085   3.860   0.023  0.00  0.00    +0.010 A 
ATOM     21  C   UNL     1       2.539   3.639  -0.002  0.00  0.00    -0.002 A 
ATOM     22  C   UNL     1       3.301   2.534  -0.014  0.00  0.00    +0.089 A 
ATOM     23  N   UNL     1       2.507   1.420  -0.013  0.00  0.00    -0.360 N 
ATOM     24  H   UNL     1       2.831   0.505  -0.021  0.00  0.00    +0.165 HD
ENDBRANCH   1  21
BRANCH   9  25
ATOM     25  S   UNL     1       9.127   4.345   3.009  0.00  0.00    +0.059 S 
ATOM     26  O   UNL     1      10.211   5.002   2.368  0.00  0.00    -0.153 OA
ATOM     27  O   UNL     1       8.709   4.673   4.327  0.00  0.00    -0.153 OA
BRANCH  25  28
ATOM     28  N   UNL     1       9.489   2.729   3.016  0.00  0.00    -0.187 NA
ATOM     29  H   UNL     1       9.408   2.218   3.837  0.00  0.00    +0.148 HD
BRANCH  28  30
ATOM     30  C   UNL     1       9.932   2.072   1.784  0.00  0.00    +0.077 C 
ATOM     31  C   UNL     1       8.730   1.427   1.090  0.00  0.00    +0.020 C 
ATOM     32  C   UNL     1       9.193   0.740  -0.197  0.00  0.00    +0.002 C 
ATOM     33  C   UNL     1      10.225  -0.337   0.142  0.00  0.00    +0.000 C 
ATOM     34  C   UNL     1      11.427   0.309   0.836  0.00  0.00    +0.002 C 
ATOM     35  C   UNL     1      10.964   0.995   2.123  0.00  0.00    +0.020 C 
ENDBRANCH  28  30
ENDBRANCH  25  28
ENDBRANCH   9  25
TORSDOF 4
