REMARK  Name = ZINC60351506
REMARK  8 active torsions:
REMARK  status: ('A' for Active; 'I' for Inactive)
REMARK    1  A    between atoms: C_1  and  C_2
REMARK    2  A    between atoms: N_4  and  C_5
REMARK    3  A    between atoms: C_5  and  C_12
REMARK    4  A    between atoms: C_14  and  C_17
REMARK    5  A    between atoms: C_17  and  C_18
REMARK    6  A    between atoms: C_18  and  C_19
REMARK    7  A    between atoms: N_21  and  C_22
REMARK    8  A    between atoms: C_22  and  C_27
REMARK                            x       y       z     vdW  Elec       q    Type
REMARK                         _______ _______ _______ _____ _____    ______ ____
ROOT
ATOM      1  C   UNL     1       2.012  -1.502   3.190  0.00  0.00    +0.108 C 
ENDROOT
BRANCH   1   4
ATOM      2  C   UNL     1      -0.916  -0.424   1.344  0.00  0.00    +0.195 A 
ATOM      3  N   UNL     1       0.382  -0.367   1.663  0.00  0.00    -0.194 NA
ATOM      4  C   UNL     1       0.658  -1.258   2.574  0.00  0.00    +0.228 A 
ATOM      5  O   UNL     1      -0.468  -1.919   2.869  0.00  0.00    -0.338 OA
ATOM      6  N   UNL     1      -1.485  -1.353   2.057  0.00  0.00    -0.059 NA
BRANCH   2   7
ATOM      7  C   UNL     1      -1.607   0.450   0.329  0.00  0.00    +0.097 C 
ATOM      8  C   UNL     1      -1.074   0.153  -1.046  0.00  0.00    +0.034 C 
ATOM      9  C   UNL     1      -1.032   1.404  -1.945  0.00  0.00    +0.003 C 
ATOM     10  C   UNL     1      -2.287   2.286  -1.800  0.00  0.00    +0.000 C 
ATOM     11  C   UNL     1      -3.554   1.478  -1.728  0.00  0.00    +0.000 C 
ATOM     12  C   UNL     1      -3.900   1.240  -0.244  0.00  0.00    +0.003 C 
ATOM     13  C   UNL     1      -3.122   0.158   0.341  0.00  0.00    +0.034 C 
BRANCH   7  17
ATOM     14  C   UNL     1       0.122   3.791   1.034  0.00  0.00    +0.109 C 
ATOM     15  C   UNL     1      -0.117   2.341   0.701  0.00  0.00    +0.211 C 
ATOM     16  O   UNL     1       0.822   1.608   0.475  0.00  0.00    -0.276 OA
ATOM     17  N   UNL     1      -1.375   1.859   0.653  0.00  0.00    -0.303 N 
ATOM     18  H   UNL     1      -2.126   2.446   0.834  0.00  0.00    +0.150 HD
ENDBRANCH   7  17
ENDBRANCH   2   7
ENDBRANCH   1   4
BRANCH   1  19
ATOM     19  C   UNL     1       2.175  -0.620   4.430  0.00  0.00    +0.105 C 
BRANCH  19  20
ATOM     20  C   UNL     1       3.529  -0.864   5.045  0.00  0.00    +0.214 C 
ATOM     21  O   UNL     1       4.288  -1.664   4.542  0.00  0.00    -0.276 OA
ATOM     22  N   UNL     1       3.895  -0.193   6.155  0.00  0.00    -0.306 N 
ATOM     23  H   UNL     1       3.324   0.508   6.509  0.00  0.00    +0.150 HD
BRANCH  22  24
ATOM     24  C   UNL     1       5.154  -0.521   6.827  0.00  0.00    +0.060 C 
ATOM     25  C   UNL     1       5.155  -2.001   7.285  0.00  0.00    +0.030 C 
ATOM     26  C   UNL     1       4.339  -1.952   8.601  0.00  0.00    +0.002 C 
ATOM     27  C   UNL     1       4.773  -0.630   9.266  0.00  0.00    +0.002 C 
ATOM     28  C   UNL     1       5.291   0.280   8.139  0.00  0.00    +0.030 C 
BRANCH  24  29
ATOM     29  C   UNL     1       6.324  -0.246   5.917  0.00  0.00    -0.024 A 
ATOM     30  C   UNL     1       6.168   0.584   4.824  0.00  0.00    +0.007 A 
ATOM     31  C   UNL     1       7.240   0.836   3.988  0.00  0.00    +0.020 A 
ATOM     32  C   UNL     1       8.469   0.257   4.247  0.00  0.00    +0.041 A 
ATOM     33  C   UNL     1       8.625  -0.575   5.342  0.00  0.00    +0.020 A 
ATOM     34  C   UNL     1       7.553  -0.821   6.180  0.00  0.00    +0.007 A 
ATOM     35 CL   UNL     1       9.816   0.572   3.199  0.00  0.00    -0.084 Cl
ENDBRANCH  24  29
ENDBRANCH  22  24
ENDBRANCH  19  20
ENDBRANCH   1  19
TORSDOF 7
