REMARK  Name = ZINC49165175
REMARK  6 active torsions:
REMARK  status: ('A' for Active; 'I' for Inactive)
REMARK    1  A    between atoms: C_1  and  C_2
REMARK    2  A    between atoms: C_3  and  C_7
REMARK    3  A    between atoms: C_9  and  C_10
REMARK    4  A    between atoms: C_9  and  C_12
REMARK    5  A    between atoms: C_12  and  C_14
REMARK    6  A    between atoms: C_17  and  C_20
REMARK                            x       y       z     vdW  Elec       q    Type
REMARK                         _______ _______ _______ _____ _____    ______ ____
ROOT
ATOM      1  C   UNL     1      -1.293   1.753  -0.155  0.00  0.00    +0.207 C 
ATOM      2  O   UNL     1      -0.198   1.226  -0.083  0.00  0.00    -0.286 OA
ENDROOT
BRANCH   1   3
ATOM      3  C   UNL     1      -1.399   3.220  -0.324  0.00  0.00    +0.023 A 
ATOM      4  C   UNL     1      -2.654   3.829  -0.366  0.00  0.00    +0.012 A 
ATOM      5  C   UNL     1      -2.752   5.195  -0.523  0.00  0.00    +0.014 A 
ATOM      6  C   UNL     1      -1.596   5.969  -0.641  0.00  0.00    +0.037 A 
ATOM      7  C   UNL     1      -0.341   5.359  -0.599  0.00  0.00    +0.014 A 
ATOM      8  C   UNL     1      -0.243   3.995  -0.437  0.00  0.00    +0.012 A 
BRANCH   6   9
ATOM      9  C   UNL     1      -1.702   7.435  -0.811  0.00  0.00    +0.242 C 
ATOM     10  O   UNL     1      -2.795   7.965  -0.848  0.00  0.00    -0.270 OA
ATOM     11  N   UNL     1      -0.586   8.182  -0.925  0.00  0.00    -0.325 N 
ATOM     12  H   UNL     1       0.286   7.759  -0.895  0.00  0.00    +0.145 HD
ATOM     13  H   UNL     1      -0.655   9.143  -1.036  0.00  0.00    +0.145 HD
ENDBRANCH   6   9
ENDBRANCH   1   3
BRANCH   1  16
ATOM     14  C   UNL     1      -2.815   0.267   1.110  0.00  0.00    +0.210 C 
ATOM     15  O   UNL     1      -3.873  -0.569   1.154  0.00  0.00    -0.286 OA
ATOM     16  C   UNL     1      -2.504   0.938  -0.073  0.00  0.00    +0.146 C 
BRANCH  14  19
ATOM     17  C   UNL     1      -1.413  -1.976   2.802  0.00  0.00    +0.087 C 
ATOM     18  C   UNL     1      -1.371  -0.492   3.059  0.00  0.00    +0.113 A 
ATOM     19  C   UNL     1      -1.991   0.470   2.307  0.00  0.00    +0.064 A 
ATOM     20  C   UNL     1      -1.657   1.750   2.951  0.00  0.00    +0.053 A 
ATOM     21  C   UNL     1      -0.886   1.443   4.005  0.00  0.00    +0.196 A 
ATOM     22  O   UNL     1      -0.728   0.111   4.063  0.00  0.00    -0.467 OA
ENDBRANCH  14  19
BRANCH  16  23
ATOM     23  C   UNL     1      -3.370   0.827  -1.208  0.00  0.00    +0.107 C 
ATOM     24  N   UNL     1      -4.058   0.740  -2.108  0.00  0.00    -0.191 NA
ENDBRANCH  16  23
ENDBRANCH   1  16
TORSDOF 5
