REMARK  Name = ZINC32127134
REMARK  7 active torsions:
REMARK  status: ('A' for Active; 'I' for Inactive)
REMARK    1  A    between atoms: C_6  and  C_7
REMARK    2  A    between atoms: C_7  and  N_8
REMARK    3  A    between atoms: N_11  and  C_14
REMARK    4  A    between atoms: C_17  and  N_20
REMARK    5  A    between atoms: N_20  and  C_21
REMARK    6  A    between atoms: C_21  and  N_23
REMARK    7  A    between atoms: C_24  and  C_26
REMARK                            x       y       z     vdW  Elec       q    Type
REMARK                         _______ _______ _______ _____ _____    ______ ____
ROOT
ATOM      1  C   UNL     1      10.942  -3.102   5.564  0.00  0.00    +0.030 A 
ATOM      2  C   UNL     1      10.191  -4.270   5.539  0.00  0.00    +0.025 A 
ATOM      3  C   UNL     1       8.932  -4.269   4.973  0.00  0.00    +0.025 A 
ATOM      4  C   UNL     1       8.415  -3.101   4.429  0.00  0.00    +0.033 A 
ATOM      5  C   UNL     1       9.168  -1.934   4.450  0.00  0.00    +0.025 A 
ATOM      6  C   UNL     1      10.425  -1.933   5.020  0.00  0.00    +0.025 A 
ENDROOT
BRANCH   1  10
ATOM      7  N   UNL     1      14.205  -2.302   8.013  0.00  0.00    +0.384 N 
ATOM      8  C   UNL     1      14.253  -1.830   6.622  0.00  0.00    -0.059 C 
ATOM      9  C   UNL     1      12.832  -1.769   6.057  0.00  0.00    +0.086 C 
ATOM     10  N   UNL     1      12.218  -3.102   6.137  0.00  0.00    -0.333 N 
ATOM     11  C   UNL     1      12.170  -3.574   7.528  0.00  0.00    +0.086 C 
ATOM     12  C   UNL     1      13.591  -3.635   8.093  0.00  0.00    -0.059 C 
ATOM     13  H   UNL     1      13.578  -1.604   8.587  0.00  0.00    -0.081 HD
BRANCH   7  14
ATOM     14  C   UNL     1      15.545  -2.302   8.615  0.00  0.00    -0.043 C 
BRANCH  14  20
ATOM     15  C   UNL     1      15.297  -1.487  10.968  0.00  0.00    +0.003 A 
ATOM     16  C   UNL     1      15.185  -1.716  12.327  0.00  0.00    +0.020 A 
ATOM     17  C   UNL     1      15.218  -3.010  12.815  0.00  0.00    +0.041 A 
ATOM     18  C   UNL     1      15.357  -4.074  11.943  0.00  0.00    +0.020 A 
ATOM     19  C   UNL     1      15.463  -3.845  10.584  0.00  0.00    +0.003 A 
ATOM     20  C   UNL     1      15.430  -2.552  10.097  0.00  0.00    -0.064 A 
ATOM     21 CL   UNL     1      15.085  -3.297  14.522  0.00  0.00    -0.084 Cl
ENDBRANCH  14  20
ENDBRANCH   7  14
ENDBRANCH   1  10
BRANCH   4  22
ATOM     22  N   UNL     1       7.137  -3.100   3.855  0.00  0.00    -0.297 N 
ATOM     23  H   UNL     1       6.971  -2.611   2.884  0.00  0.00    +0.154 HD
BRANCH  22  24
ATOM     24  C   UNL     1       6.112  -3.699   4.493  0.00  0.00    +0.141 C 
ATOM     25  S   UNL     1       6.391  -4.552   5.950  0.00  0.00    -0.018 S 
BRANCH  24  26
ATOM     26  N   UNL     1       4.866  -3.625   3.983  0.00  0.00    -0.264 N 
ATOM     27  C   UNL     1       3.841  -4.224   4.620  0.00  0.00    +0.250 C 
ATOM     28  O   UNL     1       4.039  -4.830   5.655  0.00  0.00    -0.270 OA
ATOM     29  H   UNL     1       4.687  -3.077   3.046  0.00  0.00    +0.157 HD
BRANCH  27  30
ATOM     30  C   UNL     1       2.478  -4.143   4.062  0.00  0.00    +0.041 A 
ATOM     31  C   UNL     1       2.247  -3.447   2.873  0.00  0.00    +0.017 A 
ATOM     32  C   UNL     1       0.974  -3.373   2.353  0.00  0.00    +0.050 A 
ATOM     33  C   UNL     1      -0.085  -3.988   3.009  0.00  0.00    +0.166 A 
ATOM     34  C   UNL     1       0.138  -4.685   4.197  0.00  0.00    +0.167 A 
ATOM     35  C   UNL     1       1.413  -4.763   4.723  0.00  0.00    +0.062 A 
ATOM     36  O   UNL     1      -1.052  -5.190   4.635  0.00  0.00    -0.453 OA
ATOM     37  C   UNL     1      -1.931  -5.145   3.495  0.00  0.00    +0.466 C 
ATOM     38  O   UNL     1      -1.413  -4.058   2.706  0.00  0.00    -0.453 OA
ENDBRANCH  27  30
ENDBRANCH  24  26
ENDBRANCH  22  24
ENDBRANCH   4  22
TORSDOF 7
