REMARK  Name = ZINC16400311
REMARK  5 active torsions:
REMARK  status: ('A' for Active; 'I' for Inactive)
REMARK    1  A    between atoms: N_9  and  S_10
REMARK    2  A    between atoms: S_10  and  C_13
REMARK    3  A    between atoms: C_16  and  N_19
REMARK    4  A    between atoms: C_20  and  C_22
REMARK    5  A    between atoms: C_28  and  C_30
REMARK                            x       y       z     vdW  Elec       q    Type
REMARK                         _______ _______ _______ _____ _____    ______ ____
ROOT
ATOM      1  C   UNL     1      -4.675  -0.401   0.291  0.00  0.00    +0.109 A 
ATOM      2  C   UNL     1      -4.753   0.977   0.204  0.00  0.00    +0.030 A 
ATOM      3  C   UNL     1      -3.600   1.732   0.113  0.00  0.00    +0.025 A 
ATOM      4  C   UNL     1      -2.361   1.105   0.110  0.00  0.00    +0.034 A 
ATOM      5  C   UNL     1      -2.286  -0.279   0.192  0.00  0.00    +0.025 A 
ATOM      6  C   UNL     1      -3.442  -1.028   0.288  0.00  0.00    +0.030 A 
ENDROOT
BRANCH   4   7
ATOM      7  N   UNL     1      -1.191   1.867   0.018  0.00  0.00    -0.285 N 
ATOM      8  C   UNL     1      -1.125   3.076   0.609  0.00  0.00    +0.221 C 
ATOM      9  O   UNL     1      -2.107   3.541   1.149  0.00  0.00    -0.275 OA
ATOM     10  H   UNL     1      -0.426   1.524  -0.471  0.00  0.00    +0.155 HD
BRANCH   8  11
ATOM     11  C   UNL     1       0.169   3.848   0.605  0.00  0.00    +0.093 C 
ATOM     12  C   UNL     1       0.596   4.127  -0.837  0.00  0.00    +0.040 C 
ATOM     13  C   UNL     1       1.728   5.112  -0.859  0.00  0.00    -0.030 C 
ATOM     14  C   UNL     1       2.046   5.874   0.138  0.00  0.00    -0.030 C 
ATOM     15  C   UNL     1       1.335   5.871   1.459  0.00  0.00    +0.042 C 
ATOM     16  C   UNL     1      -0.029   5.190   1.321  0.00  0.00    +0.118 C 
BRANCH  16  17
ATOM     17  C   UNL     1      -0.618   4.953   2.688  0.00  0.00    +0.360 C 
ATOM     18  O   UNL     1      -0.856   3.828   3.056  0.00  0.00    -0.246 OA
ATOM     19  O   UNL     1      -0.877   5.993   3.496  0.00  0.00    -0.246 OA
ENDBRANCH  16  17
ENDBRANCH   8  11
ENDBRANCH   4   7
BRANCH   1  20
ATOM     20  S   UNL     1      -6.149  -1.360   0.408  0.00  0.00    +0.075 S 
ATOM     21  O   UNL     1      -5.787  -2.586   1.028  0.00  0.00    -0.150 OA
ATOM     22  O   UNL     1      -7.149  -0.503   0.941  0.00  0.00    -0.150 OA
BRANCH  20  31
ATOM     23  C   UNL     1      -9.108   0.296  -3.786  0.00  0.00    +0.000 A 
ATOM     24  C   UNL     1      -8.909   0.872  -2.545  0.00  0.00    +0.002 A 
ATOM     25  C   UNL     1      -8.096   0.257  -1.617  0.00  0.00    +0.025 A 
ATOM     26  C   UNL     1      -7.471  -0.955  -1.921  0.00  0.00    +0.054 A 
ATOM     27  C   UNL     1      -7.674  -1.521  -3.170  0.00  0.00    -0.023 A 
ATOM     28  C   UNL     1      -8.490  -0.901  -4.097  0.00  0.00    +0.005 A 
ATOM     29  C   UNL     1      -6.888  -2.811  -3.246  0.00  0.00    +0.058 C 
ATOM     30  C   UNL     1      -6.195  -2.922  -1.878  0.00  0.00    +0.136 C 
ATOM     31  N   UNL     1      -6.615  -1.730  -1.137  0.00  0.00    -0.202 N 
ENDBRANCH  20  31
ENDBRANCH   1  20
TORSDOF 5
