REMARK  Name = ZINC25330015
REMARK  9 active torsions:
REMARK  status: ('A' for Active; 'I' for Inactive)
REMARK    1  A    between atoms: C_1  and  C_2
REMARK    2  A    between atoms: C_2  and  C_30
REMARK    3  A    between atoms: C_4  and  N_10
REMARK    4  A    between atoms: C_6  and  C_8
REMARK    5  A    between atoms: C_6  and  C_9
REMARK    6  A    between atoms: C_11  and  C_13
REMARK    7  A    between atoms: C_17  and  S_19
REMARK    8  A    between atoms: S_19  and  N_22
REMARK    9  A    between atoms: N_22  and  C_23
REMARK                            x       y       z     vdW  Elec       q    Type
REMARK                         _______ _______ _______ _____ _____    ______ ____
ROOT
ATOM      1  C   UNL     1      -5.907  -1.026   1.624  0.00  0.00    +0.039 A 
ATOM      2  C   UNL     1      -6.154  -2.017   0.672  0.00  0.00    +0.013 A 
ATOM      3  C   UNL     1      -7.426  -2.529   0.527  0.00  0.00    +0.003 A 
ATOM      4  C   UNL     1      -8.458  -2.062   1.323  0.00  0.00    +0.029 A 
ATOM      5  C   UNL     1      -8.220  -1.081   2.268  0.00  0.00    +0.111 A 
ATOM      6  C   UNL     1      -6.951  -0.564   2.427  0.00  0.00    +0.042 A 
ENDROOT
BRANCH   1   8
ATOM      7  N   UNL     1      -3.540  -0.922   1.007  0.00  0.00    -0.309 N 
ATOM      8  C   UNL     1      -4.546  -0.473   1.784  0.00  0.00    +0.244 C 
ATOM      9  O   UNL     1      -4.333   0.386   2.617  0.00  0.00    -0.270 OA
ATOM     10  H   UNL     1      -3.710  -1.608   0.342  0.00  0.00    +0.149 HD
BRANCH   7  14
ATOM     11  C   UNL     1      -0.019   1.528   0.010  0.00  0.00    -0.010 C 
ATOM     12  C   UNL     1       0.002  -0.004   0.002  0.00  0.00    -0.072 C 
ATOM     13  C   UNL     1      -1.419  -0.538  -0.145  0.00  0.00    +0.009 C 
ATOM     14  C   UNL     1      -2.188  -0.373   1.166  0.00  0.00    +0.071 C 
ATOM     15  C   UNL     1      -1.451  -1.155   2.253  0.00  0.00    +0.009 C 
ATOM     16  C   UNL     1      -0.030  -0.627   2.418  0.00  0.00    -0.072 C 
ATOM     17  N   UNL     1       0.697  -0.529   1.164  0.00  0.00    +0.386 N 
ATOM     18  C   UNL     1       0.730  -1.621   3.326  0.00  0.00    -0.010 C 
ATOM     19  C   UNL     1      -0.059   0.719   3.151  0.00  0.00    -0.010 C 
ATOM     20  C   UNL     1       0.791  -0.440  -1.254  0.00  0.00    -0.010 C 
ATOM     21  H   UNL     1       1.056  -1.460   0.929  0.00  0.00    -0.084 HD
ATOM     22  H   UNL     1       1.534   0.040   1.322  0.00  0.00    -0.084 HD
ENDBRANCH   7  14
ENDBRANCH   1   8
BRANCH   5  23
ATOM     23  S   UNL     1      -9.541  -0.493   3.276  0.00  0.00    +0.092 S 
ATOM     24  O   UNL     1      -9.174   0.811   3.705  0.00  0.00    -0.148 OA
ATOM     25  O   UNL     1     -10.742  -0.750   2.562  0.00  0.00    -0.148 OA
BRANCH  23  26
ATOM     26  N   UNL     1      -9.583  -1.443   4.632  0.00  0.00    -0.098 NA
BRANCH  26  27
ATOM     27  C   UNL     1     -10.540  -1.207   5.621  0.00  0.00    +0.076 A 
ATOM     28  C   UNL     1     -11.461  -0.178   5.467  0.00  0.00    +0.027 A 
ATOM     29  C   UNL     1     -12.406   0.053   6.446  0.00  0.00    +0.003 A 
ATOM     30  C   UNL     1     -12.437  -0.737   7.580  0.00  0.00    +0.020 A 
ATOM     31  C   UNL     1     -11.521  -1.762   7.738  0.00  0.00    +0.043 A 
ATOM     32  C   UNL     1     -10.576  -2.003   6.758  0.00  0.00    +0.046 A 
ATOM     33 CL   UNL     1     -11.564  -2.752   9.164  0.00  0.00    -0.083 Cl
ENDBRANCH  26  27
ENDBRANCH  23  26
ENDBRANCH   5  23
TORSDOF 5
