REMARK  Name = ZINC40824060
REMARK  8 active torsions:
REMARK  status: ('A' for Active; 'I' for Inactive)
REMARK    1  A    between atoms: C_1  and  C_2
REMARK    2  A    between atoms: C_5  and  C_8
REMARK    3  A    between atoms: N_10  and  N_11
REMARK    4  A    between atoms: C_12  and  C_14
REMARK    5  A    between atoms: C_15  and  C_35
REMARK    6  A    between atoms: N_23  and  N_24
REMARK    7  A    between atoms: N_24  and  C_25
REMARK    8  A    between atoms: C_29  and  C_31
REMARK                            x       y       z     vdW  Elec       q    Type
REMARK                         _______ _______ _______ _____ _____    ______ ____
ROOT
ATOM      1  C   UNL     1       0.130  -8.479   2.290  0.00  0.00    +0.194 A 
ATOM      2  C   UNL     1       0.141  -9.284   3.395  0.00  0.00    +0.009 A 
ATOM      3  C   UNL     1       0.159 -10.601   2.921  0.00  0.00    +0.042 A 
ATOM      4  C   UNL     1       0.160 -10.545   1.547  0.00  0.00    +0.115 A 
ATOM      5  O   UNL     1       0.134  -9.263   1.188  0.00  0.00    -0.454 OA
ATOM      6  C   UNL     1       0.183 -11.775   0.676  0.00  0.00    +0.075 C 
ATOM      7  C   UNL     1       0.712 -12.962   1.486  0.00  0.00    +0.014 C 
ATOM      8  C   UNL     1      -0.076 -13.120   2.791  0.00  0.00    +0.058 C 
ATOM      9  C   UNL     1       0.173 -11.889   3.650  0.00  0.00    +0.070 C 
ATOM     10  N   UNL     1       0.384 -11.964   4.928  0.00  0.00    -0.186 NA
ATOM     11  C   UNL     1       0.135  -8.842   4.836  0.00  0.00    +0.048 C 
ENDROOT
BRANCH   1  13
ATOM     12  N   UNL     1       0.095  -6.332   1.134  0.00  0.00    -0.228 N 
ATOM     13  C   UNL     1       0.110  -7.012   2.298  0.00  0.00    +0.296 C 
ATOM     14  O   UNL     1       0.107  -6.410   3.355  0.00  0.00    -0.265 OA
ATOM     15  H   UNL     1       0.097  -6.813   0.292  0.00  0.00    +0.173 HD
BRANCH  12  18
ATOM     16  C   UNL     1       0.061  -4.251  -0.021  0.00  0.00    +0.260 C 
ATOM     17  O   UNL     1       0.064  -4.853  -1.077  0.00  0.00    -0.269 OA
ATOM     18  N   UNL     1       0.076  -4.931   1.142  0.00  0.00    -0.230 N 
ATOM     19  H   UNL     1       0.073  -4.451   1.985  0.00  0.00    +0.173 HD
BRANCH  16  24
ATOM     20  C   UNL     1      -0.018   1.503   0.010  0.00  0.00    +0.044 C 
ATOM     21  C   UNL     1       0.002  -0.004   0.002  0.00  0.00    -0.050 A 
ATOM     22  C   UNL     1       0.006  -0.686  -1.202  0.00  0.00    +0.004 A 
ATOM     23  C   UNL     1       0.025  -2.066  -1.216  0.00  0.00    +0.013 A 
ATOM     24  C   UNL     1       0.041  -2.773  -0.013  0.00  0.00    +0.038 A 
ATOM     25  C   UNL     1       0.037  -2.079   1.198  0.00  0.00    +0.013 A 
ATOM     26  C   UNL     1       0.023  -0.699   1.198  0.00  0.00    +0.004 A 
ENDBRANCH  16  24
ENDBRANCH  12  18
ENDBRANCH   1  13
BRANCH  10  27
ATOM     27  N   UNL     1       0.387 -13.211   5.566  0.00  0.00    -0.238 N 
ATOM     28  H   UNL     1       0.231 -14.019   5.053  0.00  0.00    +0.174 HD
BRANCH  27  29
ATOM     29  C   UNL     1       0.613 -13.291   6.940  0.00  0.00    +0.049 A 
ATOM     30  C   UNL     1       0.830 -12.133   7.679  0.00  0.00    +0.025 A 
ATOM     31  C   UNL     1       1.054 -12.216   9.039  0.00  0.00    +0.002 A 
ATOM     32  C   UNL     1       1.062 -13.449   9.666  0.00  0.00    +0.012 A 
ATOM     33  C   UNL     1       0.846 -14.603   8.935  0.00  0.00    +0.057 A 
ATOM     34  C   UNL     1       0.616 -14.527   7.575  0.00  0.00    +0.037 A 
BRANCH  33  35
ATOM     35  C   UNL     1       0.856 -15.943   9.623  0.00  0.00    +0.417 C 
ATOM     36  F   UNL     1       1.102 -15.764  10.989  0.00  0.00    -0.166 F 
ATOM     37  F   UNL     1      -0.385 -16.566   9.450  0.00  0.00    -0.166 F 
ATOM     38  F   UNL     1       1.861 -16.744   9.069  0.00  0.00    -0.166 F 
ENDBRANCH  33  35
ENDBRANCH  27  29
ENDBRANCH  10  27
TORSDOF 6
