REMARK  Name = ZINC08455815
REMARK  9 active torsions:
REMARK  status: ('A' for Active; 'I' for Inactive)
REMARK    1  A    between atoms: C_1  and  C_2
REMARK    2  A    between atoms: C_2  and  C_3
REMARK    3  A    between atoms: C_2  and  O_4
REMARK    4  A    between atoms: O_4  and  C_5
REMARK    5  A    between atoms: C_5  and  C_7
REMARK    6  A    between atoms: C_8  and  C_28
REMARK    7  A    between atoms: C_11  and  N_12
REMARK    8  A    between atoms: C_13  and  C_15
REMARK    9  A    between atoms: C_24  and  C_26
REMARK                            x       y       z     vdW  Elec       q    Type
REMARK                         _______ _______ _______ _____ _____    ______ ____
ROOT
ATOM      1  C   UNL     1       4.451   2.350   2.316  0.00  0.00    +0.095 A 
ATOM      2  C   UNL     1       5.662   3.106   2.060  0.00  0.00    +0.005 A 
ATOM      3  C   UNL     1       5.755   3.720   0.853  0.00  0.00    +0.056 A 
ATOM      4  S   UNL     1       4.226   3.283   0.052  0.00  0.00    -0.080 S 
ATOM      5  C   UNL     1       3.507   2.319   1.298  0.00  0.00    +0.086 A 
ENDROOT
BRANCH   2   6
ATOM      6  C   UNL     1       6.744   3.208   3.069  0.00  0.00    -0.016 A 
ATOM      7  C   UNL     1       6.444   3.571   4.381  0.00  0.00    +0.009 A 
ATOM      8  C   UNL     1       7.453   3.659   5.318  0.00  0.00    +0.016 A 
ATOM      9  C   UNL     1       8.763   3.397   4.954  0.00  0.00    +0.018 A 
ATOM     10  C   UNL     1       9.067   3.041   3.651  0.00  0.00    +0.016 A 
ATOM     11  C   UNL     1       8.064   2.945   2.708  0.00  0.00    +0.009 A 
ATOM     12 BR   UNL     1      10.142   3.527   6.241  0.00  0.00    -0.050 Br
ENDBRANCH   2   6
BRANCH   5  13
ATOM     13  N   UNL     1       2.281   1.674   1.284  0.00  0.00    -0.279 N 
ATOM     14  C   UNL     1       1.486   1.760   0.198  0.00  0.00    +0.222 C 
ATOM     15  O   UNL     1       1.882   2.325  -0.799  0.00  0.00    -0.275 OA
ATOM     16  H   UNL     1       1.994   1.162   2.056  0.00  0.00    +0.155 HD
BRANCH  14  17
ATOM     17  C   UNL     1       0.107   1.155   0.224  0.00  0.00    +0.092 C 
ATOM     18  C   UNL     1       0.048  -0.102  -0.697  0.00  0.00    +0.002 C 
ATOM     19  C   UNL     1       0.690   0.366  -2.038  0.00  0.00    +0.004 C 
ATOM     20  C   UNL     1      -0.343   1.344  -2.645  0.00  0.00    +0.004 C 
ATOM     21  C   UNL     1      -1.511   1.374  -1.613  0.00  0.00    +0.004 C 
ATOM     22  C   UNL     1      -1.473  -0.104  -1.087  0.00  0.00    +0.008 C 
ATOM     23  C   UNL     1      -0.923   2.135  -0.381  0.00  0.00    +0.117 C 
BRANCH  23  24
ATOM     24  C   UNL     1      -0.244   3.406  -0.822  0.00  0.00    +0.360 C 
ATOM     25  O   UNL     1      -0.441   3.844  -1.930  0.00  0.00    -0.246 OA
ATOM     26  O   UNL     1       0.581   4.051   0.018  0.00  0.00    -0.246 OA
ENDBRANCH  23  24
ENDBRANCH  14  17
ENDBRANCH   5  13
BRANCH   1  27
ATOM     27  C   UNL     1       4.235   1.653   3.584  0.00  0.00    +0.342 C 
ATOM     28  O   UNL     1       4.603   0.501   3.715  0.00  0.00    -0.245 OA
BRANCH  27  29
ATOM     29  O   UNL     1       3.628   2.288   4.608  0.00  0.00    -0.458 OA
BRANCH  29  31
ATOM     30  C   UNL     1       4.665   1.733   6.740  0.00  0.00    +0.052 C 
ATOM     31  C   UNL     1       3.447   1.534   5.836  0.00  0.00    +0.171 C 
ATOM     32  C   UNL     1       2.191   2.028   6.557  0.00  0.00    +0.052 C 
ENDBRANCH  29  31
ENDBRANCH  27  29
ENDBRANCH   1  27
TORSDOF 7
