REMARK  Name = ZINC35805069
REMARK  12 active torsions:
REMARK  status: ('A' for Active; 'I' for Inactive)
REMARK    1  A    between atoms: C_1  and  C_2
REMARK    2  A    between atoms: N_6  and  O_7
REMARK    3  A    between atoms: O_7  and  C_8
REMARK    4  A    between atoms: C_8  and  C_9
REMARK    5  A    between atoms: N_11  and  C_12
REMARK    6  A    between atoms: C_12  and  C_14
REMARK    7  A    between atoms: C_12  and  C_20
REMARK    8  A    between atoms: C_20  and  O_22
REMARK    9  A    between atoms: O_22  and  C_23
REMARK   10  A    between atoms: C_34  and  C_43
REMARK   11  A    between atoms: C_39  and  C_40
REMARK   12  A    between atoms: C_39  and  O_42
REMARK                            x       y       z     vdW  Elec       q    Type
REMARK                         _______ _______ _______ _____ _____    ______ ____
ROOT
ATOM      1  C   UNL     1      -0.117   1.495  -0.034  0.00  0.00    +0.016 C 
ATOM      2  C   UNL     1      -0.082  -0.030  -0.044  0.00  0.00    -0.007 C 
ATOM      3  C   UNL     1      -1.512  -0.542  -0.148  0.00  0.00    +0.017 C 
ATOM      4  C   UNL     1      -2.255  -0.465   1.180  0.00  0.00    +0.059 C 
ATOM      5  C   UNL     1      -1.470  -1.245   2.213  0.00  0.00    +0.080 C 
ATOM      6  N   UNL     1      -2.066  -2.018   3.071  0.00  0.00    -0.089 NA
ATOM      7  C   UNL     1      -0.008  -1.096   2.209  0.00  0.00    +0.026 C 
ATOM      8  C   UNL     1       0.625  -0.526   1.190  0.00  0.00    -0.062 C 
ATOM      9  C   UNL     1       2.132  -0.392   1.308  0.00  0.00    +0.031 C 
ATOM     10  C   UNL     1       2.806  -0.891   0.019  0.00  0.00    +0.008 C 
ATOM     11  C   UNL     1       2.174  -0.131  -1.136  0.00  0.00    -0.003 C 
ATOM     12  C   UNL     1       0.702  -0.538  -1.253  0.00  0.00    +0.002 C 
ATOM     13  C   UNL     1       0.159  -0.082  -2.597  0.00  0.00    +0.005 C 
ATOM     14  C   UNL     1       0.758  -0.981  -3.698  0.00  0.00    +0.011 C 
ATOM     15  C   UNL     1       2.198  -1.296  -3.392  0.00  0.00    +0.011 C 
ATOM     16  C   UNL     1       2.845  -0.245  -2.470  0.00  0.00    +0.002 C 
ATOM     17  C   UNL     1       4.319  -0.678  -2.462  0.00  0.00    +0.008 C 
ATOM     18  C   UNL     1       4.567  -1.175  -3.911  0.00  0.00    +0.049 C 
ATOM     19  C   UNL     1       3.173  -1.292  -4.583  0.00  0.00    +0.132 C 
ATOM     20  C   UNL     1       2.292  -2.701  -2.771  0.00  0.00    +0.015 C 
ENDROOT
BRANCH  19  21
ATOM     21  C   UNL     1       2.957  -0.151  -5.478  0.00  0.00    -0.070 C 
ATOM     22  C   UNL     1       2.784   0.763  -6.194  0.00  0.00    +0.007 C 
ENDBRANCH  19  21
BRANCH  19  23
ATOM     23  O   UNL     1       3.073  -2.522  -5.298  0.00  0.00    -0.376 OA
ATOM     24  H   UNL     1       3.663  -2.583  -6.062  0.00  0.00    +0.211 HD
ENDBRANCH  19  23
BRANCH   6  25
ATOM     25  O   UNL     1      -1.306  -2.735   4.026  0.00  0.00    -0.384 OA
BRANCH  25  26
ATOM     26  C   UNL     1      -2.090  -3.544   4.904  0.00  0.00    +0.358 C 
BRANCH  26  27
ATOM     27  C   UNL     1      -1.183  -4.258   5.873  0.00  0.00    +0.254 C 
ATOM     28  O   UNL     1       0.017  -4.090   5.817  0.00  0.00    -0.272 OA
ATOM     29  N   UNL     1      -1.705  -5.083   6.802  0.00  0.00    -0.296 N 
ATOM     30  H   UNL     1      -2.664  -5.218   6.847  0.00  0.00    +0.150 HD
BRANCH  29  31
ATOM     31  C   UNL     1      -0.823  -5.777   7.744  0.00  0.00    +0.213 C 
BRANCH  31  32
ATOM     32  C   UNL     1      -1.591  -6.113   8.996  0.00  0.00    -0.017 A 
ATOM     33  C   UNL     1      -2.896  -6.559   8.908  0.00  0.00    +0.006 A 
ATOM     34  C   UNL     1      -3.600  -6.867  10.057  0.00  0.00    +0.000 A 
ATOM     35  C   UNL     1      -2.999  -6.729  11.294  0.00  0.00    +0.000 A 
ATOM     36  C   UNL     1      -1.694  -6.284  11.383  0.00  0.00    +0.000 A 
ATOM     37  C   UNL     1      -0.988  -5.980  10.233  0.00  0.00    +0.006 A 
ENDBRANCH  31  32
BRANCH  31  38
ATOM     38  C   UNL     1      -0.312  -7.046   7.112  0.00  0.00    +0.332 C 
ATOM     39  O   UNL     1      -0.650  -7.341   5.990  0.00  0.00    -0.248 OA
BRANCH  38  40
ATOM     40  O   UNL     1       0.518  -7.849   7.796  0.00  0.00    -0.466 OA
ATOM     41  C   UNL     1       0.962  -9.036   7.136  0.00  0.00    +0.280 C 
ENDBRANCH  38  40
ENDBRANCH  31  38
ENDBRANCH  29  31
ENDBRANCH  26  27
ENDBRANCH  25  26
ENDBRANCH   6  25
TORSDOF 9
