REMARK  Name = ZINC17094938
REMARK  8 active torsions:
REMARK  status: ('A' for Active; 'I' for Inactive)
REMARK    1  A    between atoms: C_1  and  C_2
REMARK    2  A    between atoms: C_2  and  C_3
REMARK    3  A    between atoms: C_2  and  C_4
REMARK    4  A    between atoms: C_6  and  C_25
REMARK    5  A    between atoms: C_7  and  N_9
REMARK    6  A    between atoms: C_10  and  C_12
REMARK    7  A    between atoms: C_21  and  C_23
REMARK    8  A    between atoms: N_27  and  C_28
REMARK                            x       y       z     vdW  Elec       q    Type
REMARK                         _______ _______ _______ _____ _____    ______ ____
ROOT
ATOM      1  C   UNL     1      -3.072  -3.952   3.773  0.00  0.00    -0.005 A 
ATOM      2  C   UNL     1      -4.299  -3.765   3.255  0.00  0.00    +0.026 A 
ATOM      3  C   UNL     1      -4.505  -2.577   2.461  0.00  0.00    +0.066 A 
ATOM      4  C   UNL     1      -3.409  -1.739   2.294  0.00  0.00    +0.084 A 
ATOM      5  S   UNL     1      -2.162  -2.535   3.195  0.00  0.00    -0.077 S 
ENDROOT
BRANCH   4   6
ATOM      6  N   UNL     1      -3.333  -0.550   1.584  0.00  0.00    -0.279 N 
ATOM      7  C   UNL     1      -2.174   0.136   1.540  0.00  0.00    +0.222 C 
ATOM      8  O   UNL     1      -1.197  -0.287   2.121  0.00  0.00    -0.275 OA
ATOM      9  H   UNL     1      -4.115  -0.212   1.120  0.00  0.00    +0.155 HD
BRANCH   7  10
ATOM     10  C   UNL     1      -2.092   1.427   0.768  0.00  0.00    +0.092 C 
ATOM     11  C   UNL     1      -0.656   2.029   0.866  0.00  0.00    +0.002 C 
ATOM     12  C   UNL     1      -0.787   3.450   0.238  0.00  0.00    +0.004 C 
ATOM     13  C   UNL     1      -0.999   3.194  -1.272  0.00  0.00    +0.004 C 
ATOM     14  C   UNL     1      -0.978   1.641  -1.415  0.00  0.00    +0.004 C 
ATOM     15  C   UNL     1       0.060   1.261  -0.300  0.00  0.00    +0.008 C 
ATOM     16  C   UNL     1      -2.305   1.170  -0.745  0.00  0.00    +0.117 C 
BRANCH  16  17
ATOM     17  C   UNL     1      -3.468   1.980  -1.257  0.00  0.00    +0.360 C 
ATOM     18  O   UNL     1      -3.866   2.931  -0.627  0.00  0.00    -0.246 OA
ATOM     19  O   UNL     1      -4.062   1.644  -2.413  0.00  0.00    -0.246 OA
ENDBRANCH  16  17
ENDBRANCH   7  10
ENDBRANCH   4   6
BRANCH   3  20
ATOM     20  C   UNL     1      -5.805  -2.272   1.855  0.00  0.00    +0.251 C 
ATOM     21  O   UNL     1      -5.944  -1.264   1.188  0.00  0.00    -0.270 OA
ATOM     22  N   UNL     1      -6.846  -3.109   2.038  0.00  0.00    -0.281 N 
ATOM     23  H   UNL     1      -6.717  -3.948   2.506  0.00  0.00    +0.155 HD
BRANCH  22  24
ATOM     24  C   UNL     1      -8.112  -2.766   1.553  0.00  0.00    +0.034 A 
ATOM     25  C   UNL     1      -9.251  -3.126   2.262  0.00  0.00    +0.023 A 
ATOM     26  C   UNL     1     -10.499  -2.780   1.783  0.00  0.00    +0.002 A 
ATOM     27  C   UNL     1     -10.617  -2.087   0.592  0.00  0.00    +0.000 A 
ATOM     28  C   UNL     1      -9.485  -1.731  -0.119  0.00  0.00    +0.002 A 
ATOM     29  C   UNL     1      -8.234  -2.069   0.358  0.00  0.00    +0.023 A 
ENDBRANCH  22  24
ENDBRANCH   3  20
BRANCH   1  31
ATOM     30  C   UNL     1      -1.430  -5.804   3.931  0.00  0.00    +0.013 C 
ATOM     31  C   UNL     1      -2.585  -5.088   4.635  0.00  0.00    +0.020 C 
ATOM     32  C   UNL     1      -2.100  -4.538   5.978  0.00  0.00    +0.013 C 
ENDBRANCH   1  31
TORSDOF 6
