REMARK  Name = ZINC39508497
REMARK  10 active torsions:
REMARK  status: ('A' for Active; 'I' for Inactive)
REMARK    1  A    between atoms: C_1  and  C_2
REMARK    2  A    between atoms: C_2  and  C_3
REMARK    3  A    between atoms: C_2  and  C_4
REMARK    4  A    between atoms: C_2  and  O_36
REMARK    5  A    between atoms: C_5  and  C_6
REMARK    6  A    between atoms: C_9  and  C_12
REMARK    7  A    between atoms: C_12  and  N_13
REMARK    8  A    between atoms: C_17  and  C_20
REMARK    9  A    between atoms: C_24  and  C_26
REMARK   10  A    between atoms: C_30  and  C_32
REMARK                            x       y       z     vdW  Elec       q    Type
REMARK                         _______ _______ _______ _____ _____    ______ ____
ROOT
ATOM      1  N   UNL     1      -8.306  -3.063  -1.321  0.00  0.00    +0.383 N 
ATOM      2  C   UNL     1      -7.506  -4.099  -1.986  0.00  0.00    -0.078 C 
ATOM      3  C   UNL     1      -7.938  -4.221  -3.449  0.00  0.00    -0.018 C 
ATOM      4  C   UNL     1      -9.420  -4.602  -3.508  0.00  0.00    +0.006 C 
ATOM      5  C   UNL     1     -10.237  -3.554  -2.747  0.00  0.00    +0.020 C 
ATOM      6  C   UNL     1      -9.720  -3.457  -1.310  0.00  0.00    -0.069 C 
ATOM      7  H   UNL     1      -8.204  -2.191  -1.818  0.00  0.00    -0.081 HD
ENDROOT
BRANCH   5   8
ATOM      8  C   UNL     1     -11.688  -3.959  -2.735  0.00  0.00    +0.055 C 
ATOM      9  N   UNL     1     -12.399  -4.276  -1.703  0.00  0.00    -0.158 NA
ATOM     10  N   UNL     1     -13.709  -4.601  -2.040  0.00  0.00    -0.161 NA
ATOM     11  C   UNL     1     -13.927  -4.516  -3.310  0.00  0.00    +0.121 C 
ATOM     12  C   UNL     1     -12.616  -4.074  -3.928  0.00  0.00    +0.108 C 
BRANCH  12  13
ATOM     13  C   UNL     1     -12.110  -5.113  -4.896  0.00  0.00    -0.033 A 
ATOM     14  C   UNL     1     -11.964  -6.426  -4.487  0.00  0.00    +0.004 A 
ATOM     15  C   UNL     1     -11.501  -7.378  -5.375  0.00  0.00    +0.001 A 
ATOM     16  C   UNL     1     -11.183  -7.019  -6.672  0.00  0.00    +0.012 A 
ATOM     17  C   UNL     1     -11.329  -5.707  -7.080  0.00  0.00    +0.055 A 
ATOM     18  C   UNL     1     -11.797  -4.754  -6.194  0.00  0.00    +0.017 A 
BRANCH  17  19
ATOM     19  C   UNL     1     -10.983  -5.314  -8.494  0.00  0.00    +0.417 C 
ATOM     20  F   UNL     1     -10.539  -6.441  -9.195  0.00  0.00    -0.166 F 
ATOM     21  F   UNL     1     -12.117  -4.790  -9.124  0.00  0.00    -0.166 F 
ATOM     22  F   UNL     1      -9.971  -4.348  -8.475  0.00  0.00    -0.166 F 
ENDBRANCH  17  19
ENDBRANCH  12  13
ENDBRANCH   5   8
BRANCH   1  23
ATOM     23  C   UNL     1      -7.835  -2.896   0.060  0.00  0.00    -0.043 C 
BRANCH  23  27
ATOM     24  C   UNL     1      -3.824  -1.416   0.031  0.00  0.00    +0.025 A 
ATOM     25  C   UNL     1      -4.899  -0.526   0.040  0.00  0.00    +0.017 A 
ATOM     26  C   UNL     1      -6.191  -1.010   0.050  0.00  0.00    +0.003 A 
ATOM     27  C   UNL     1      -6.422  -2.374   0.050  0.00  0.00    -0.064 A 
ATOM     28  C   UNL     1      -5.360  -3.261   0.041  0.00  0.00    +0.003 A 
ATOM     29  C   UNL     1      -4.064  -2.790   0.026  0.00  0.00    +0.017 A 
BRANCH  24  31
ATOM     30  C   UNL     1      -1.379  -0.514   0.013  0.00  0.00    -0.063 C 
ATOM     31  C   UNL     1      -2.480  -0.920   0.021  0.00  0.00    -0.063 C 
BRANCH  30  33
ATOM     32  C   UNL     1      -0.019   1.526   0.010  0.00  0.00    +0.055 C 
ATOM     33  C   UNL     1       0.002  -0.004   0.002  0.00  0.00    +0.121 C 
ATOM     34  C   UNL     1       0.742  -0.511   1.242  0.00  0.00    +0.055 C 
BRANCH  33  35
ATOM     35  O   UNL     1       0.671  -0.465  -1.174  0.00  0.00    -0.377 OA
ATOM     36  H   UNL     1       1.588  -0.167  -1.247  0.00  0.00    +0.211 HD
ENDBRANCH  33  35
ENDBRANCH  30  33
ENDBRANCH  24  31
ENDBRANCH  23  27
ENDBRANCH   1  23
TORSDOF 8
