REMARK  Name = ZINC13511775
REMARK  10 active torsions:
REMARK  status: ('A' for Active; 'I' for Inactive)
REMARK    1  A    between atoms: C_1  and  C_2
REMARK    2  A    between atoms: C_5  and  S_8
REMARK    3  A    between atoms: S_8  and  N_11
REMARK    4  A    between atoms: C_14  and  C_17
REMARK    5  A    between atoms: N_19  and  C_20
REMARK    6  A    between atoms: C_20  and  C_22
REMARK    7  A    between atoms: C_20  and  C_25
REMARK    8  A    between atoms: C_22  and  C_23
REMARK    9  A    between atoms: C_22  and  C_24
REMARK   10  A    between atoms: N_27  and  C_28
REMARK                            x       y       z     vdW  Elec       q    Type
REMARK                         _______ _______ _______ _____ _____    ______ ____
ROOT
ATOM      1  C   UNL     1      -1.259   0.132   3.142  0.00  0.00    +0.217 C 
ATOM      2  O   UNL     1      -0.293  -0.496   2.763  0.00  0.00    -0.275 OA
ATOM      3  N   UNL     1      -1.497   1.363   2.649  0.00  0.00    -0.304 N 
ATOM      4  H   UNL     1      -2.270   1.866   2.952  0.00  0.00    +0.149 HD
ENDROOT
BRANCH   1   8
ATOM      5  N   UNL     1      -2.823  -1.554   6.696  0.00  0.00    -0.177 NA
ATOM      6  C   UNL     1      -2.669  -2.477   5.564  0.00  0.00    +0.110 C 
ATOM      7  C   UNL     1      -1.698  -1.860   4.553  0.00  0.00    +0.030 C 
ATOM      8  C   UNL     1      -2.193  -0.465   4.163  0.00  0.00    +0.077 C 
ATOM      9  C   UNL     1      -2.231   0.430   5.404  0.00  0.00    +0.030 C 
ATOM     10  C   UNL     1      -3.208  -0.162   6.425  0.00  0.00    +0.110 C 
BRANCH   5  11
ATOM     11  S   UNL     1      -2.568  -2.071   8.248  0.00  0.00    +0.061 S 
ATOM     12  O   UNL     1      -3.302  -1.196   9.094  0.00  0.00    -0.153 OA
ATOM     13  O   UNL     1      -2.772  -3.478   8.246  0.00  0.00    -0.153 OA
BRANCH  11  18
ATOM     14  C   UNL     1       3.268  -1.177   9.493  0.00  0.00    +0.044 C 
ATOM     15  C   UNL     1       1.810  -1.401   9.182  0.00  0.00    -0.050 A 
ATOM     16  C   UNL     1       0.887  -0.406   9.447  0.00  0.00    +0.005 A 
ATOM     17  C   UNL     1      -0.450  -0.611   9.162  0.00  0.00    +0.029 A 
ATOM     18  C   UNL     1      -0.864  -1.810   8.612  0.00  0.00    +0.105 A 
ATOM     19  C   UNL     1       0.059  -2.806   8.352  0.00  0.00    +0.029 A 
ATOM     20  C   UNL     1       1.396  -2.600   8.633  0.00  0.00    +0.005 A 
ENDBRANCH  11  18
ENDBRANCH   5  11
ENDBRANCH   1   8
BRANCH   3  21
ATOM     21  C   UNL     1      -0.589   1.944   1.657  0.00  0.00    +0.162 C 
BRANCH  21  22
ATOM     22  C   UNL     1      -0.672   3.447   1.718  0.00  0.00    +0.238 C 
ATOM     23  O   UNL     1      -1.643   3.981   2.212  0.00  0.00    -0.273 OA
ATOM     24  N   UNL     1       0.332   4.198   1.224  0.00  0.00    -0.282 N 
ATOM     25  H   UNL     1       1.139   3.773   0.893  0.00  0.00    +0.155 HD
BRANCH  24  26
ATOM     26  C   UNL     1       0.211   5.594   1.189  0.00  0.00    +0.069 A 
ATOM     27  C   UNL     1      -0.587   6.246   2.118  0.00  0.00    +0.029 A 
ATOM     28  C   UNL     1      -0.705   7.622   2.082  0.00  0.00    +0.040 A 
ATOM     29  C   UNL     1      -0.028   8.352   1.119  0.00  0.00    +0.126 A 
ATOM     30  C   UNL     1       0.769   7.705   0.190  0.00  0.00    +0.078 A 
ATOM     31  C   UNL     1       0.895   6.328   0.227  0.00  0.00    +0.147 A 
ATOM     32  F   UNL     1       1.678   5.697  -0.676  0.00  0.00    -0.203 F 
ATOM     33  F   UNL     1      -0.146   9.697   1.086  0.00  0.00    -0.205 F 
ENDBRANCH  24  26
ENDBRANCH  21  22
BRANCH  21  34
ATOM     34  C   UNL     1      -0.990   1.467   0.259  0.00  0.00    +0.012 C 
ATOM     35  C   UNL     1      -2.465   1.789   0.014  0.00  0.00    +0.009 C 
ATOM     36  C   UNL     1      -0.772  -0.043   0.153  0.00  0.00    +0.009 C 
ENDBRANCH  21  34
ENDBRANCH   3  21
TORSDOF 7
