REMARK  Name = ZINC00985863
REMARK  13 active torsions:
REMARK  status: ('A' for Active; 'I' for Inactive)
REMARK    1  A    between atoms: C_1  and  C_2
REMARK    2  A    between atoms: C_2  and  C_3
REMARK    3  A    between atoms: C_2  and  C_4
REMARK    4  A    between atoms: C_4  and  C_5
REMARK    5  A    between atoms: C_8  and  C_11
REMARK    6  A    between atoms: C_18  and  N_41
REMARK    7  A    between atoms: C_19  and  C_39
REMARK    8  A    between atoms: C_20  and  C_22
REMARK    9  A    between atoms: C_26  and  O_37
REMARK   10  A    between atoms: C_27  and  O_28
REMARK   11  A    between atoms: O_28  and  C_29
REMARK   12  A    between atoms: C_29  and  C_30
REMARK   13  A    between atoms: O_37  and  C_38
REMARK                            x       y       z     vdW  Elec       q    Type
REMARK                         _______ _______ _______ _____ _____    ______ ____
ROOT
ATOM      1  C   UNL     1      -2.209   0.947   5.968  0.00  0.00    +0.100 A 
ATOM      2  C   UNL     1      -3.545   0.635   6.232  0.00  0.00    +0.054 A 
ATOM      3  C   UNL     1      -3.868   1.156   7.452  0.00  0.00    +0.223 A 
ATOM      4  N   UNL     1      -2.772   1.776   7.936  0.00  0.00    -0.246 N 
ATOM      5  H   UNL     1      -2.707   2.238   8.787  0.00  0.00    +0.192 HD
ATOM      6  N   UNL     1      -1.740   1.630   6.995  0.00  0.00    -0.171 NA
ATOM      7  O   UNL     1      -5.101   1.023   8.002  0.00  0.00    -0.423 OA
ATOM      8  C   UNL     1      -5.939   0.125   7.446  0.00  0.00    +0.200 C 
ATOM      9  C   UNL     1      -5.734  -0.449   6.240  0.00  0.00    +0.098 C 
ATOM     10  C   UNL     1      -4.530  -0.131   5.388  0.00  0.00    +0.105 C 
ENDROOT
BRANCH   1  14
ATOM     11  C   UNL     1      -0.030  -0.130   2.478  0.00  0.00    -0.047 A 
ATOM     12  C   UNL     1       0.220   1.080   3.101  0.00  0.00    +0.004 A 
ATOM     13  C   UNL     1      -0.484   1.435   4.234  0.00  0.00    +0.010 A 
ATOM     14  C   UNL     1      -1.448   0.572   4.750  0.00  0.00    +0.003 A 
ATOM     15  C   UNL     1      -1.696  -0.646   4.119  0.00  0.00    +0.010 A 
ATOM     16  C   UNL     1      -0.990  -0.988   2.984  0.00  0.00    +0.004 A 
BRANCH  11  17
ATOM     17  C   UNL     1       0.742  -0.511   1.242  0.00  0.00    +0.038 C 
BRANCH  17  19
ATOM     18  C   UNL     1      -0.019   1.526   0.010  0.00  0.00    +0.007 C 
ATOM     19  C   UNL     1       0.002  -0.004   0.002  0.00  0.00    -0.013 C 
ATOM     20  C   UNL     1       0.718  -0.497  -1.257  0.00  0.00    +0.007 C 
ENDBRANCH  17  19
ENDBRANCH  11  17
ENDBRANCH   1  14
BRANCH  10  21
ATOM     21  C   UNL     1      -4.950   0.708   4.208  0.00  0.00    +0.011 A 
ATOM     22  C   UNL     1      -5.563   1.931   4.413  0.00  0.00    +0.008 A 
ATOM     23  C   UNL     1      -5.949   2.703   3.333  0.00  0.00    +0.004 A 
ATOM     24  C   UNL     1      -5.723   2.256   2.044  0.00  0.00    +0.049 A 
ATOM     25  C   UNL     1      -5.110   1.032   1.832  0.00  0.00    +0.162 A 
ATOM     26  C   UNL     1      -4.716   0.257   2.920  0.00  0.00    +0.166 A 
BRANCH  25  27
ATOM     27  O   UNL     1      -4.887   0.591   0.565  0.00  0.00    -0.491 OA
ATOM     28  C   UNL     1      -5.313   1.442  -0.501  0.00  0.00    +0.277 C 
ENDBRANCH  25  27
BRANCH  26  29
ATOM     29  O   UNL     1      -4.107  -0.942   2.717  0.00  0.00    -0.483 OA
BRANCH  29  30
ATOM     30  C   UNL     1      -4.954  -2.089   2.615  0.00  0.00    +0.264 C 
BRANCH  30  31
ATOM     31  C   UNL     1      -4.109  -3.318   2.393  0.00  0.00    -0.010 A 
ATOM     32  C   UNL     1      -3.794  -3.716   1.108  0.00  0.00    +0.010 A 
ATOM     33  C   UNL     1      -3.019  -4.842   0.903  0.00  0.00    +0.039 A 
ATOM     34  C   UNL     1      -2.559  -5.572   1.986  0.00  0.00    +0.123 A 
ATOM     35  C   UNL     1      -2.876  -5.172   3.273  0.00  0.00    +0.039 A 
ATOM     36  C   UNL     1      -3.646  -4.042   3.476  0.00  0.00    +0.010 A 
ATOM     37  F   UNL     1      -1.803  -6.673   1.788  0.00  0.00    -0.205 F 
ENDBRANCH  30  31
ENDBRANCH  29  30
ENDBRANCH  26  29
ENDBRANCH  10  21
BRANCH   8  38
ATOM     38  N   UNL     1      -7.067  -0.225   8.145  0.00  0.00    -0.328 N 
ATOM     39  H   UNL     1      -7.242   0.170   9.014  0.00  0.00    +0.145 HD
ATOM     40  H   UNL     1      -7.690  -0.868   7.771  0.00  0.00    +0.145 HD
ENDBRANCH   8  38
BRANCH   9  41
ATOM     41  C   UNL     1      -6.693  -1.394   5.754  0.00  0.00    +0.101 C 
ATOM     42  N   UNL     1      -7.455  -2.144   5.368  0.00  0.00    -0.191 NA
ENDBRANCH   9  41
TORSDOF 10
