REMARK  Name = ZINC54643818
REMARK  10 active torsions:
REMARK  status: ('A' for Active; 'I' for Inactive)
REMARK    1  A    between atoms: C_1  and  C_2
REMARK    2  A    between atoms: C_5  and  N_9
REMARK    3  A    between atoms: C_6  and  C_8
REMARK    4  A    between atoms: C_10  and  C_12
REMARK    5  A    between atoms: C_13  and  C_36
REMARK    6  A    between atoms: C_17  and  S_28
REMARK    7  A    between atoms: C_20  and  C_22
REMARK    8  A    between atoms: C_23  and  C_27
REMARK    9  A    between atoms: S_28  and  C_29
REMARK   10  A    between atoms: C_29  and  C_30
REMARK                            x       y       z     vdW  Elec       q    Type
REMARK                         _______ _______ _______ _____ _____    ______ ____
ROOT
ATOM      1  C   UNL     1      -0.489  -5.981  -1.154  0.00  0.00    +0.061 C 
ATOM      2  C   UNL     1      -0.730  -6.479  -2.376  0.00  0.00    +0.018 C 
ATOM      3  N   UNL     1      -0.994  -7.810  -2.584  0.00  0.00    -0.287 N 
ATOM      4  C   UNL     1      -0.749  -8.682  -1.532  0.00  0.00    +0.219 A 
ATOM      5  N   UNL     1      -0.698  -9.987  -1.517  0.00  0.00    -0.187 NA
ATOM      6  C   UNL     1      -0.424 -10.410  -0.275  0.00  0.00    +0.211 A 
ATOM      7  N   UNL     1      -0.300  -9.366   0.516  0.00  0.00    -0.141 NA
ATOM      8  N   UNL     1      -0.509  -8.237  -0.275  0.00  0.00    -0.219 N 
ATOM      9  C   UNL     1      -0.491  -6.824   0.093  0.00  0.00    +0.184 C 
ATOM     10  C   UNL     1      -0.711  -5.546  -3.559  0.00  0.00    +0.061 C 
ATOM     11  H   UNL     1      -1.339  -8.129  -3.433  0.00  0.00    +0.155 HD
ENDROOT
BRANCH   9  12
ATOM     12  C   UNL     1      -1.716  -6.508   0.912  0.00  0.00    +0.022 A 
ATOM     13  C   UNL     1      -1.797  -5.952   2.145  0.00  0.00    -0.038 A 
ATOM     14  C   UNL     1      -3.043  -5.751   2.709  0.00  0.00    +0.011 A 
ATOM     15  C   UNL     1      -4.147  -6.116   2.011  0.00  0.00    +0.046 A 
ATOM     16  S   UNL     1      -3.436  -6.760   0.506  0.00  0.00    -0.099 S 
ATOM     17  C   UNL     1      -0.548  -5.559   2.891  0.00  0.00    +0.044 C 
ENDBRANCH   9  12
BRANCH   1  19
ATOM     18  N   UNL     1      -1.228  -3.714  -0.949  0.00  0.00    -0.281 N 
ATOM     19  C   UNL     1      -0.214  -4.598  -1.032  0.00  0.00    +0.248 C 
ATOM     20  O   UNL     1       0.939  -4.207  -1.002  0.00  0.00    -0.270 OA
ATOM     21  H   UNL     1      -2.142  -4.030  -0.872  0.00  0.00    +0.155 HD
BRANCH  18  26
ATOM     22  C   UNL     1      -0.151   1.854  -1.053  0.00  0.00    +0.044 C 
ATOM     23  C   UNL     1      -0.437   0.375  -1.025  0.00  0.00    -0.050 A 
ATOM     24  C   UNL     1       0.494  -0.498  -0.493  0.00  0.00    +0.005 A 
ATOM     25  C   UNL     1       0.235  -1.855  -0.467  0.00  0.00    +0.024 A 
ATOM     26  C   UNL     1      -0.963  -2.341  -0.974  0.00  0.00    +0.037 A 
ATOM     27  C   UNL     1      -1.896  -1.462  -1.507  0.00  0.00    -0.029 A 
ATOM     28  C   UNL     1      -1.633  -0.106  -1.526  0.00  0.00    +0.008 A 
ATOM     29  C   UNL     1      -3.196  -1.986  -2.060  0.00  0.00    +0.045 C 
ENDBRANCH  18  26
ENDBRANCH   1  19
BRANCH   6  30
ATOM     30  S   UNL     1      -0.258 -12.093   0.220  0.00  0.00    -0.080 S 
BRANCH  30  31
ATOM     31  C   UNL     1      -0.539 -13.029  -1.308  0.00  0.00    +0.112 C 
BRANCH  31  32
ATOM     32  C   UNL     1      -0.425 -14.504  -1.022  0.00  0.00    -0.037 A 
ATOM     33  C   UNL     1       0.801 -15.135  -1.128  0.00  0.00    +0.004 A 
ATOM     34  C   UNL     1       0.906 -16.488  -0.866  0.00  0.00    +0.000 A 
ATOM     35  C   UNL     1      -0.214 -17.210  -0.497  0.00  0.00    +0.000 A 
ATOM     36  C   UNL     1      -1.439 -16.579  -0.390  0.00  0.00    +0.000 A 
ATOM     37  C   UNL     1      -1.543 -15.225  -0.648  0.00  0.00    +0.004 A 
ENDBRANCH  31  32
ENDBRANCH  30  31
ENDBRANCH   6  30
TORSDOF 6
