REMARK  Name = ZINC49424960
REMARK  4 active torsions:
REMARK  status: ('A' for Active; 'I' for Inactive)
REMARK    1  A    between atoms: C_3  and  C_6
REMARK    2  A    between atoms: C_12  and  C_14
REMARK    3  A    between atoms: N_23  and  C_24
REMARK    4  A    between atoms: C_24  and  C_25
REMARK                            x       y       z     vdW  Elec       q    Type
REMARK                         _______ _______ _______ _____ _____    ______ ____
ROOT
ATOM      1  C   UNL     1       8.776   3.734  -0.050  0.00  0.00    +0.093 C 
ATOM      2  C   UNL     1      10.211   3.203  -0.070  0.00  0.00    +0.016 C 
ATOM      3  C   UNL     1      11.192   4.378  -0.037  0.00  0.00    +0.020 C 
ATOM      4  C   UNL     1      10.981   5.250  -1.279  0.00  0.00    +0.109 C 
ATOM      5  N   UNL     1       9.568   5.645  -1.344  0.00  0.00    -0.285 N 
ATOM      6  C   UNL     1       8.537   4.599  -1.291  0.00  0.00    +0.122 C 
ATOM      7  C   UNL     1       9.222   6.944  -1.450  0.00  0.00    +0.302 C 
ATOM      8  O   UNL     1       8.055   7.253  -1.596  0.00  0.00    -0.253 OA
ATOM      9  N   UNL     1      10.171   7.900  -1.395  0.00  0.00    -0.295 N 
ATOM     10  H   UNL     1      11.107   7.652  -1.354  0.00  0.00    +0.151 HD
ENDROOT
BRANCH   1  17
ATOM     11  C   UNL     1       3.574   0.621  -0.024  0.00  0.00    +0.115 A 
ATOM     12  C   UNL     1       4.238  -0.577  -0.041  0.00  0.00    +0.080 A 
ATOM     13  S   UNL     1       5.935  -0.016  -0.053  0.00  0.00    -0.060 S 
ATOM     14  C   UNL     1       5.594   1.738  -0.035  0.00  0.00    +0.165 A 
ATOM     15  N   UNL     1       4.275   1.752  -0.027  0.00  0.00    -0.221 NA
ATOM     16  N   UNL     1       6.484   2.806  -0.035  0.00  0.00    -0.264 N 
ATOM     17  C   UNL     1       7.812   2.576  -0.050  0.00  0.00    +0.223 C 
ATOM     18  O   UNL     1       8.230   1.438  -0.064  0.00  0.00    -0.275 OA
ATOM     19  H   UNL     1       6.149   3.716  -0.023  0.00  0.00    +0.157 HD
BRANCH  11  22
ATOM     20  C   UNL     1      -0.017   1.345   0.012  0.00  0.00    +0.042 A 
ATOM     21  C   UNL     1       1.325   1.776   0.002  0.00  0.00    +0.051 A 
ATOM     22  C   UNL     1       2.096   0.656  -0.010  0.00  0.00    +0.153 A 
ATOM     23  O   UNL     1       1.280  -0.415  -0.007  0.00  0.00    -0.461 OA
ATOM     24  C   UNL     1       0.001  -0.002   0.006  0.00  0.00    +0.196 A 
ENDBRANCH  11  22
ENDBRANCH   1  17
BRANCH   9  25
ATOM     25  C   UNL     1       9.786   9.314  -1.399  0.00  0.00    +0.148 C 
BRANCH  25  26
ATOM     26  C   UNL     1      11.024  10.171  -1.331  0.00  0.00    +0.007 A 
ATOM     27  C   UNL     1      11.772  10.672  -2.345  0.00  0.00    +0.013 A 
ATOM     28  C   UNL     1      12.878  11.443  -2.043  0.00  0.00    +0.008 A 
ATOM     29  C   UNL     1      13.183  11.675  -0.743  0.00  0.00    +0.045 A 
ATOM     30  S   UNL     1      11.881  10.796   0.104  0.00  0.00    -0.100 S 
ENDBRANCH  25  26
ENDBRANCH   9  25
TORSDOF 4
