REMARK  Name = ZINC49207379
REMARK  4 active torsions:
REMARK  status: ('A' for Active; 'I' for Inactive)
REMARK    1  A    between atoms: C_1  and  C_2
REMARK    2  A    between atoms: C_7  and  N_10
REMARK    3  A    between atoms: C_11  and  C_13
REMARK    4  A    between atoms: N_15  and  C_16
REMARK                            x       y       z     vdW  Elec       q    Type
REMARK                         _______ _______ _______ _____ _____    ______ ____
ROOT
ATOM      1  C   UNL     1      -2.717  -4.192  -5.960  0.00  0.00    +0.303 C 
ATOM      2  O   UNL     1      -3.802  -3.652  -6.025  0.00  0.00    -0.265 OA
ATOM      3  N   UNL     1      -2.444  -5.254  -6.744  0.00  0.00    -0.278 N 
ATOM      4  H   UNL     1      -1.606  -5.732  -6.639  0.00  0.00    +0.155 HD
ENDROOT
BRANCH   3   5
ATOM      5  C   UNL     1      -3.368  -5.666  -7.710  0.00  0.00    +0.038 A 
ATOM      6  C   UNL     1      -3.494  -7.015  -8.019  0.00  0.00    +0.027 A 
ATOM      7  C   UNL     1      -4.406  -7.425  -8.973  0.00  0.00    +0.051 A 
ATOM      8  C   UNL     1      -5.196  -6.492  -9.623  0.00  0.00    +0.167 A 
ATOM      9  C   UNL     1      -5.072  -5.137  -9.313  0.00  0.00    +0.169 A 
ATOM     10  C   UNL     1      -4.163  -4.728  -8.355  0.00  0.00    +0.073 A 
ATOM     11  O   UNL     1      -5.960  -4.437 -10.088  0.00  0.00    -0.447 OA
ATOM     12  C   UNL     1      -6.232  -5.322 -11.184  0.00  0.00    +0.254 C 
ATOM     13  O   UNL     1      -6.158  -6.626 -10.591  0.00  0.00    -0.448 OA
ATOM     14  C   UNL     1      -5.196  -5.158 -12.300  0.00  0.00    +0.093 C 
ATOM     15  C   UNL     1      -6.010  -5.387 -13.601  0.00  0.00    +0.008 C 
ATOM     16  C   UNL     1      -7.373  -4.726 -13.277  0.00  0.00    +0.008 C 
ATOM     17  C   UNL     1      -7.612  -5.058 -11.787  0.00  0.00    +0.093 C 
ENDBRANCH   3   5
BRANCH   1  19
ATOM     18  N   UNL     1      -1.957  -2.618  -4.226  0.00  0.00    -0.305 N 
ATOM     19  C   UNL     1      -1.684  -3.680  -5.011  0.00  0.00    +0.300 C 
ATOM     20  O   UNL     1      -0.599  -4.219  -4.945  0.00  0.00    -0.265 OA
ATOM     21  H   UNL     1      -2.825  -2.187  -4.279  0.00  0.00    +0.149 HD
BRANCH  18  28
ATOM     22  C   UNL     1      -0.025  -1.287   1.589  0.00  0.00    +0.109 C 
ATOM     23  C   UNL     1      -0.192  -0.418   0.369  0.00  0.00    +0.212 C 
ATOM     24  O   UNL     1      -0.421   0.766   0.494  0.00  0.00    -0.276 OA
ATOM     25  N   UNL     1      -0.086  -0.957  -0.862  0.00  0.00    -0.302 N 
ATOM     26  C   UNL     1      -0.127  -0.105  -2.058  0.00  0.00    +0.109 C 
ATOM     27  C   UNL     1      -1.208  -0.636  -3.005  0.00  0.00    +0.041 C 
ATOM     28  C   UNL     1      -0.944  -2.116  -3.295  0.00  0.00    +0.076 C 
ATOM     29  C   UNL     1      -1.011  -2.913  -1.991  0.00  0.00    +0.041 C 
ATOM     30  C   UNL     1       0.078  -2.407  -1.032  0.00  0.00    +0.109 C 
ENDBRANCH  18  28
ENDBRANCH   1  19
TORSDOF 3
