REMARK  Name = ZINC08920348
REMARK  9 active torsions:
REMARK  status: ('A' for Active; 'I' for Inactive)
REMARK    1  A    between atoms: C_1  and  C_2
REMARK    2  A    between atoms: C_2  and  N_66
REMARK    3  A    between atoms: C_8  and  N_14
REMARK    4  A    between atoms: C_9  and  C_10
REMARK    5  A    between atoms: N_12  and  C_13
REMARK    6  A    between atoms: C_15  and  C_17
REMARK    7  A    between atoms: C_20  and  S_23
REMARK    8  A    between atoms: S_23  and  N_26
REMARK    9  A    between atoms: C_31  and  C_33
REMARK                            x       y       z     vdW  Elec       q    Type
REMARK                         _______ _______ _______ _____ _____    ______ ____
ROOT
ATOM      1  N   UNL     1      -2.492   0.132   0.105  0.00  0.00    -0.275 N 
ATOM      2  C   UNL     1      -1.950  -1.097   0.213  0.00  0.00    +0.249 C 
ATOM      3  O   UNL     1      -0.748  -1.222   0.347  0.00  0.00    -0.270 OA
ATOM      4  H   UNL     1      -3.451   0.232  -0.001  0.00  0.00    +0.156 HD
ENDROOT
BRANCH   1  10
ATOM      5  C   UNL     1       0.042   5.781   0.589  0.00  0.00    -0.074 C 
ATOM      6  C   UNL     1      -1.209   5.087   0.042  0.00  0.00    +0.018 C 
ATOM      7  C   UNL     1      -0.990   3.581   0.123  0.00  0.00    -0.027 A 
ATOM      8  C   UNL     1       0.258   3.084   0.275  0.00  0.00    -0.021 A 
ATOM      9  S   UNL     1       0.043   1.329   0.325  0.00  0.00    -0.079 S 
ATOM     10  C   UNL     1      -1.679   1.254   0.146  0.00  0.00    +0.085 A 
ATOM     11  C   UNL     1      -2.047   2.590   0.051  0.00  0.00    +0.068 A 
ATOM     12  C   UNL     1       1.524   3.877   0.375  0.00  0.00    -0.035 C 
ATOM     13  N   UNL     1       1.236   5.252  -0.101  0.00  0.00    +0.383 N 
ATOM     14  H   UNL     1       1.055   5.225  -1.111  0.00  0.00    -0.081 HD
BRANCH  11  15
ATOM     15  C   UNL     1      -3.449   2.983  -0.120  0.00  0.00    +0.246 C 
ATOM     16  O   UNL     1      -4.147   3.188   0.856  0.00  0.00    -0.270 OA
ATOM     17  N   UNL     1      -3.965   3.117  -1.358  0.00  0.00    -0.314 N 
ATOM     18  C   UNL     1      -5.366   3.510  -1.529  0.00  0.00    +0.128 C 
ATOM     19  H   UNL     1      -3.409   2.953  -2.135  0.00  0.00    +0.149 HD
ENDBRANCH  11  15
BRANCH  13  21
ATOM     20  C   UNL     1       2.634   6.278   1.661  0.00  0.00    -0.017 C 
ATOM     21  C   UNL     1       2.399   6.129   0.156  0.00  0.00    -0.082 C 
ENDBRANCH  13  21
ENDBRANCH   1  10
BRANCH   2  22
ATOM     22  C   UNL     1      -2.817  -2.293   0.170  0.00  0.00    +0.037 A 
ATOM     23  C   UNL     1      -4.198  -2.153   0.023  0.00  0.00    +0.015 A 
ATOM     24  C   UNL     1      -5.001  -3.274  -0.022  0.00  0.00    +0.029 A 
ATOM     25  C   UNL     1      -4.441  -4.535   0.090  0.00  0.00    +0.106 A 
ATOM     26  C   UNL     1      -3.074  -4.680   0.241  0.00  0.00    +0.029 A 
ATOM     27  C   UNL     1      -2.259  -3.568   0.282  0.00  0.00    +0.015 A 
BRANCH  25  28
ATOM     28  S   UNL     1      -5.475  -5.961   0.038  0.00  0.00    +0.061 S 
ATOM     29  O   UNL     1      -6.719  -5.541  -0.506  0.00  0.00    -0.153 OA
ATOM     30  O   UNL     1      -4.702  -7.002  -0.543  0.00  0.00    -0.153 OA
BRANCH  28  31
ATOM     31  N   UNL     1      -5.770  -6.408   1.605  0.00  0.00    -0.174 NA
ATOM     32  C   UNL     1      -5.015  -7.505   2.225  0.00  0.00    +0.110 C 
ATOM     33  C   UNL     1      -6.005  -8.525   2.796  0.00  0.00    +0.017 C 
ATOM     34  C   UNL     1      -6.974  -7.814   3.744  0.00  0.00    +0.003 C 
ATOM     35  C   UNL     1      -7.763  -6.756   2.970  0.00  0.00    +0.020 C 
ATOM     36  C   UNL     1      -6.788  -5.712   2.403  0.00  0.00    +0.077 C 
ATOM     37  C   UNL     1      -7.550  -4.725   1.515  0.00  0.00    +0.026 C 
ENDBRANCH  28  31
ENDBRANCH  25  28
ENDBRANCH   2  22
TORSDOF 6
