REMARK  Name = ZINC34786042
REMARK  7 active torsions:
REMARK  status: ('A' for Active; 'I' for Inactive)
REMARK    1  A    between atoms: C_1  and  O_2
REMARK    2  A    between atoms: O_2  and  C_3
REMARK    3  A    between atoms: C_6  and  C_9
REMARK    4  A    between atoms: C_10  and  N_25
REMARK    5  A    between atoms: C_11  and  N_24
REMARK    6  A    between atoms: N_12  and  C_14
REMARK    7  A    between atoms: C_17  and  C_20
REMARK                            x       y       z     vdW  Elec       q    Type
REMARK                         _______ _______ _______ _____ _____    ______ ____
ROOT
ATOM      1  C   UNL     1       2.089  -2.891  -4.494  0.00  0.00    +0.116 A 
ATOM      2  C   UNL     1       3.243  -3.666  -4.254  0.00  0.00    +0.103 A 
ATOM      3  C   UNL     1       4.029  -3.594  -5.365  0.00  0.00    +0.142 A 
ATOM      4  N   UNL     1       3.390  -2.800  -6.272  0.00  0.00    -0.216 N 
ATOM      5  N   UNL     1       2.180  -2.380  -5.705  0.00  0.00    -0.163 NA
ENDROOT
BRANCH   2   6
ATOM      6  N   UNL     1       3.532  -4.386  -3.076  0.00  0.00    -0.265 N 
ATOM      7  C   UNL     1       3.193  -3.877  -1.875  0.00  0.00    +0.307 C 
ATOM      8  O   UNL     1       2.737  -2.752  -1.798  0.00  0.00    -0.252 OA
ATOM      9  N   UNL     1       3.358  -4.614  -0.759  0.00  0.00    -0.284 N 
ATOM     10  C   UNL     1       4.014  -5.920  -0.846  0.00  0.00    +0.120 C 
ATOM     11  C   UNL     1       5.345  -5.875  -0.087  0.00  0.00    +0.088 C 
ATOM     12  S   UNL     1       5.018  -5.382   1.632  0.00  0.00    -0.158 S 
ATOM     13  C   UNL     1       4.076  -3.838   1.448  0.00  0.00    +0.088 C 
ATOM     14  C   UNL     1       2.885  -4.098   0.526  0.00  0.00    +0.120 C 
ATOM     15  H   UNL     1       3.975  -5.247  -3.130  0.00  0.00    +0.157 HD
ENDBRANCH   2   6
BRANCH   1  19
ATOM     16  C   UNL     1      -1.137  -2.316  -1.782  0.00  0.00    +0.120 A 
ATOM     17  C   UNL     1      -0.766  -1.293  -2.644  0.00  0.00    +0.046 A 
ATOM     18  C   UNL     1       0.279  -1.476  -3.524  0.00  0.00    +0.014 A 
ATOM     19  C   UNL     1       0.964  -2.690  -3.548  0.00  0.00    +0.004 A 
ATOM     20  C   UNL     1       0.590  -3.716  -2.681  0.00  0.00    +0.014 A 
ATOM     21  C   UNL     1      -0.454  -3.525  -1.799  0.00  0.00    +0.046 A 
BRANCH  16  23
ATOM     22  C   UNL     1      -2.828  -0.866  -0.951  0.00  0.00    +0.277 C 
ATOM     23  O   UNL     1      -2.168  -2.133  -0.916  0.00  0.00    -0.495 OA
ENDBRANCH  16  23
ENDBRANCH   1  19
BRANCH   4  24
ATOM     24  C   UNL     1       3.859  -2.468  -7.549  0.00  0.00    +0.068 A 
ATOM     25  C   UNL     1       5.219  -2.293  -7.767  0.00  0.00    +0.028 A 
ATOM     26  C   UNL     1       5.679  -1.965  -9.027  0.00  0.00    +0.014 A 
ATOM     27  C   UNL     1       4.786  -1.811 -10.072  0.00  0.00    +0.055 A 
ATOM     28  C   UNL     1       3.431  -1.984  -9.858  0.00  0.00    +0.014 A 
ATOM     29  C   UNL     1       2.965  -2.318  -8.602  0.00  0.00    +0.028 A 
BRANCH  27  30
ATOM     30  C   UNL     1       5.291  -1.452 -11.446  0.00  0.00    +0.417 C 
ATOM     31  F   UNL     1       5.566  -2.623 -12.162  0.00  0.00    -0.166 F 
ATOM     32  F   UNL     1       4.316  -0.710 -12.122  0.00  0.00    -0.166 F 
ATOM     33  F   UNL     1       6.459  -0.692 -11.330  0.00  0.00    -0.166 F 
ENDBRANCH  27  30
ENDBRANCH   4  24
BRANCH   3  34
ATOM     34  N   UNL     1       5.263  -4.219  -5.543  0.00  0.00    -0.342 N 
ATOM     35  H   UNL     1       5.611  -4.811  -4.857  0.00  0.00    +0.144 HD
ATOM     36  H   UNL     1       5.775  -4.061  -6.352  0.00  0.00    +0.144 HD
ENDBRANCH   3  34
TORSDOF 6
