REMARK  Name = ZINC09281664
REMARK  5 active torsions:
REMARK  status: ('A' for Active; 'I' for Inactive)
REMARK    1  A    between atoms: C_4  and  C_7
REMARK    2  A    between atoms: C_14  and  N_39
REMARK    3  A    between atoms: C_15  and  C_37
REMARK    4  A    between atoms: N_23  and  C_26
REMARK    5  A    between atoms: C_26  and  C_27
REMARK                            x       y       z     vdW  Elec       q    Type
REMARK                         _______ _______ _______ _____ _____    ______ ____
ROOT
ATOM      1  C   UNL     1       3.622  -0.333  -0.046  0.00  0.00    +0.101 A 
ATOM      2  C   UNL     1       4.149  -1.282   0.834  0.00  0.00    +0.066 A 
ATOM      3  C   UNL     1       5.496  -1.359   0.615  0.00  0.00    +0.224 A 
ATOM      4  N   UNL     1       5.801  -0.488  -0.369  0.00  0.00    -0.246 N 
ATOM      5  H   UNL     1       6.685  -0.328  -0.734  0.00  0.00    +0.192 HD
ATOM      6  N   UNL     1       4.614   0.141  -0.775  0.00  0.00    -0.171 NA
ATOM      7  O   UNL     1       6.303  -2.195   1.315  0.00  0.00    -0.423 OA
ATOM      8  C   UNL     1       5.803  -2.773   2.426  0.00  0.00    +0.201 C 
ATOM      9  C   UNL     1       4.487  -2.774   2.745  0.00  0.00    +0.110 C 
ATOM     10  C   UNL     1       3.454  -2.121   1.869  0.00  0.00    +0.145 C 
ATOM     11  C   UNL     1       2.560  -3.138   1.234  0.00  0.00    -0.001 A 
ATOM     12  C   UNL     1       2.827  -4.183   0.376  0.00  0.00    +0.007 A 
ATOM     13  C   UNL     1       1.745  -4.953  -0.035  0.00  0.00    +0.000 A 
ATOM     14  C   UNL     1       0.463  -4.681   0.397  0.00  0.00    +0.002 A 
ATOM     15  C   UNL     1       0.187  -3.632   1.259  0.00  0.00    +0.024 A 
ATOM     16  C   UNL     1       1.264  -2.851   1.681  0.00  0.00    +0.041 A 
ATOM     17  N   UNL     1       1.279  -1.759   2.531  0.00  0.00    -0.265 N 
ATOM     18  C   UNL     1       2.524  -1.266   2.700  0.00  0.00    +0.241 C 
ATOM     19  O   UNL     1       2.837  -0.318   3.389  0.00  0.00    -0.274 OA
ENDROOT
BRANCH   1  23
ATOM     20  C   UNL     1      -0.464   0.811  -0.339  0.00  0.00    +0.000 A 
ATOM     21  C   UNL     1       0.516   1.779  -0.209  0.00  0.00    +0.001 A 
ATOM     22  C   UNL     1       1.843   1.413  -0.114  0.00  0.00    +0.010 A 
ATOM     23  C   UNL     1       2.196   0.066  -0.148  0.00  0.00    +0.003 A 
ATOM     24  C   UNL     1       1.206  -0.905  -0.279  0.00  0.00    +0.010 A 
ATOM     25  C   UNL     1      -0.119  -0.528  -0.374  0.00  0.00    +0.001 A 
ENDBRANCH   1  23
BRANCH   8  26
ATOM     26  N   UNL     1       6.678  -3.394   3.282  0.00  0.00    -0.328 N 
ATOM     27  H   UNL     1       7.626  -3.409   3.080  0.00  0.00    +0.145 HD
ATOM     28  H   UNL     1       6.347  -3.818   4.090  0.00  0.00    +0.145 HD
ENDBRANCH   8  26
BRANCH   9  29
ATOM     29  C   UNL     1       4.066  -3.418   3.953  0.00  0.00    +0.102 C 
ATOM     30  N   UNL     1       3.733  -3.928   4.911  0.00  0.00    -0.191 NA
ENDBRANCH   9  29
BRANCH  17  31
ATOM     31  C   UNL     1       0.084  -1.204   3.171  0.00  0.00    +0.149 C 
BRANCH  31  32
ATOM     32  C   UNL     1      -0.184  -1.939   4.460  0.00  0.00    -0.022 A 
ATOM     33  C   UNL     1       0.568  -3.022   4.798  0.00  0.00    +0.006 A 
ATOM     34  C   UNL     1       0.335  -3.715   5.984  0.00  0.00    +0.001 A 
ATOM     35  C   UNL     1      -0.651  -3.328   6.840  0.00  0.00    +0.008 A 
ATOM     36  C   UNL     1      -1.447  -2.214   6.524  0.00  0.00    -0.018 A 
ATOM     37  C   UNL     1      -1.206  -1.506   5.320  0.00  0.00    -0.013 A 
ATOM     38  C   UNL     1      -1.999  -0.388   5.008  0.00  0.00    +0.009 A 
ATOM     39  C   UNL     1      -2.981   0.002   5.866  0.00  0.00    +0.001 A 
ATOM     40  C   UNL     1      -3.213  -0.691   7.053  0.00  0.00    +0.001 A 
ATOM     41  C   UNL     1      -2.474  -1.785   7.382  0.00  0.00    +0.008 A 
ENDBRANCH  31  32
ENDBRANCH  17  31
TORSDOF 5
