REMARK  Name = ZINC28156588
REMARK  7 active torsions:
REMARK  status: ('A' for Active; 'I' for Inactive)
REMARK    1  A    between atoms: C_1  and  C_2
REMARK    2  A    between atoms: C_5  and  C_8
REMARK    3  A    between atoms: C_11  and  C_14
REMARK    4  A    between atoms: C_23  and  C_26
REMARK    5  A    between atoms: C_26  and  C_27
REMARK    6  A    between atoms: N_29  and  C_30
REMARK    7  A    between atoms: C_34  and  C_36
REMARK                            x       y       z     vdW  Elec       q    Type
REMARK                         _______ _______ _______ _____ _____    ______ ____
ROOT
ATOM      1  C   UNL     1      -4.720  -1.962  -4.276  0.00  0.00    +0.069 C 
ATOM      2  N   UNL     1      -4.145  -1.201  -3.410  0.00  0.00    -0.182 NA
ATOM      3  N   UNL     1      -2.848  -0.826  -3.753  0.00  0.00    -0.195 N 
ATOM      4  C   UNL     1      -2.501  -1.440  -5.045  0.00  0.00    +0.142 C 
ATOM      5  C   UNL     1      -3.772  -2.225  -5.425  0.00  0.00    +0.087 C 
ATOM      6  C   UNL     1      -2.030  -0.025  -3.010  0.00  0.00    +0.170 C 
ATOM      7  N   UNL     1      -0.789   0.358  -3.283  0.00  0.00    -0.157 NA
ATOM      8  C   UNL     1      -0.070   1.131  -2.514  0.00  0.00    +0.252 C 
ATOM      9  O   UNL     1       1.064   1.461  -2.800  0.00  0.00    -0.272 OA
ATOM     10  C   UNL     1      -0.754   1.591  -1.232  0.00  0.00    +0.150 C 
ATOM     11  S   UNL     1      -2.377   0.754  -1.439  0.00  0.00    -0.078 S 
ENDROOT
BRANCH   1  16
ATOM     12  C   UNL     1     -10.059  -4.053  -3.833  0.00  0.00    +0.044 C 
ATOM     13  C   UNL     1      -8.660  -3.505  -3.949  0.00  0.00    -0.050 A 
ATOM     14  C   UNL     1      -8.155  -2.690  -2.951  0.00  0.00    +0.004 A 
ATOM     15  C   UNL     1      -6.875  -2.185  -3.051  0.00  0.00    +0.010 A 
ATOM     16  C   UNL     1      -6.089  -2.498  -4.162  0.00  0.00    -0.002 A 
ATOM     17  C   UNL     1      -6.608  -3.317  -5.168  0.00  0.00    +0.010 A 
ATOM     18  C   UNL     1      -7.887  -3.819  -5.053  0.00  0.00    +0.004 A 
ENDBRANCH   1  16
BRANCH   4  19
ATOM     19  C   UNL     1      -1.328  -2.373  -4.891  0.00  0.00    +0.012 A 
ATOM     20  C   UNL     1      -0.286  -2.580  -5.733  0.00  0.00    +0.013 A 
ATOM     21  C   UNL     1       0.688  -3.496  -5.381  0.00  0.00    +0.008 A 
ATOM     22  C   UNL     1       0.573  -4.158  -4.205  0.00  0.00    +0.045 A 
ATOM     23  S   UNL     1      -0.944  -3.485  -3.548  0.00  0.00    -0.100 S 
ENDBRANCH   4  19
BRANCH  10  24
ATOM     24  C   UNL     1      -0.016   1.080   0.008  0.00  0.00    +0.120 C 
BRANCH  24  25
ATOM     25  C   UNL     1      -0.717   1.573   1.248  0.00  0.00    +0.219 C 
ATOM     26  O   UNL     1      -1.708   2.265   1.149  0.00  0.00    -0.275 OA
ATOM     27  N   UNL     1      -0.242   1.246   2.466  0.00  0.00    -0.285 N 
ATOM     28  H   UNL     1       0.611   0.557   2.557  0.00  0.00    +0.155 HD
BRANCH  27  29
ATOM     29  C   UNL     1      -0.833   1.782   3.615  0.00  0.00    +0.034 A 
ATOM     30  C   UNL     1      -0.051   2.086   4.723  0.00  0.00    +0.023 A 
ATOM     31  C   UNL     1      -0.629   2.620   5.859  0.00  0.00    +0.003 A 
ATOM     32  C   UNL     1      -1.990   2.845   5.905  0.00  0.00    +0.015 A 
ATOM     33  C   UNL     1      -2.786   2.539   4.800  0.00  0.00    +0.065 A 
ATOM     34  C   UNL     1      -2.201   2.005   3.651  0.00  0.00    +0.038 A 
BRANCH  33  35
ATOM     35  C   UNL     1      -4.243   2.780   4.846  0.00  0.00    +0.387 C 
ATOM     36  O   UNL     1      -4.934   2.513   3.883  0.00  0.00    -0.241 OA
ATOM     37  O   UNL     1      -4.806   3.296   5.956  0.00  0.00    -0.241 OA
ENDBRANCH  33  35
ENDBRANCH  27  29
ENDBRANCH  24  25
ENDBRANCH  10  24
TORSDOF 6
