REMARK  Name = ZINC66981386
REMARK  4 active torsions:
REMARK  status: ('A' for Active; 'I' for Inactive)
REMARK    1  A    between atoms: C_1  and  C_2
REMARK    2  A    between atoms: N_4  and  C_5
REMARK    3  A    between atoms: C_7  and  N_13
REMARK    4  A    between atoms: C_19  and  N_22
REMARK                            x       y       z     vdW  Elec       q    Type
REMARK                         _______ _______ _______ _____ _____    ______ ____
ROOT
ATOM      1  N   UNL     1       0.237  -4.956   1.050  0.00  0.00    -0.267 N 
ATOM      2  C   UNL     1       0.041  -4.355   2.240  0.00  0.00    +0.307 C 
ATOM      3  O   UNL     1      -0.053  -3.145   2.301  0.00  0.00    -0.252 OA
ATOM      4  N   UNL     1      -0.049  -5.096   3.362  0.00  0.00    -0.285 N 
ATOM      5  C   UNL     1       0.178  -6.547   3.321  0.00  0.00    +0.108 C 
ATOM      6  C   UNL     1      -1.028  -7.253   3.950  0.00  0.00    +0.004 C 
ATOM      7  C   UNL     1      -1.267  -6.693   5.354  0.00  0.00    -0.066 C 
ATOM      8  C   UNL     1      -1.576  -5.197   5.263  0.00  0.00    +0.004 C 
ATOM      9  C   UNL     1      -0.371  -4.467   4.651  0.00  0.00    +0.108 C 
ATOM     10  H   UNL     1       0.340  -5.920   1.004  0.00  0.00    +0.156 HD
ENDROOT
BRANCH   1  13
ATOM     11  C   UNL     1       0.671  -2.086  -1.217  0.00  0.00    +0.071 A 
ATOM     12  C   UNL     1       0.617  -2.843  -0.056  0.00  0.00    +0.052 A 
ATOM     13  C   UNL     1       0.292  -4.189  -0.122  0.00  0.00    +0.072 A 
ATOM     14  C   UNL     1       0.020  -4.778  -1.353  0.00  0.00    +0.147 A 
ATOM     15  C   UNL     1       0.074  -4.022  -2.509  0.00  0.00    +0.080 A 
ATOM     16  C   UNL     1       0.393  -2.677  -2.445  0.00  0.00    +0.147 A 
ATOM     17  F   UNL     1       0.440  -1.939  -3.575  0.00  0.00    -0.203 F 
ATOM     18  F   UNL     1      -0.297  -6.090  -1.418  0.00  0.00    -0.203 F 
BRANCH  11  22
ATOM     19  C   UNL     1       2.276   1.163  -0.191  0.00  0.00    +0.109 C 
ATOM     20  C   UNL     1       1.832  -0.277  -0.192  0.00  0.00    +0.214 C 
ATOM     21  O   UNL     1       2.224  -1.034   0.671  0.00  0.00    -0.276 OA
ATOM     22  N   UNL     1       0.999  -0.725  -1.153  0.00  0.00    -0.283 N 
ATOM     23  H   UNL     1       0.626  -0.105  -1.799  0.00  0.00    +0.155 HD
ENDBRANCH  11  22
ENDBRANCH   1  13
BRANCH   7  24
ATOM     24  N   UNL     1      -2.402  -7.390   5.973  0.00  0.00    +0.382 N 
ATOM     25  C   UNL     1      -2.084  -8.830   6.150  0.00  0.00    -0.079 C 
ATOM     26  C   UNL     1      -3.063  -9.275   7.266  0.00  0.00    -0.020 C 
ATOM     27  C   UNL     1      -3.099  -8.047   8.204  0.00  0.00    -0.020 C 
ATOM     28  C   UNL     1      -2.647  -6.861   7.332  0.00  0.00    -0.079 C 
ATOM     29  H   UNL     1      -3.228  -7.283   5.404  0.00  0.00    -0.081 HD
ENDBRANCH   7  24
TORSDOF 3
