REMARK  Name = ZINC36844753
REMARK  6 active torsions:
REMARK  status: ('A' for Active; 'I' for Inactive)
REMARK    1  A    between atoms: C_5  and  O_7
REMARK    2  A    between atoms: O_7  and  C_8
REMARK    3  A    between atoms: C_8  and  C_9
REMARK    4  A    between atoms: N_11  and  C_12
REMARK    5  A    between atoms: C_16  and  S_18
REMARK    6  A    between atoms: S_18  and  N_21
REMARK                            x       y       z     vdW  Elec       q    Type
REMARK                         _______ _______ _______ _____ _____    ______ ____
ROOT
ATOM      1  C   UNL     1      -0.605  -6.408   0.062  0.00  0.00    +0.035 A 
ATOM      2  C   UNL     1       0.704  -6.866   0.148  0.00  0.00    +0.023 A 
ATOM      3  C   UNL     1       0.956  -8.221   0.227  0.00  0.00    +0.004 A 
ATOM      4  C   UNL     1      -0.092  -9.123   0.220  0.00  0.00    +0.029 A 
ATOM      5  C   UNL     1      -1.396  -8.671   0.134  0.00  0.00    +0.114 A 
ATOM      6  C   UNL     1      -1.656  -7.316   0.061  0.00  0.00    +0.052 A 
ENDROOT
BRANCH   1   9
ATOM      7  C   UNL     1      -1.956  -4.520   0.581  0.00  0.00    +0.255 C 
ATOM      8  O   UNL     1      -2.758  -5.255   1.117  0.00  0.00    -0.272 OA
ATOM      9  N   UNL     1      -0.864  -5.036  -0.018  0.00  0.00    -0.283 N 
ATOM     10  H   UNL     1      -0.258  -4.455  -0.504  0.00  0.00    +0.155 HD
BRANCH   7  11
ATOM     11  C   UNL     1      -2.181  -3.030   0.584  0.00  0.00    +0.324 C 
BRANCH  11  12
ATOM     12  O   UNL     1      -3.396  -2.733   1.274  0.00  0.00    -0.482 OA
BRANCH  12  17
ATOM     13  C   UNL     1      -3.300   0.885   0.905  0.00  0.00    +0.004 A 
ATOM     14  C   UNL     1      -4.465   1.242   1.561  0.00  0.00    +0.001 A 
ATOM     15  C   UNL     1      -5.272   0.269   2.120  0.00  0.00    +0.018 A 
ATOM     16  C   UNL     1      -4.916  -1.063   2.026  0.00  0.00    +0.055 A 
ATOM     17  C   UNL     1      -3.748  -1.424   1.369  0.00  0.00    +0.134 A 
ATOM     18  C   UNL     1      -2.940  -0.445   0.808  0.00  0.00    +0.047 A 
ATOM     19  I   UNL     1      -6.139  -2.538   2.874  0.00  0.00    -0.040 I 
ENDBRANCH  12  17
ENDBRANCH  11  12
ENDBRANCH   7  11
ENDBRANCH   1   9
BRANCH   5  20
ATOM     20  S   UNL     1      -2.728  -9.824   0.124  0.00  0.00    +0.100 S 
ATOM     21  O   UNL     1      -3.821  -9.177  -0.513  0.00  0.00    -0.146 OA
ATOM     22  O   UNL     1      -2.196 -11.056  -0.342  0.00  0.00    -0.146 OA
BRANCH  20  23
ATOM     23  N   UNL     1      -3.176 -10.068   1.700  0.00  0.00    -0.118 NA
ATOM     24  C   UNL     1      -4.144 -10.879   1.979  0.00  0.00    +0.117 C 
ATOM     25  C   UNL     1      -4.939 -11.668   0.962  0.00  0.00    +0.074 C 
ATOM     26  C   UNL     1      -5.646 -12.761   1.795  0.00  0.00    +0.026 C 
ATOM     27  C   UNL     1      -5.715 -12.110   3.193  0.00  0.00    +0.103 C 
ATOM     28  N   UNL     1      -4.598 -11.158   3.238  0.00  0.00    -0.331 N 
ATOM     29  H   UNL     1      -4.233 -10.777   4.052  0.00  0.00    +0.147 HD
ENDBRANCH  20  23
ENDBRANCH   5  20
TORSDOF 6
