REMARK  Name = ZINC13254624
REMARK  11 active torsions:
REMARK  status: ('A' for Active; 'I' for Inactive)
REMARK    1  A    between atoms: C_1  and  C_2
REMARK    2  A    between atoms: C_2  and  C_3
REMARK    3  A    between atoms: C_3  and  C_4
REMARK    4  A    between atoms: C_4  and  N_5
REMARK    5  A    between atoms: C_9  and  C_33
REMARK    6  A    between atoms: C_10  and  C_32
REMARK    7  A    between atoms: C_14  and  S_15
REMARK    8  A    between atoms: S_15  and  C_16
REMARK    9  A    between atoms: C_16  and  C_17
REMARK   10  A    between atoms: C_23  and  C_31
REMARK   11  A    between atoms: C_24  and  C_28
REMARK                            x       y       z     vdW  Elec       q    Type
REMARK                         _______ _______ _______ _____ _____    ______ ____
ROOT
ATOM      1  S   UNL     1      -2.588  -2.473  -2.685  0.00  0.00    -0.080 S 
ENDROOT
BRANCH   1  11
ATOM      2  N   UNL     1      -2.787  -2.571   0.015  0.00  0.00    -0.287 N 
ATOM      3  C   UNL     1      -3.397  -2.800   1.192  0.00  0.00    +0.263 A 
ATOM      4  O   UNL     1      -2.813  -2.589   2.241  0.00  0.00    -0.267 OA
ATOM      5  C   UNL     1      -4.739  -3.295   1.196  0.00  0.00    +0.075 A 
ATOM      6  C   UNL     1      -5.597  -3.616   2.324  0.00  0.00    -0.026 A 
ATOM      7  C   UNL     1      -6.837  -4.072   2.094  0.00  0.00    -0.008 A 
ATOM      8  S   UNL     1      -6.944  -4.105   0.315  0.00  0.00    -0.073 S 
ATOM      9  C   UNL     1      -5.319  -3.504  -0.069  0.00  0.00    +0.117 A 
ATOM     10  N   UNL     1      -4.661  -3.257  -1.195  0.00  0.00    -0.216 NA
ATOM     11  C   UNL     1      -3.426  -2.796  -1.170  0.00  0.00    +0.173 A 
ATOM     12  C   UNL     1      -7.889  -4.464   3.100  0.00  0.00    +0.052 C 
ATOM     13  C   UNL     1      -5.100  -3.438   3.735  0.00  0.00    +0.045 C 
BRANCH   2  14
ATOM     14  C   UNL     1      -1.413  -2.063   0.004  0.00  0.00    +0.127 C 
BRANCH  14  15
ATOM     15  C   UNL     1      -1.433  -0.534   0.013  0.00  0.00    +0.021 C 
BRANCH  15  17
ATOM     16  C   UNL     1      -0.019   1.526   0.010  0.00  0.00    +0.004 C 
ATOM     17  C   UNL     1       0.002  -0.004   0.002  0.00  0.00    -0.002 C 
ENDBRANCH  15  17
ENDBRANCH  14  15
ENDBRANCH   2  14
ENDBRANCH   1  11
BRANCH   1  18
ATOM     18  C   UNL     1      -3.802  -2.909  -3.960  0.00  0.00    +0.151 C 
BRANCH  18  19
ATOM     19  C   UNL     1      -3.205  -2.676  -5.324  0.00  0.00    +0.121 A 
ATOM     20  N   UNL     1      -3.953  -2.937  -6.423  0.00  0.00    -0.310 N 
ATOM     21  H   UNL     1      -4.858  -3.268  -6.314  0.00  0.00    +0.170 HD
ATOM     22  C   UNL     1      -3.466  -2.744  -7.665  0.00  0.00    +0.260 A 
ATOM     23  O   UNL     1      -4.148  -2.981  -8.647  0.00  0.00    -0.267 OA
ATOM     24  C   UNL     1      -2.082  -2.238  -7.805  0.00  0.00    +0.076 A 
ATOM     25  C   UNL     1      -1.360  -1.960  -8.966  0.00  0.00    -0.015 A 
ATOM     26  C   UNL     1      -0.069  -1.490  -8.868  0.00  0.00    +0.106 A 
ATOM     27  S   UNL     1       0.189  -1.417  -7.103  0.00  0.00    -0.062 S 
ATOM     28  C   UNL     1      -1.404  -2.005  -6.585  0.00  0.00    +0.116 A 
ATOM     29  N   UNL     1      -1.983  -2.224  -5.411  0.00  0.00    -0.226 NA
ATOM     30  C   UNL     1      -1.988  -2.174 -10.319  0.00  0.00    +0.046 C 
BRANCH  26  31
ATOM     31  C   UNL     1       0.831  -1.150  -9.909  0.00  0.00    +0.393 C 
ATOM     32  O   UNL     1       0.485  -1.262 -11.079  0.00  0.00    -0.240 OA
ATOM     33  O   UNL     1       1.954  -0.743  -9.639  0.00  0.00    -0.240 OA
ENDBRANCH  26  31
ENDBRANCH  18  19
ENDBRANCH   1  18
TORSDOF 7
