REMARK  Name = ZINC13360585
REMARK  7 active torsions:
REMARK  status: ('A' for Active; 'I' for Inactive)
REMARK    1  A    between atoms: C_3  and  S_12
REMARK    2  A    between atoms: C_6  and  C_7
REMARK    3  A    between atoms: C_8  and  C_9
REMARK    4  A    between atoms: S_12  and  N_15
REMARK    5  A    between atoms: N_15  and  C_16
REMARK    6  A    between atoms: C_19  and  S_22
REMARK    7  A    between atoms: S_22  and  N_25
REMARK                            x       y       z     vdW  Elec       q    Type
REMARK                         _______ _______ _______ _____ _____    ______ ____
ROOT
ATOM      1  C   UNL     1       4.641   1.298   2.297  0.00  0.00    +0.048 A 
ATOM      2  C   UNL     1       3.970   0.102   2.080  0.00  0.00    +0.026 A 
ATOM      3  C   UNL     1       4.329  -1.028   2.788  0.00  0.00    +0.031 A 
ATOM      4  C   UNL     1       5.355  -0.969   3.713  0.00  0.00    +0.113 A 
ATOM      5  C   UNL     1       6.025   0.221   3.932  0.00  0.00    +0.031 A 
ATOM      6  C   UNL     1       5.675   1.353   3.223  0.00  0.00    +0.026 A 
ENDROOT
BRANCH   4   7
ATOM      7  S   UNL     1       5.809  -2.412   4.616  0.00  0.00    +0.100 S 
ATOM      8  O   UNL     1       6.433  -1.964   5.811  0.00  0.00    -0.146 OA
ATOM      9  O   UNL     1       4.670  -3.262   4.623  0.00  0.00    -0.146 OA
BRANCH   7  10
ATOM     10  N   UNL     1       6.976  -3.192   3.736  0.00  0.00    -0.118 NA
ATOM     11  C   UNL     1       7.490  -4.294   4.178  0.00  0.00    +0.117 C 
ATOM     12  N   UNL     1       7.072  -4.853   5.395  0.00  0.00    -0.331 N 
ATOM     13  C   UNL     1       6.345  -6.088   5.334  0.00  0.00    +0.102 C 
ATOM     14  C   UNL     1       7.196  -7.368   5.356  0.00  0.00    +0.019 C 
ATOM     15  C   UNL     1       8.451  -7.199   4.462  0.00  0.00    +0.002 C 
ATOM     16  C   UNL     1       8.164  -6.468   3.180  0.00  0.00    +0.008 C 
ATOM     17  C   UNL     1       8.511  -4.997   3.430  0.00  0.00    +0.073 C 
ATOM     18  H   UNL     1       7.267  -4.423   6.243  0.00  0.00    +0.147 HD
ENDBRANCH   7  10
ENDBRANCH   4   7
BRANCH   1  19
ATOM     19  N   UNL     1       4.280   2.443   1.582  0.00  0.00    -0.216 N 
ATOM     20  H   UNL     1       3.775   3.147   2.017  0.00  0.00    +0.174 HD
BRANCH  19  21
ATOM     21  S   UNL     1       4.715   2.596  -0.009  0.00  0.00    +0.072 S 
ATOM     22  O   UNL     1       4.281   3.884  -0.426  0.00  0.00    -0.150 OA
ATOM     23  O   UNL     1       4.299   1.404  -0.660  0.00  0.00    -0.150 OA
BRANCH  21  26
ATOM     24  C   UNL     1       8.546   1.448  -0.365  0.00  0.00    +0.010 A 
ATOM     25  C   UNL     1       7.168   1.442  -0.317  0.00  0.00    +0.029 A 
ATOM     26  C   UNL     1       6.476   2.614  -0.068  0.00  0.00    +0.109 A 
ATOM     27  C   UNL     1       7.159   3.801   0.133  0.00  0.00    +0.029 A 
ATOM     28  C   UNL     1       8.537   3.824   0.088  0.00  0.00    +0.010 A 
ATOM     29  C   UNL     1       9.244   2.643  -0.163  0.00  0.00    -0.025 A 
BRANCH  29  30
ATOM     30  C   UNL     1      10.714   2.658  -0.212  0.00  0.00    +0.015 C 
ATOM     31  C   UNL     1      11.385   3.815  -0.016  0.00  0.00    +0.096 C 
BRANCH  31  32
ATOM     32  C   UNL     1      12.800   3.829  -0.064  0.00  0.00    +0.380 C 
ATOM     33  O   UNL     1      13.416   2.794  -0.283  0.00  0.00    -0.241 OA
ATOM     34  O   UNL     1      13.408   4.878   0.114  0.00  0.00    -0.241 OA
ENDBRANCH  31  32
ENDBRANCH  29  30
ENDBRANCH  21  26
ENDBRANCH  19  21
ENDBRANCH   1  19
TORSDOF 7
