REMARK  Name = ZINC39676749
REMARK  10 active torsions:
REMARK  status: ('A' for Active; 'I' for Inactive)
REMARK    1  A    between atoms: C_1  and  C_2
REMARK    2  A    between atoms: C_2  and  C_3
REMARK    3  A    between atoms: C_3  and  C_5
REMARK    4  A    between atoms: C_3  and  C_11
REMARK    5  A    between atoms: C_15  and  C_24
REMARK    6  A    between atoms: N_26  and  C_27
REMARK    7  A    between atoms: C_27  and  C_29
REMARK    8  A    between atoms: C_27  and  C_30
REMARK    9  A    between atoms: C_34  and  O_36
REMARK   10  A    between atoms: O_36  and  C_37
REMARK                            x       y       z     vdW  Elec       q    Type
REMARK                         _______ _______ _______ _____ _____    ______ ____
ROOT
ATOM      1  C   UNL     1       1.911  -0.002  -1.262  0.00  0.00    +0.223 C 
ATOM      2  O   UNL     1       2.792  -0.800  -1.501  0.00  0.00    -0.275 OA
ATOM      3  N   UNL     1       2.207   1.304  -1.113  0.00  0.00    -0.300 N 
ATOM      4  C   UNL     1       1.267   2.431  -0.907  0.00  0.00    +0.121 C 
ATOM      5  C   UNL     1       1.972   3.344   0.121  0.00  0.00    +0.100 C 
ATOM      6  C   UNL     1       3.467   3.018  -0.023  0.00  0.00    -0.004 C 
ATOM      7  C   UNL     1       3.548   1.938  -1.112  0.00  0.00    +0.115 C 
ATOM      8  C   UNL     1       4.019   2.475   1.291  0.00  0.00    -0.010 C 
ATOM      9  C   UNL     1       5.520   2.211   1.139  0.00  0.00    -0.082 C 
ATOM     10  N   UNL     1       6.204   3.459   0.776  0.00  0.00    +0.379 N 
ATOM     11  C   UNL     1       5.733   3.925  -0.534  0.00  0.00    -0.082 C 
ATOM     12  C   UNL     1       4.241   4.261  -0.453  0.00  0.00    -0.010 C 
ATOM     13  H   UNL     1       6.008   4.163   1.472  0.00  0.00    -0.086 HD
ATOM     14  H   UNL     1       7.199   3.296   0.736  0.00  0.00    -0.086 HD
ENDROOT
BRANCH   5  15
ATOM     15  C   UNL     1       1.715   4.794  -0.201  0.00  0.00    +0.219 C 
ATOM     16  O   UNL     1       1.507   5.132  -1.347  0.00  0.00    -0.275 OA
ATOM     17  N   UNL     1       1.717   5.714   0.783  0.00  0.00    -0.308 N 
ATOM     18  H   UNL     1       1.883   5.443   1.700  0.00  0.00    +0.149 HD
BRANCH  17  19
ATOM     19  C   UNL     1       1.467   7.123   0.470  0.00  0.00    +0.100 C 
ATOM     20  C   UNL     1       2.777   7.790   0.044  0.00  0.00    +0.033 C 
BRANCH  19  21
ATOM     21  C   UNL     1       0.922   7.820   1.689  0.00  0.00    -0.024 A 
ATOM     22  C   UNL     1       1.441   7.534   2.939  0.00  0.00    +0.005 A 
ATOM     23  C   UNL     1       0.943   8.172   4.060  0.00  0.00    +0.004 A 
ATOM     24  C   UNL     1      -0.076   9.097   3.934  0.00  0.00    +0.045 A 
ATOM     25  C   UNL     1      -0.598   9.386   2.682  0.00  0.00    +0.120 A 
ATOM     26  C   UNL     1      -0.092   8.749   1.558  0.00  0.00    +0.051 A 
BRANCH  25  27
ATOM     27  O   UNL     1      -1.599  10.296   2.555  0.00  0.00    -0.495 OA
ATOM     28  C   UNL     1      -2.067  10.917   3.755  0.00  0.00    +0.277 C 
ENDBRANCH  25  27
ENDBRANCH  19  21
ENDBRANCH  17  19
ENDBRANCH   5  15
BRANCH   1  29
ATOM     29  C   UNL     1       0.485  -0.471  -1.131  0.00  0.00    +0.105 C 
BRANCH  29  30
ATOM     30  C   UNL     1      -0.164  -0.492  -2.491  0.00  0.00    -0.036 A 
ATOM     31  C   UNL     1       0.355  -1.292  -3.491  0.00  0.00    +0.004 A 
ATOM     32  C   UNL     1      -0.240  -1.312  -4.739  0.00  0.00    +0.000 A 
ATOM     33  C   UNL     1      -1.354  -0.532  -4.986  0.00  0.00    +0.000 A 
ATOM     34  C   UNL     1      -1.874   0.267  -3.985  0.00  0.00    +0.000 A 
ATOM     35  C   UNL     1      -1.281   0.284  -2.736  0.00  0.00    +0.004 A 
ENDBRANCH  29  30
BRANCH  29  37
ATOM     36  C   UNL     1       0.992  -1.833   0.902  0.00  0.00    +0.005 C 
ATOM     37  C   UNL     1       0.464  -1.879  -0.533  0.00  0.00    +0.014 C 
ENDBRANCH  29  37
ENDBRANCH   1  29
TORSDOF 7
