REMARK  Name = ZINC00528143
REMARK  2 active torsions:
REMARK  status: ('A' for Active; 'I' for Inactive)
REMARK    1  A    between atoms: C_4  and  C_7
REMARK    2  A    between atoms: C_10  and  C_19
REMARK                            x       y       z     vdW  Elec       q    Type
REMARK                         _______ _______ _______ _____ _____    ______ ____
ROOT
ATOM      1  C   UNL     1       3.711  -0.707  -0.038  0.00  0.00    +0.106 C 
ATOM      2  C   UNL     1       4.048  -1.192   1.377  0.00  0.00    +0.058 C 
ATOM      3  C   UNL     1       5.412  -1.893   1.373  0.00  0.00    +0.143 C 
ATOM      4  N   UNL     1       5.439  -2.867   0.281  0.00  0.00    -0.224 N 
ATOM      5  C   UNL     1       4.594  -2.850  -0.777  0.00  0.00    +0.216 A 
ATOM      6  N   UNL     1       4.893  -3.858  -1.553  0.00  0.00    -0.180 NA
ATOM      7  C   UNL     1       5.921  -4.538  -1.025  0.00  0.00    +0.233 A 
ATOM      8  N   UNL     1       6.284  -3.962   0.099  0.00  0.00    -0.132 NA
ATOM      9  N   UNL     1       6.510  -5.675  -1.580  0.00  0.00    -0.326 N 
ATOM     10  N   UNL     1       3.612  -1.879  -0.929  0.00  0.00    -0.307 N 
ATOM     11  H   UNL     1       6.177  -6.034  -2.418  0.00  0.00    +0.145 HD
ATOM     12  H   UNL     1       7.253  -6.106  -1.129  0.00  0.00    +0.145 HD
ATOM     13  H   UNL     1       2.899  -1.967  -1.582  0.00  0.00    +0.149 HD
ENDROOT
BRANCH   3  14
ATOM     14  C   UNL     1       5.622  -2.599   2.688  0.00  0.00    -0.023 A 
ATOM     15  C   UNL     1       4.745  -3.590   3.087  0.00  0.00    +0.008 A 
ATOM     16  C   UNL     1       4.936  -4.237   4.293  0.00  0.00    +0.038 A 
ATOM     17  C   UNL     1       6.007  -3.893   5.101  0.00  0.00    +0.123 A 
ATOM     18  C   UNL     1       6.885  -2.901   4.699  0.00  0.00    +0.038 A 
ATOM     19  C   UNL     1       6.694  -2.258   3.491  0.00  0.00    +0.008 A 
ATOM     20  F   UNL     1       6.195  -4.526   6.280  0.00  0.00    -0.205 F 
ENDBRANCH   3  14
BRANCH   1  24
ATOM     21  C   UNL     1      -0.017   1.378   0.010  0.00  0.00    +0.000 A 
ATOM     22  C   UNL     1       1.171   2.086   0.002  0.00  0.00    +0.000 A 
ATOM     23  C   UNL     1       2.377   1.411  -0.013  0.00  0.00    +0.005 A 
ATOM     24  C   UNL     1       2.396   0.029  -0.020  0.00  0.00    -0.027 A 
ATOM     25  C   UNL     1       1.208  -0.679  -0.012  0.00  0.00    +0.005 A 
ATOM     26  C   UNL     1       0.002  -0.004   0.002  0.00  0.00    +0.000 A 
ENDBRANCH   1  24
TORSDOF 2
