REMARK  Name = ZINC06148075
REMARK  8 active torsions:
REMARK  status: ('A' for Active; 'I' for Inactive)
REMARK    1  A    between atoms: C_4  and  C_7
REMARK    2  A    between atoms: C_7  and  O_8
REMARK    3  A    between atoms: O_8  and  C_9
REMARK    4  A    between atoms: C_12  and  C_15
REMARK    5  A    between atoms: C_17  and  C_29
REMARK    6  A    between atoms: C_19  and  C_24
REMARK    7  A    between atoms: C_19  and  O_28
REMARK    8  A    between atoms: C_29  and  C_31
REMARK                            x       y       z     vdW  Elec       q    Type
REMARK                         _______ _______ _______ _____ _____    ______ ____
ROOT
ATOM      1  C   UNL     1       0.002  -0.004   0.002  0.00  0.00    +0.117 C 
ATOM      2  C   UNL     1       1.281  -0.493   0.690  0.00  0.00    +0.144 C 
ATOM      3  C   UNL     1       2.486   0.144  -0.009  0.00  0.00    +0.241 C 
ATOM      4  N   UNL     1       2.331   1.600  -0.000  0.00  0.00    -0.291 N 
ATOM      5  C   UNL     1       1.118   2.173   0.003  0.00  0.00    +0.133 C 
ATOM      6  S   UNL     1       1.016   3.882  -0.002  0.00  0.00    -0.019 S 
ATOM      7  N   UNL     1      -0.018   1.460   0.010  0.00  0.00    -0.319 N 
ATOM      8  H   UNL     1       3.122   2.162   0.003  0.00  0.00    +0.151 HD
ATOM      9  H   UNL     1      -0.870   1.923   0.017  0.00  0.00    +0.148 HD
ENDROOT
BRANCH   1  13
ATOM     10  C   UNL     1      -3.410  -1.490   2.103  0.00  0.00    +0.121 A 
ATOM     11  C   UNL     1      -2.986  -2.113   0.938  0.00  0.00    +0.046 A 
ATOM     12  C   UNL     1      -1.882  -1.631   0.261  0.00  0.00    +0.009 A 
ATOM     13  C   UNL     1      -1.201  -0.528   0.743  0.00  0.00    -0.026 A 
ATOM     14  C   UNL     1      -1.618   0.091   1.907  0.00  0.00    +0.009 A 
ATOM     15  C   UNL     1      -2.724  -0.384   2.585  0.00  0.00    +0.046 A 
BRANCH  10  16
ATOM     16  O   UNL     1      -4.495  -1.963   2.771  0.00  0.00    -0.487 OA
BRANCH  16  17
ATOM     17  C   UNL     1      -4.874  -1.272   3.963  0.00  0.00    +0.264 C 
BRANCH  17  21
ATOM     18  C   UNL     1      -8.315  -3.147   5.663  0.00  0.00    +0.000 A 
ATOM     19  C   UNL     1      -7.049  -3.563   6.030  0.00  0.00    +0.000 A 
ATOM     20  C   UNL     1      -5.936  -2.956   5.480  0.00  0.00    +0.007 A 
ATOM     21  C   UNL     1      -6.088  -1.933   4.563  0.00  0.00    -0.010 A 
ATOM     22  C   UNL     1      -7.354  -1.514   4.199  0.00  0.00    +0.007 A 
ATOM     23  C   UNL     1      -8.468  -2.124   4.745  0.00  0.00    +0.000 A 
ENDBRANCH  17  21
ENDBRANCH  16  17
ENDBRANCH  10  16
ENDBRANCH   1  13
BRANCH   3  24
ATOM     24  C   UNL     1       3.769  -0.238   0.732  0.00  0.00    +0.436 C 
ATOM     25  F   UNL     1       3.912  -1.629   0.730  0.00  0.00    -0.166 F 
ATOM     26  F   UNL     1       4.868   0.345   0.093  0.00  0.00    -0.166 F 
ATOM     27  F   UNL     1       3.699   0.222   2.052  0.00  0.00    -0.166 F 
ENDBRANCH   3  24
BRANCH   3  28
ATOM     28  O   UNL     1       2.556  -0.320  -1.358  0.00  0.00    -0.364 OA
ATOM     29  H   UNL     1       3.297   0.044  -1.862  0.00  0.00    +0.212 HD
ENDBRANCH   3  28
BRANCH   2  30
ATOM     30  C   UNL     1       1.370  -1.994   0.585  0.00  0.00    +0.173 C 
ATOM     31  O   UNL     1       0.881  -2.565  -0.367  0.00  0.00    -0.292 OA
BRANCH  30  32
ATOM     32  C   UNL     1       2.050  -2.767   1.636  0.00  0.00    +0.018 A 
ATOM     33  C   UNL     1       2.620  -2.112   2.732  0.00  0.00    +0.011 A 
ATOM     34  C   UNL     1       3.251  -2.843   3.716  0.00  0.00    +0.001 A 
ATOM     35  C   UNL     1       3.331  -4.221   3.615  0.00  0.00    +0.000 A 
ATOM     36  C   UNL     1       2.774  -4.876   2.531  0.00  0.00    +0.001 A 
ATOM     37  C   UNL     1       2.135  -4.159   1.541  0.00  0.00    +0.011 A 
ENDBRANCH  30  32
ENDBRANCH   2  30
TORSDOF 8
