REMARK  Name = ZINC00041317
REMARK  3 active torsions:
REMARK  status: ('A' for Active; 'I' for Inactive)
REMARK    1  A    between atoms: C_1  and  C_2
REMARK    2  A    between atoms: C_6  and  N_11
REMARK    3  A    between atoms: C_14  and  C_16
REMARK                            x       y       z     vdW  Elec       q    Type
REMARK                         _______ _______ _______ _____ _____    ______ ____
ROOT
ATOM      1  C   UNL     1       1.700  -1.293   1.271  0.00  0.00    +0.035 C 
ATOM      2  C   UNL     1       1.413  -0.418   0.049  0.00  0.00    +0.123 C 
ATOM      3  C   UNL     1       2.253   0.831   0.107  0.00  0.00    +0.073 A 
ATOM      4  C   UNL     1       1.419   1.927   0.141  0.00  0.00    +0.033 A 
ATOM      5  C   UNL     1       1.986   3.201   0.196  0.00  0.00    +0.126 A 
ATOM      6  N   UNL     1       3.311   3.314   0.214  0.00  0.00    -0.200 NA
ATOM      7  C   UNL     1       4.080   2.236   0.181  0.00  0.00    +0.215 A 
ATOM      8  N   UNL     1       3.566   1.015   0.128  0.00  0.00    -0.217 NA
ATOM      9  N   UNL     1       5.455   2.388   0.201  0.00  0.00    -0.327 N 
ATOM     10  C   UNL     1      -0.010   1.457   0.108  0.00  0.00    +0.149 C 
ATOM     11  N   UNL     1       0.005  -0.009   0.051  0.00  0.00    -0.285 N 
ATOM     12  C   UNL     1      -1.069  -0.822   0.009  0.00  0.00    +0.248 C 
ATOM     13  O   UNL     1      -0.919  -2.020  -0.135  0.00  0.00    -0.270 OA
ATOM     14  H   UNL     1       6.030   1.607   0.176  0.00  0.00    +0.145 HD
ATOM     15  H   UNL     1       5.845   3.275   0.239  0.00  0.00    +0.145 HD
ENDROOT
BRANCH  12  16
ATOM     16  C   UNL     1      -2.429  -0.258   0.136  0.00  0.00    +0.040 A 
ATOM     17  C   UNL     1      -3.533  -1.106   0.243  0.00  0.00    +0.033 A 
ATOM     18  C   UNL     1      -4.800  -0.573   0.368  0.00  0.00    +0.043 A 
ATOM     19  C   UNL     1      -4.979   0.799   0.376  0.00  0.00    +0.040 A 
ATOM     20  C   UNL     1      -3.890   1.646   0.266  0.00  0.00    +0.043 A 
ATOM     21  C   UNL     1      -2.616   1.125   0.146  0.00  0.00    +0.033 A 
ATOM     22 CL   UNL     1      -4.124   3.366   0.278  0.00  0.00    -0.083 Cl
ATOM     23 CL   UNL     1      -6.173  -1.627   0.507  0.00  0.00    -0.083 Cl
ENDBRANCH  12  16
BRANCH   5  24
ATOM     24  N   UNL     1       1.183   4.329   0.232  0.00  0.00    -0.343 N 
ATOM     25  H   UNL     1       1.586   5.210   0.271  0.00  0.00    +0.144 HD
ATOM     26  H   UNL     1       0.217   4.237   0.218  0.00  0.00    +0.144 HD
ENDBRANCH   5  24
TORSDOF 2
