REMARK  Name = ZINC59199596
REMARK  14 active torsions:
REMARK  status: ('A' for Active; 'I' for Inactive)
REMARK    1  A    between atoms: C_1  and  C_2
REMARK    2  A    between atoms: C_2  and  C_3
REMARK    3  A    between atoms: C_8  and  N_9
REMARK    4  A    between atoms: N_9  and  C_10
REMARK    5  A    between atoms: C_10  and  N_12
REMARK    6  A    between atoms: N_12  and  C_13
REMARK    7  A    between atoms: N_12  and  C_22
REMARK    8  A    between atoms: C_13  and  C_14
REMARK    9  A    between atoms: C_19  and  O_20
REMARK   10  A    between atoms: O_20  and  C_21
REMARK   11  A    between atoms: C_24  and  C_30
REMARK   12  A    between atoms: C_24  and  C_31
REMARK   13  A    between atoms: C_26  and  C_28
REMARK   14  A    between atoms: C_26  and  C_29
REMARK                            x       y       z     vdW  Elec       q    Type
REMARK                         _______ _______ _______ _____ _____    ______ ____
ROOT
ATOM      1  N   UNL     1      -1.495  -0.315  -4.731  0.00  0.00    -0.305 N 
ENDROOT
BRANCH   1   2
ATOM      2  C   UNL     1      -0.086   0.099  -4.737  0.00  0.00    +0.073 C 
ATOM      3  C   UNL     1       0.045   1.446  -4.025  0.00  0.00    +0.009 C 
ATOM      4  C   UNL     1       1.510   1.885  -4.011  0.00  0.00    -0.072 C 
ATOM      5  N   UNL     1       2.381   0.867  -3.444  0.00  0.00    +0.386 N 
ATOM      6  C   UNL     1       2.206  -0.503  -3.900  0.00  0.00    -0.072 C 
ATOM      7  C   UNL     1       0.745  -0.931  -3.971  0.00  0.00    +0.009 C 
ATOM      8  C   UNL     1       2.905  -1.427  -2.874  0.00  0.00    -0.010 C 
ATOM      9  C   UNL     1       2.886  -0.742  -5.251  0.00  0.00    -0.010 C 
ATOM     10  C   UNL     1       1.949   2.302  -5.414  0.00  0.00    -0.010 C 
ATOM     11  C   UNL     1       1.605   3.137  -3.109  0.00  0.00    -0.010 C 
ATOM     12  H   UNL     1       3.351   1.142  -3.616  0.00  0.00    -0.084 HD
ATOM     13  H   UNL     1       2.274   0.883  -2.427  0.00  0.00    -0.084 HD
ENDBRANCH   1   2
BRANCH   1  14
ATOM     14  C   UNL     1      -2.097  -0.639  -3.570  0.00  0.00    +0.138 C 
ATOM     15  S   UNL     1      -3.725  -1.171  -3.569  0.00  0.00    -0.018 S 
BRANCH  14  16
ATOM     16  N   UNL     1      -1.419  -0.544  -2.409  0.00  0.00    -0.297 N 
ATOM     17  H   UNL     1      -0.550  -0.113  -2.389  0.00  0.00    +0.154 HD
BRANCH  16  23
ATOM     18  C   UNL     1      -1.180  -1.826  -0.376  0.00  0.00    -0.026 A 
ATOM     19  C   UNL     1      -1.723  -2.337   0.787  0.00  0.00    +0.005 A 
ATOM     20  C   UNL     1      -3.049  -2.099   1.095  0.00  0.00    +0.000 A 
ATOM     21  C   UNL     1      -3.838  -1.350   0.240  0.00  0.00    +0.002 A 
ATOM     22  C   UNL     1      -3.301  -0.837  -0.924  0.00  0.00    +0.023 A 
ATOM     23  C   UNL     1      -1.967  -1.068  -1.234  0.00  0.00    +0.036 A 
BRANCH  18  25
ATOM     24  C   UNL     1       1.121  -0.913  -0.223  0.00  0.00    +0.009 C 
ATOM     25  C   UNL     1       0.267  -2.085  -0.711  0.00  0.00    +0.033 C 
ENDBRANCH  18  25
ENDBRANCH  16  23
ENDBRANCH  14  16
ENDBRANCH   1  14
BRANCH   1  26
ATOM     26  C   UNL     1      -2.246  -0.374  -5.987  0.00  0.00    +0.145 C 
BRANCH  26  27
ATOM     27  C   UNL     1      -2.899   0.959  -6.246  0.00  0.00    +0.011 A 
ATOM     28  C   UNL     1      -4.236   1.143  -5.947  0.00  0.00    +0.009 A 
ATOM     29  C   UNL     1      -4.836   2.365  -6.184  0.00  0.00    +0.001 A 
ATOM     30  C   UNL     1      -4.101   3.407  -6.721  0.00  0.00    +0.004 A 
ATOM     31  C   UNL     1      -2.765   3.228  -7.021  0.00  0.00    +0.046 A 
ATOM     32  C   UNL     1      -2.159   2.003  -6.779  0.00  0.00    +0.125 A 
BRANCH  32  33
ATOM     33  O   UNL     1      -0.843   1.826  -7.068  0.00  0.00    -0.495 OA
ATOM     34  C   UNL     1      -0.142   2.945  -7.615  0.00  0.00    +0.277 C 
ENDBRANCH  32  33
ENDBRANCH  26  27
ENDBRANCH   1  26
TORSDOF 8
