REMARK  Name = ZINC02336476
REMARK  7 active torsions:
REMARK  status: ('A' for Active; 'I' for Inactive)
REMARK    1  A    between atoms: C_1  and  C_2
REMARK    2  A    between atoms: C_11  and  N_26
REMARK    3  A    between atoms: C_13  and  S_15
REMARK    4  A    between atoms: S_15  and  C_16
REMARK    5  A    between atoms: C_16  and  C_17
REMARK    6  A    between atoms: N_19  and  C_20
REMARK    7  A    between atoms: C_20  and  C_21
REMARK                            x       y       z     vdW  Elec       q    Type
REMARK                         _______ _______ _______ _____ _____    ______ ____
ROOT
ATOM      1  C   UNL     1      -5.010   3.541  -2.211  0.00  0.00    +0.008 C 
ATOM      2  C   UNL     1      -3.576   3.041  -2.028  0.00  0.00    -0.009 C 
ATOM      3  C   UNL     1      -2.884   3.853  -0.930  0.00  0.00    +0.008 C 
ATOM      4  C   UNL     1      -1.390   3.532  -0.908  0.00  0.00    +0.037 C 
ATOM      5  C   UNL     1      -1.212   2.019  -0.819  0.00  0.00    -0.025 A 
ATOM      6  C   UNL     1      -2.225   1.187  -1.131  0.00  0.00    -0.004 A 
ATOM      7  S   UNL     1      -1.577  -0.445  -0.886  0.00  0.00    -0.073 S 
ATOM      8  C   UNL     1       0.058  -0.006  -0.357  0.00  0.00    +0.115 A 
ATOM      9  C   UNL     1       0.045   1.402  -0.387  0.00  0.00    +0.051 A 
ATOM     10  C   UNL     1       1.258   2.036   0.001  0.00  0.00    +0.129 A 
ATOM     11  N   UNL     1       2.292   1.290   0.355  0.00  0.00    -0.207 NA
ATOM     12  C   UNL     1       2.236  -0.036   0.362  0.00  0.00    +0.191 A 
ATOM     13  N   UNL     1       1.131  -0.680   0.009  0.00  0.00    -0.214 NA
ATOM     14  C   UNL     1      -3.601   1.564  -1.592  0.00  0.00    +0.046 C 
ENDROOT
BRANCH  10  15
ATOM     15  N   UNL     1       1.356   3.415   0.008  0.00  0.00    -0.343 N 
ATOM     16  H   UNL     1       2.082   3.848   0.485  0.00  0.00    +0.144 HD
ATOM     17  H   UNL     1       0.700   3.950  -0.465  0.00  0.00    +0.144 HD
ENDBRANCH  10  15
BRANCH  12  18
ATOM     18  S   UNL     1       3.657  -0.959   0.847  0.00  0.00    -0.077 S 
BRANCH  18  19
ATOM     19  C   UNL     1       4.805   0.395   1.201  0.00  0.00    +0.173 C 
BRANCH  19  20
ATOM     20  C   UNL     1       6.128  -0.172   1.647  0.00  0.00    +0.224 C 
ATOM     21  O   UNL     1       6.279  -1.374   1.719  0.00  0.00    -0.275 OA
ATOM     22  N   UNL     1       7.143   0.655   1.966  0.00  0.00    -0.308 N 
ATOM     23  H   UNL     1       7.021   1.616   1.909  0.00  0.00    +0.149 HD
BRANCH  22  24
ATOM     24  C   UNL     1       8.428   0.104   2.400  0.00  0.00    +0.178 C 
BRANCH  24  25
ATOM     25  C   UNL     1       9.384   1.231   2.695  0.00  0.00    +0.122 A 
ATOM     26  C   UNL     1       9.542   1.838   3.885  0.00  0.00    +0.046 A 
ATOM     27  C   UNL     1      10.534   2.830   3.710  0.00  0.00    +0.041 A 
ATOM     28  C   UNL     1      10.923   2.770   2.424  0.00  0.00    +0.195 A 
ATOM     29  O   UNL     1      10.228   1.796   1.815  0.00  0.00    -0.466 OA
ENDBRANCH  24  25
ENDBRANCH  22  24
ENDBRANCH  19  20
ENDBRANCH  18  19
ENDBRANCH  12  18
TORSDOF 6
