REMARK  Name = ZINC00887337
REMARK  12 active torsions:
REMARK  status: ('A' for Active; 'I' for Inactive)
REMARK    1  A    between atoms: C_1  and  C_2
REMARK    2  A    between atoms: C_5  and  C_8
REMARK    3  A    between atoms: N_11  and  C_13
REMARK    4  A    between atoms: C_13  and  C_14
REMARK    5  A    between atoms: N_16  and  C_17
REMARK    6  A    between atoms: N_16  and  C_26
REMARK    7  A    between atoms: C_17  and  C_18
REMARK    8  A    between atoms: C_18  and  C_19
REMARK    9  A    between atoms: C_24  and  C_25
REMARK   10  A    between atoms: C_26  and  C_28
REMARK   11  A    between atoms: C_26  and  C_34
REMARK   12  A    between atoms: N_36  and  C_37
REMARK                            x       y       z     vdW  Elec       q    Type
REMARK                         _______ _______ _______ _____ _____    ______ ____
ROOT
ATOM      1  C   UNL     1       1.459  -7.990   1.462  0.00  0.00    +0.240 C 
ATOM      2  O   UNL     1       2.321  -7.539   0.738  0.00  0.00    -0.273 OA
ATOM      3  N   UNL     1       1.671  -9.145   2.123  0.00  0.00    -0.284 N 
ENDROOT
BRANCH   1   4
ATOM      4  C   UNL     1       0.151  -7.259   1.622  0.00  0.00    +0.264 C 
BRANCH   4   8
ATOM      5  C   UNL     1       0.483  -3.996   0.321  0.00  0.00    +0.205 A 
ATOM      6  N   UNL     1      -0.009  -4.657  -0.736  0.00  0.00    -0.108 NA
ATOM      7  N   UNL     1      -0.175  -5.885  -0.376  0.00  0.00    -0.045 NA
ATOM      8  N   UNL     1       0.190  -6.013   0.852  0.00  0.00    -0.154 N 
ATOM      9  N   UNL     1       0.601  -4.875   1.296  0.00  0.00    -0.130 NA
BRANCH   5  14
ATOM     10  C   UNL     1       1.841   1.597   0.550  0.00  0.00    +0.044 C 
ATOM     11  C   UNL     1       1.486   0.134   0.490  0.00  0.00    -0.050 A 
ATOM     12  C   UNL     1       0.980  -0.405  -0.679  0.00  0.00    +0.004 A 
ATOM     13  C   UNL     1       0.653  -1.745  -0.739  0.00  0.00    +0.012 A 
ATOM     14  C   UNL     1       0.834  -2.554   0.380  0.00  0.00    +0.023 A 
ATOM     15  C   UNL     1       1.344  -2.006   1.554  0.00  0.00    +0.012 A 
ATOM     16  C   UNL     1       1.672  -0.666   1.603  0.00  0.00    +0.004 A 
ENDBRANCH   5  14
ENDBRANCH   4   8
ENDBRANCH   1   4
BRANCH   3  17
ATOM     17  C   UNL     1       2.978  -9.803   2.049  0.00  0.00    +0.113 C 
BRANCH  17  18
ATOM     18  C   UNL     1       3.903  -9.221   3.119  0.00  0.00    +0.054 C 
BRANCH  18  19
ATOM     19  C   UNL     1       5.247  -9.897   3.043  0.00  0.00    -0.043 A 
ATOM     20  C   UNL     1       5.523 -10.981   3.856  0.00  0.00    +0.004 A 
ATOM     21  C   UNL     1       6.756 -11.601   3.786  0.00  0.00    +0.000 A 
ATOM     22  C   UNL     1       7.714 -11.138   2.903  0.00  0.00    +0.000 A 
ATOM     23  C   UNL     1       7.438 -10.055   2.090  0.00  0.00    +0.003 A 
ATOM     24  C   UNL     1       6.203  -9.437   2.156  0.00  0.00    -0.047 A 
ATOM     25  C   UNL     1       5.900  -8.260   1.266  0.00  0.00    +0.044 C 
ENDBRANCH  18  19
ENDBRANCH  17  18
ENDBRANCH   3  17
BRANCH   3  26
ATOM     26  C   UNL     1       0.594  -9.743   2.916  0.00  0.00    +0.192 C 
BRANCH  26  27
ATOM     27  C   UNL     1       0.229  -8.817   4.047  0.00  0.00    -0.015 A 
ATOM     28  C   UNL     1       1.200  -8.061   4.687  0.00  0.00    +0.025 A 
ATOM     29  C   UNL     1       0.828  -7.223   5.721  0.00  0.00    +0.111 A 
ATOM     30  N   UNL     1      -0.432  -7.137   6.100  0.00  0.00    -0.263 NA
ATOM     31  C   UNL     1      -1.382  -7.840   5.514  0.00  0.00    +0.111 A 
ATOM     32  C   UNL     1      -1.086  -8.695   4.469  0.00  0.00    +0.025 A 
ENDBRANCH  26  27
BRANCH  26  33
ATOM     33  C   UNL     1       1.057 -11.063   3.477  0.00  0.00    +0.238 C 
ATOM     34  O   UNL     1       2.136 -11.145   4.023  0.00  0.00    -0.273 OA
ATOM     35  N   UNL     1       0.271 -12.153   3.371  0.00  0.00    -0.311 N 
ATOM     36  H   UNL     1      -0.593 -12.087   2.934  0.00  0.00    +0.149 HD
BRANCH  35  37
ATOM     37  C   UNL     1       0.720 -13.436   3.917  0.00  0.00    +0.073 C 
ATOM     38  C   UNL     1       1.547 -14.198   2.860  0.00  0.00    +0.022 C 
ATOM     39  C   UNL     1       1.153 -15.682   3.067  0.00  0.00    +0.002 C 
ATOM     40  C   UNL     1      -0.361 -15.592   3.382  0.00  0.00    +0.002 C 
ATOM     41  C   UNL     1      -0.493 -14.322   4.248  0.00  0.00    +0.022 C 
ENDBRANCH  35  37
ENDBRANCH  26  33
ENDBRANCH   3  26
TORSDOF 10
