REMARK  Name = ZINC63007526
REMARK  5 active torsions:
REMARK  status: ('A' for Active; 'I' for Inactive)
REMARK    1  A    between atoms: C_1  and  C_2
REMARK    2  A    between atoms: C_7  and  C_22
REMARK    3  A    between atoms: C_10  and  C_12
REMARK    4  A    between atoms: C_15  and  N_19
REMARK    5  A    between atoms: N_19  and  N_20
REMARK                            x       y       z     vdW  Elec       q    Type
REMARK                         _______ _______ _______ _____ _____    ______ ____
ROOT
ATOM      1  C   UNL     1      -1.369  -1.633   1.850  0.00  0.00    +0.042 A 
ATOM      2  C   UNL     1      -1.980  -1.358   0.623  0.00  0.00    +0.053 A 
ATOM      3  C   UNL     1      -3.294  -1.719   0.412  0.00  0.00    +0.149 A 
ATOM      4  C   UNL     1      -4.013  -2.357   1.421  0.00  0.00    +0.112 A 
ATOM      5  C   UNL     1      -3.406  -2.632   2.644  0.00  0.00    +0.149 A 
ATOM      6  C   UNL     1      -2.091  -2.279   2.858  0.00  0.00    +0.053 A 
ATOM      7  F   UNL     1      -4.107  -3.250   3.620  0.00  0.00    -0.203 F 
ATOM      8  F   UNL     1      -3.884  -1.454  -0.773  0.00  0.00    -0.203 F 
ENDROOT
BRANCH   1  16
ATOM      9  C   UNL     1      -0.438   2.121   1.513  0.00  0.00    +0.028 C 
ATOM     10  C   UNL     1      -0.351   0.786   0.772  0.00  0.00    +0.074 C 
ATOM     11  C   UNL     1       0.229   1.012  -0.628  0.00  0.00    +0.022 C 
ATOM     12  C   UNL     1       1.675   1.498  -0.504  0.00  0.00    +0.004 C 
ATOM     13  C   UNL     1       2.515   0.430   0.200  0.00  0.00    +0.022 C 
ATOM     14  C   UNL     1       1.961   0.197   1.609  0.00  0.00    +0.074 C 
ATOM     15  N   UNL     1       0.530  -0.131   1.509  0.00  0.00    -0.292 N 
ATOM     16  C   UNL     1       0.036  -1.248   2.079  0.00  0.00    +0.247 C 
ATOM     17  O   UNL     1       0.749  -1.938   2.781  0.00  0.00    -0.270 OA
ATOM     18  C   UNL     1       2.710  -0.963   2.269  0.00  0.00    +0.028 C 
ENDBRANCH   1  16
BRANCH   4  19
ATOM     19  N   UNL     1      -5.340  -2.720   1.205  0.00  0.00    -0.278 N 
ATOM     20  H   UNL     1      -5.830  -2.347   0.455  0.00  0.00    +0.166 HD
BRANCH  19  21
ATOM     21  N   UNL     1      -5.953  -3.603   2.049  0.00  0.00    -0.256 NA
ATOM     22  H   UNL     1      -6.907  -3.769   1.768  0.00  0.00    +0.140 HD
ATOM     23  H   UNL     1      -5.436  -4.468   2.104  0.00  0.00    +0.140 HD
ENDBRANCH  19  21
ENDBRANCH   4  19
TORSDOF 3
