REMARK  Name = ZINC59102288
REMARK  4 active torsions:
REMARK  status: ('A' for Active; 'I' for Inactive)
REMARK    1  A    between atoms: C_4  and  N_7
REMARK    2  A    between atoms: C_10  and  C_17
REMARK    3  A    between atoms: C_12  and  C_15
REMARK    4  A    between atoms: C_13  and  N_14
REMARK                            x       y       z     vdW  Elec       q    Type
REMARK                         _______ _______ _______ _____ _____    ______ ____
ROOT
ATOM      1  N   UNL     1       3.616  -0.567   0.181  0.00  0.00    -0.260 N 
ATOM      2  C   UNL     1       3.554  -1.932   0.279  0.00  0.00    +0.024 C 
ATOM      3  C   UNL     1       4.676  -2.661   0.457  0.00  0.00    +0.025 C 
ATOM      4  C   UNL     1       6.026  -1.994   0.553  0.00  0.00    +0.097 C 
ATOM      5  C   UNL     1       5.979  -0.595   0.015  0.00  0.00    +0.077 C 
ATOM      6  C   UNL     1       4.798   0.057  -0.150  0.00  0.00    +0.107 C 
ATOM      7  C   UNL     1       4.622  -4.062   0.561  0.00  0.00    +0.162 C 
ATOM      8  O   UNL     1       5.653  -4.689   0.704  0.00  0.00    -0.292 OA
ATOM      9  C   UNL     1       3.312  -4.798   0.500  0.00  0.00    +0.080 C 
ATOM     10  C   UNL     1       2.199  -3.880   1.015  0.00  0.00    +0.014 C 
ATOM     11  C   UNL     1       2.203  -2.598   0.179  0.00  0.00    +0.052 C 
ENDROOT
BRANCH   4  12
ATOM     12  C   UNL     1       6.453  -1.953   1.998  0.00  0.00    -0.035 A 
ATOM     13  C   UNL     1       5.675  -1.291   2.930  0.00  0.00    +0.006 A 
ATOM     14  C   UNL     1       6.067  -1.253   4.255  0.00  0.00    +0.020 A 
ATOM     15  C   UNL     1       7.238  -1.876   4.648  0.00  0.00    +0.041 A 
ATOM     16  C   UNL     1       8.016  -2.538   3.715  0.00  0.00    +0.020 A 
ATOM     17  C   UNL     1       7.620  -2.580   2.391  0.00  0.00    +0.006 A 
ATOM     18 CL   UNL     1       7.731  -1.827   6.312  0.00  0.00    -0.084 Cl
ENDBRANCH   4  12
BRANCH   1  22
ATOM     19  C   UNL     1       0.197   1.712   0.875  0.00  0.00    +0.000 A 
ATOM     20  C   UNL     1       0.479   1.261  -0.402  0.00  0.00    +0.002 A 
ATOM     21  C   UNL     1       1.611   0.506  -0.635  0.00  0.00    +0.024 A 
ATOM     22  C   UNL     1       2.468   0.199   0.414  0.00  0.00    +0.040 A 
ATOM     23  C   UNL     1       2.182   0.653   1.695  0.00  0.00    +0.024 A 
ATOM     24  C   UNL     1       1.048   1.408   1.922  0.00  0.00    +0.002 A 
ENDBRANCH   1  22
BRANCH   6  25
ATOM     25  N   UNL     1       4.782   1.340  -0.642  0.00  0.00    -0.345 N 
ATOM     26  H   UNL     1       3.937   1.772  -0.842  0.00  0.00    +0.144 HD
ATOM     27  H   UNL     1       5.615   1.813  -0.790  0.00  0.00    +0.144 HD
ENDBRANCH   6  25
BRANCH   5  28
ATOM     28  C   UNL     1       7.201   0.064  -0.337  0.00  0.00    +0.099 C 
ATOM     29  N   UNL     1       8.170   0.587  -0.616  0.00  0.00    -0.191 NA
ENDBRANCH   5  28
TORSDOF 4
