REMARK  Name = ZINC44006032
REMARK  6 active torsions:
REMARK  status: ('A' for Active; 'I' for Inactive)
REMARK    1  A    between atoms: C_1  and  C_2
REMARK    2  A    between atoms: C_4  and  C_29
REMARK    3  A    between atoms: C_6  and  N_8
REMARK    4  A    between atoms: N_11  and  C_12
REMARK    5  A    between atoms: C_12  and  C_13
REMARK    6  A    between atoms: N_21  and  C_22
REMARK                            x       y       z     vdW  Elec       q    Type
REMARK                         _______ _______ _______ _____ _____    ______ ____
ROOT
ATOM      1  C   UNL     1       0.619  -2.400   7.316  0.00  0.00    +0.009 C 
ATOM      2  C   UNL     1      -0.858  -2.800   7.319  0.00  0.00    +0.024 C 
ATOM      3  C   UNL     1      -1.039  -4.060   8.173  0.00  0.00    +0.109 C 
ATOM      4  N   UNL     1      -0.478  -3.811   9.508  0.00  0.00    -0.285 N 
ATOM      5  C   UNL     1       0.907  -3.334   9.614  0.00  0.00    +0.109 C 
ATOM      6  C   UNL     1       1.067  -2.083   8.745  0.00  0.00    +0.024 C 
ATOM      7  C   UNL     1      -1.221  -4.015  10.614  0.00  0.00    +0.306 C 
ATOM      8  O   UNL     1      -2.333  -4.498  10.519  0.00  0.00    -0.252 OA
ATOM      9  N   UNL     1      -0.732  -3.683  11.825  0.00  0.00    -0.269 N 
ATOM     10  H   UNL     1       0.186  -3.382  11.911  0.00  0.00    +0.156 HD
ENDROOT
BRANCH   9  11
ATOM     11  C   UNL     1      -1.548  -3.775  12.959  0.00  0.00    +0.035 A 
ATOM     12  C   UNL     1      -2.591  -4.691  12.993  0.00  0.00    +0.026 A 
ATOM     13  C   UNL     1      -3.395  -4.779  14.113  0.00  0.00    +0.040 A 
ATOM     14  C   UNL     1      -3.162  -3.956  15.201  0.00  0.00    +0.124 A 
ATOM     15  C   UNL     1      -2.122  -3.041  15.169  0.00  0.00    +0.040 A 
ATOM     16  C   UNL     1      -1.313  -2.953  14.054  0.00  0.00    +0.026 A 
ATOM     17  F   UNL     1      -3.949  -4.044  16.295  0.00  0.00    -0.205 F 
ENDBRANCH   9  11
BRANCH   1  18
ATOM     18  C   UNL     1       0.809  -1.162   6.436  0.00  0.00    +0.109 C 
BRANCH  18  22
ATOM     19  N   UNL     1       0.302  -0.867   2.806  0.00  0.00    -0.269 N 
ATOM     20  C   UNL     1       0.592  -0.558   4.086  0.00  0.00    +0.304 C 
ATOM     21  O   UNL     1       0.941   0.571   4.374  0.00  0.00    -0.253 OA
ATOM     22  N   UNL     1       0.494  -1.499   5.045  0.00  0.00    -0.299 N 
ATOM     23  H   UNL     1      -0.095  -1.726   2.593  0.00  0.00    +0.156 HD
ATOM     24  H   UNL     1       0.215  -2.399   4.816  0.00  0.00    +0.150 HD
BRANCH  19  30
ATOM     25  C   UNL     1      -1.031   1.301  -1.400  0.00  0.00    +0.044 C 
ATOM     26  C   UNL     1      -0.055   1.122  -0.266  0.00  0.00    -0.048 A 
ATOM     27  C   UNL     1       1.111   1.865  -0.233  0.00  0.00    +0.006 A 
ATOM     28  C   UNL     1       2.009   1.703   0.806  0.00  0.00    -0.048 A 
ATOM     29  C   UNL     1       1.743   0.798   1.815  0.00  0.00    +0.026 A 
ATOM     30  C   UNL     1       0.573   0.051   1.786  0.00  0.00    +0.035 A 
ATOM     31  C   UNL     1      -0.329   0.220   0.744  0.00  0.00    +0.026 A 
ATOM     32  C   UNL     1       3.278   2.514   0.837  0.00  0.00    +0.044 C 
ENDBRANCH  19  30
ENDBRANCH  18  22
ENDBRANCH   1  18
TORSDOF 4
