REMARK  Name = ZINC34920468
REMARK  7 active torsions:
REMARK  status: ('A' for Active; 'I' for Inactive)
REMARK    1  A    between atoms: C_1  and  O_2
REMARK    2  A    between atoms: O_2  and  C_3
REMARK    3  A    between atoms: C_6  and  C_11
REMARK    4  A    between atoms: C_8  and  O_9
REMARK    5  A    between atoms: O_9  and  C_10
REMARK    6  A    between atoms: C_13  and  C_29
REMARK    7  A    between atoms: C_29  and  C_31
REMARK                            x       y       z     vdW  Elec       q    Type
REMARK                         _______ _______ _______ _____ _____    ______ ____
ROOT
ATOM      1  C   UNL     1      -4.429  -2.533   0.970  0.00  0.00    +0.152 C 
ATOM      2  C   UNL     1      -4.892  -2.857   2.372  0.00  0.00    +0.077 C 
ATOM      3  C   UNL     1      -6.134  -2.338   2.502  0.00  0.00    +0.250 C 
ATOM      4  C   UNL     1      -6.520  -1.678   1.240  0.00  0.00    +0.293 C 
ATOM      5  O   UNL     1      -7.579  -1.116   1.042  0.00  0.00    -0.266 OA
ATOM      6  N   UNL     1      -5.525  -1.789   0.339  0.00  0.00    -0.232 N 
ATOM      7  C   UNL     1      -5.534  -1.291  -0.952  0.00  0.00    +0.169 A 
ATOM      8  N   UNL     1      -4.602  -1.373  -1.873  0.00  0.00    -0.224 NA
ATOM      9  C   UNL     1      -4.747  -0.835  -3.103  0.00  0.00    +0.080 A 
ATOM     10  C   UNL     1      -3.827  -0.851  -4.177  0.00  0.00    +0.030 A 
ATOM     11  C   UNL     1      -4.133  -0.252  -5.371  0.00  0.00    +0.022 A 
ATOM     12  C   UNL     1      -5.349   0.390  -5.569  0.00  0.00    +0.042 A 
ATOM     13  C   UNL     1      -6.272   0.425  -4.540  0.00  0.00    +0.037 A 
ATOM     14  C   UNL     1      -5.973  -0.173  -3.341  0.00  0.00    +0.042 A 
ATOM     15  S   UNL     1      -6.821  -0.380  -1.793  0.00  0.00    -0.052 S 
ATOM     16 CL   UNL     1      -5.705   1.140  -7.094  0.00  0.00    -0.084 Cl
ATOM     17  O   UNL     1      -6.902  -2.412   3.615  0.00  0.00    -0.282 OA
ENDROOT
BRANCH   1  21
ATOM     18  C   UNL     1      -0.899  -0.122   1.104  0.00  0.00    +0.162 A 
ATOM     19  C   UNL     1      -0.951  -1.235   0.280  0.00  0.00    +0.050 A 
ATOM     20  C   UNL     1      -2.093  -2.012   0.239  0.00  0.00    +0.009 A 
ATOM     21  C   UNL     1      -3.186  -1.682   1.019  0.00  0.00    -0.018 A 
ATOM     22  C   UNL     1      -3.141  -0.573   1.843  0.00  0.00    +0.055 A 
ATOM     23  C   UNL     1      -1.997   0.207   1.894  0.00  0.00    +0.162 A 
BRANCH  18  25
ATOM     24  C   UNL     1       1.312   0.246   0.309  0.00  0.00    +0.277 C 
ATOM     25  O   UNL     1       0.224   0.644   1.146  0.00  0.00    -0.491 OA
ENDBRANCH  18  25
BRANCH  23  26
ATOM     26  O   UNL     1      -1.949   1.295   2.708  0.00  0.00    -0.491 OA
ATOM     27  C   UNL     1      -3.138   1.615   3.434  0.00  0.00    +0.277 C 
ENDBRANCH  23  26
ENDBRANCH   1  21
BRANCH   2  28
ATOM     28  C   UNL     1      -4.139  -3.594   3.394  0.00  0.00    +0.202 C 
ATOM     29  O   UNL     1      -4.569  -3.669   4.531  0.00  0.00    -0.286 OA
BRANCH  28  30
ATOM     30  C   UNL     1      -2.870  -4.239   3.047  0.00  0.00    +0.059 A 
ATOM     31  C   UNL     1      -1.944  -4.855   3.879  0.00  0.00    +0.019 A 
ATOM     32  C   UNL     1      -0.836  -5.375   3.257  0.00  0.00    +0.008 A 
ATOM     33  C   UNL     1      -0.720  -5.257   1.909  0.00  0.00    +0.046 A 
ATOM     34  S   UNL     1      -2.115  -4.443   1.445  0.00  0.00    -0.093 S 
ENDBRANCH  28  30
ENDBRANCH   2  28
TORSDOF 5
