REMARK  Name = ZINC08618075
REMARK  7 active torsions:
REMARK  status: ('A' for Active; 'I' for Inactive)
REMARK    1  A    between atoms: C_1  and  O_2
REMARK    2  A    between atoms: O_2  and  C_3
REMARK    3  A    between atoms: C_3  and  C_5
REMARK    4  A    between atoms: C_6  and  N_33
REMARK    5  A    between atoms: C_11  and  C_12
REMARK    6  A    between atoms: C_21  and  C_31
REMARK    7  A    between atoms: C_22  and  C_24
REMARK                            x       y       z     vdW  Elec       q    Type
REMARK                         _______ _______ _______ _____ _____    ______ ____
ROOT
ATOM      1  C   UNL     1      -4.438   4.559   1.421  0.00  0.00    +0.087 C 
ATOM      2  C   UNL     1      -5.158   3.416   1.392  0.00  0.00    +0.115 C 
ATOM      3  N   UNL     1      -5.464   2.724   0.217  0.00  0.00    -0.257 N 
ATOM      4  C   UNL     1      -6.181   1.582   0.198  0.00  0.00    +0.271 A 
ATOM      5  O   UNL     1      -6.600   1.093   1.229  0.00  0.00    -0.266 OA
ATOM      6  C   UNL     1      -6.442   0.943  -1.098  0.00  0.00    +0.080 A 
ATOM      7  C   UNL     1      -7.128  -0.195  -1.375  0.00  0.00    +0.028 C 
ATOM      8  S   UNL     1      -5.614   2.067  -2.212  0.00  0.00    -0.065 S 
ATOM      9  C   UNL     1      -5.020   3.223  -0.993  0.00  0.00    +0.104 A 
ATOM     10  C   UNL     1      -4.291   4.358  -1.132  0.00  0.00    +0.072 C 
ATOM     11  C   UNL     1      -3.933   5.141   0.116  0.00  0.00    +0.102 C 
ENDROOT
BRANCH   7  12
ATOM     12  C   UNL     1      -7.388  -0.575  -2.770  0.00  0.00    -0.024 A 
ATOM     13  C   UNL     1      -7.318   0.385  -3.785  0.00  0.00    +0.009 A 
ATOM     14  C   UNL     1      -7.558   0.019  -5.093  0.00  0.00    +0.020 A 
ATOM     15  C   UNL     1      -7.877  -1.293  -5.401  0.00  0.00    +0.041 A 
ATOM     16  C   UNL     1      -7.953  -2.248  -4.400  0.00  0.00    +0.020 A 
ATOM     17  C   UNL     1      -7.711  -1.899  -3.089  0.00  0.00    +0.009 A 
ATOM     18 CL   UNL     1      -8.184  -1.743  -7.049  0.00  0.00    -0.084 Cl
ENDBRANCH   7  12
BRANCH  11  19
ATOM     19  C   UNL     1      -2.432   5.243   0.195  0.00  0.00    -0.034 A 
ATOM     20  C   UNL     1      -1.667   4.099   0.324  0.00  0.00    +0.006 A 
ATOM     21  C   UNL     1      -0.291   4.192   0.401  0.00  0.00    +0.020 A 
ATOM     22  C   UNL     1       0.323   5.431   0.338  0.00  0.00    +0.041 A 
ATOM     23  C   UNL     1      -0.442   6.575   0.205  0.00  0.00    +0.020 A 
ATOM     24  C   UNL     1      -1.819   6.481   0.133  0.00  0.00    +0.006 A 
ATOM     25 CL   UNL     1       2.053   5.548   0.428  0.00  0.00    -0.084 Cl
ENDBRANCH  11  19
BRANCH   2  26
ATOM     26  N   UNL     1      -5.609   2.903   2.580  0.00  0.00    -0.344 N 
ATOM     27  H   UNL     1      -5.016   2.865   3.348  0.00  0.00    +0.144 HD
ATOM     28  H   UNL     1      -6.520   2.579   2.654  0.00  0.00    +0.144 HD
ENDBRANCH   2  26
BRANCH   1  29
ATOM     29  C   UNL     1      -4.167   5.196   2.640  0.00  0.00    +0.339 C 
ATOM     30  O   UNL     1      -4.535   4.692   3.686  0.00  0.00    -0.245 OA
BRANCH  29  32
ATOM     31  C   UNL     1      -3.254   6.962   3.933  0.00  0.00    +0.280 C 
ATOM     32  O   UNL     1      -3.496   6.369   2.655  0.00  0.00    -0.465 OA
ENDBRANCH  29  32
ENDBRANCH   1  29
BRANCH  10  33
ATOM     33  C   UNL     1      -3.869   4.806  -2.425  0.00  0.00    +0.098 C 
ATOM     34  N   UNL     1      -3.535   5.162  -3.451  0.00  0.00    -0.191 NA
ENDBRANCH  10  33
TORSDOF 6
