REMARK  Name = ZINC39656831
REMARK  5 active torsions:
REMARK  status: ('A' for Active; 'I' for Inactive)
REMARK    1  A    between atoms: C_1  and  C_2
REMARK    2  A    between atoms: C_2  and  C_4
REMARK    3  A    between atoms: C_2  and  N_11
REMARK    4  A    between atoms: C_12  and  C_14
REMARK    5  A    between atoms: C_25  and  C_27
REMARK                            x       y       z     vdW  Elec       q    Type
REMARK                         _______ _______ _______ _____ _____    ______ ____
ROOT
ATOM      1  C   UNL     1      -4.017  -1.414  -0.888  0.00  0.00    +0.100 C 
ATOM      2  C   UNL     1      -4.666  -0.291  -0.048  0.00  0.00    +0.121 C 
ATOM      3  N   UNL     1      -5.220   0.652  -1.049  0.00  0.00    -0.296 N 
ATOM      4  C   UNL     1      -5.770  -0.222  -2.113  0.00  0.00    +0.115 C 
ATOM      5  C   UNL     1      -4.747  -1.368  -2.241  0.00  0.00    -0.004 C 
ATOM      6  C   UNL     1      -3.759  -1.069  -3.364  0.00  0.00    -0.010 C 
ATOM      7  C   UNL     1      -4.498  -1.084  -4.705  0.00  0.00    -0.082 C 
ATOM      8  N   UNL     1      -5.118  -2.399  -4.909  0.00  0.00    +0.379 N 
ATOM      9  C   UNL     1      -6.134  -2.639  -3.877  0.00  0.00    -0.082 C 
ATOM     10  C   UNL     1      -5.464  -2.689  -2.501  0.00  0.00    -0.010 C 
ATOM     11  C   UNL     1      -5.224   1.998  -1.002  0.00  0.00    +0.247 C 
ATOM     12  O   UNL     1      -4.620   2.577  -0.119  0.00  0.00    -0.270 OA
ATOM     13  H   UNL     1      -5.553  -2.427  -5.819  0.00  0.00    -0.086 HD
ATOM     14  H   UNL     1      -4.410  -3.115  -4.855  0.00  0.00    -0.086 HD
ENDROOT
BRANCH  11  15
ATOM     15  C   UNL     1      -5.961   2.772  -2.023  0.00  0.00    +0.037 A 
ATOM     16  C   UNL     1      -7.001   2.160  -2.745  0.00  0.00    +0.013 A 
ATOM     17  C   UNL     1      -7.693   2.849  -3.688  0.00  0.00    +0.009 A 
ATOM     18  C   UNL     1      -7.372   4.193  -3.954  0.00  0.00    -0.018 A 
ATOM     19  C   UNL     1      -8.074   4.927  -4.925  0.00  0.00    +0.008 A 
ATOM     20  C   UNL     1      -7.741   6.226  -5.161  0.00  0.00    +0.001 A 
ATOM     21  C   UNL     1      -6.712   6.843  -4.453  0.00  0.00    +0.001 A 
ATOM     22  C   UNL     1      -6.009   6.165  -3.505  0.00  0.00    +0.008 A 
ATOM     23  C   UNL     1      -6.325   4.821  -3.233  0.00  0.00    -0.017 A 
ATOM     24  C   UNL     1      -5.625   4.095  -2.258  0.00  0.00    +0.021 A 
ENDBRANCH  11  15
BRANCH   1  26
ATOM     25  N   UNL     1      -1.703  -2.166  -1.329  0.00  0.00    -0.308 N 
ATOM     26  C   UNL     1      -2.546  -1.146  -1.075  0.00  0.00    +0.219 C 
ATOM     27  O   UNL     1      -2.122  -0.013  -0.998  0.00  0.00    -0.275 OA
ATOM     28  H   UNL     1      -2.042  -3.073  -1.391  0.00  0.00    +0.149 HD
BRANCH  25  30
ATOM     29  C   UNL     1       0.417  -1.868  -0.147  0.00  0.00    +0.033 C 
ATOM     30  C   UNL     1      -0.273  -1.906  -1.512  0.00  0.00    +0.100 C 
BRANCH  30  31
ATOM     31  C   UNL     1       0.334  -3.000  -2.351  0.00  0.00    -0.027 A 
ATOM     32  C   UNL     1      -0.056  -4.313  -2.162  0.00  0.00    +0.006 A 
ATOM     33  C   UNL     1       0.500  -5.317  -2.932  0.00  0.00    +0.015 A 
ATOM     34  C   UNL     1       1.447  -5.009  -3.892  0.00  0.00    +0.018 A 
ATOM     35  C   UNL     1       1.837  -3.695  -4.080  0.00  0.00    +0.015 A 
ATOM     36  C   UNL     1       1.277  -2.691  -3.314  0.00  0.00    +0.006 A 
ATOM     37 BR   UNL     1       2.209  -6.382  -4.945  0.00  0.00    -0.050 Br
ENDBRANCH  30  31
ENDBRANCH  25  30
ENDBRANCH   1  26
TORSDOF 4
