REMARK  Name = ZINC20693524
REMARK  10 active torsions:
REMARK  status: ('A' for Active; 'I' for Inactive)
REMARK    1  A    between atoms: C_1  and  C_2
REMARK    2  A    between atoms: C_2  and  C_3
REMARK    3  A    between atoms: C_3  and  C_5
REMARK    4  A    between atoms: C_3  and  N_6
REMARK    5  A    between atoms: N_6  and  S_7
REMARK    6  A    between atoms: S_7  and  C_10
REMARK    7  A    between atoms: C_23  and  C_26
REMARK    8  A    between atoms: C_29  and  O_34
REMARK    9  A    between atoms: C_30  and  O_32
REMARK   10  A    between atoms: O_32  and  C_33
REMARK                            x       y       z     vdW  Elec       q    Type
REMARK                         _______ _______ _______ _____ _____    ______ ____
ROOT
ATOM      1  C   UNL     1       4.992   3.637  -5.056  0.00  0.00    +0.106 A 
ATOM      2  C   UNL     1       5.756   2.522  -4.763  0.00  0.00    +0.030 A 
ATOM      3  C   UNL     1       6.064   2.230  -3.449  0.00  0.00    +0.025 A 
ATOM      4  C   UNL     1       5.606   3.054  -2.428  0.00  0.00    +0.031 A 
ATOM      5  C   UNL     1       4.840   4.172  -2.717  0.00  0.00    -0.018 A 
ATOM      6  C   UNL     1       4.537   4.455  -4.042  0.00  0.00    +0.034 A 
ATOM      7  C   UNL     1       4.327   5.088  -1.651  0.00  0.00    +0.049 C 
ATOM      8  C   UNL     1       2.833   4.887  -1.380  0.00  0.00    -0.023 C 
ATOM      9  C   UNL     1       2.575   5.031  -0.103  0.00  0.00    -0.030 C 
ATOM     10  C   UNL     1       3.845   5.354   0.662  0.00  0.00    +0.033 C 
ATOM     11  C   UNL     1       4.973   4.832  -0.276  0.00  0.00    +0.029 C 
ATOM     12  C   UNL     1       5.106   3.326  -0.034  0.00  0.00    +0.105 C 
ATOM     13  N   UNL     1       5.907   2.739  -1.113  0.00  0.00    -0.336 N 
ATOM     14  H   UNL     1       6.737   2.058  -0.874  0.00  0.00    +0.147 HD
ENDROOT
BRANCH  12  15
ATOM     15  C   UNL     1       3.738   2.693  -0.020  0.00  0.00    -0.023 A 
ATOM     16  C   UNL     1       3.098   2.410  -1.212  0.00  0.00    +0.009 A 
ATOM     17  C   UNL     1       1.843   1.830  -1.205  0.00  0.00    +0.049 A 
ATOM     18  C   UNL     1       1.224   1.533  -0.001  0.00  0.00    +0.158 A 
ATOM     19  C   UNL     1       1.866   1.824   1.198  0.00  0.00    +0.162 A 
ATOM     20  C   UNL     1       3.126   2.399   1.184  0.00  0.00    +0.054 A 
BRANCH  19  21
ATOM     21  O   UNL     1       1.260   1.539   2.382  0.00  0.00    -0.491 OA
ATOM     22  C   UNL     1       1.978   1.865   3.574  0.00  0.00    +0.277 C 
ENDBRANCH  19  21
BRANCH  18  23
ATOM     23  O   UNL     1      -0.011   0.963   0.007  0.00  0.00    -0.503 OA
ATOM     24  H   UNL     1      -0.501   0.727   0.963  0.00  0.00    +0.292 HD
ENDBRANCH  18  23
ENDBRANCH  12  15
BRANCH   1  25
ATOM     25  S   UNL     1       4.597   4.014  -6.731  0.00  0.00    +0.059 S 
ATOM     26  O   UNL     1       4.681   2.793  -7.453  0.00  0.00    -0.153 OA
ATOM     27  O   UNL     1       3.414   4.802  -6.702  0.00  0.00    -0.153 OA
BRANCH  25  28
ATOM     28  N   UNL     1       5.802   4.991  -7.310  0.00  0.00    -0.187 NA
ATOM     29  H   UNL     1       5.607   6.066  -7.440  0.00  0.00    +0.148 HD
BRANCH  28  30
ATOM     30  C   UNL     1       7.166   4.473  -7.438  0.00  0.00    +0.073 C 
ATOM     31  C   UNL     1       7.970   4.840  -6.188  0.00  0.00    +0.025 C 
BRANCH  30  33
ATOM     32  C   UNL     1       7.102   4.619  -9.931  0.00  0.00    +0.005 C 
ATOM     33  C   UNL     1       7.832   5.088  -8.671  0.00  0.00    +0.017 C 
ENDBRANCH  30  33
ENDBRANCH  28  30
ENDBRANCH  25  28
ENDBRANCH   1  25
TORSDOF 7
