REMARK  Name = ZINC63730260
REMARK  11 active torsions:
REMARK  status: ('A' for Active; 'I' for Inactive)
REMARK    1  A    between atoms: C_1  and  C_2
REMARK    2  A    between atoms: C_5  and  C_13
REMARK    3  A    between atoms: C_11  and  C_12
REMARK    4  A    between atoms: C_17  and  S_26
REMARK    5  A    between atoms: N_18  and  C_19
REMARK    6  A    between atoms: C_19  and  C_20
REMARK    7  A    between atoms: S_26  and  C_27
REMARK    8  A    between atoms: C_27  and  C_28
REMARK    9  A    between atoms: N_30  and  C_31
REMARK   10  A    between atoms: C_34  and  C_37
REMARK   11  A    between atoms: C_37  and  C_39
REMARK                            x       y       z     vdW  Elec       q    Type
REMARK                         _______ _______ _______ _____ _____    ______ ____
ROOT
ATOM      1  C   UNL     1      -4.777  -1.641   1.314  0.00  0.00    +0.208 C 
ATOM      2  N   UNL     1      -5.180  -2.064   2.666  0.00  0.00    -0.242 N 
ATOM      3  N   UNL     1      -6.033  -3.161   2.493  0.00  0.00    -0.162 NA
ATOM      4  C   UNL     1      -6.191  -3.445   1.245  0.00  0.00    +0.176 C 
ATOM      5  N   UNL     1      -5.474  -2.584   0.422  0.00  0.00    -0.281 N 
ATOM      6  H   UNL     1      -4.908  -1.664   3.507  0.00  0.00    +0.170 HD
ENDROOT
BRANCH   1  11
ATOM      7  C   UNL     1      -0.591  -5.278   1.227  0.00  0.00    +0.046 C 
ATOM      8  C   UNL     1      -0.329  -3.795   1.173  0.00  0.00    -0.024 C 
ATOM      9  C   UNL     1      -1.230  -2.842   1.442  0.00  0.00    -0.014 C 
ATOM     10  C   UNL     1      -2.626  -2.853   1.635  0.00  0.00    +0.013 C 
ATOM     11  C   UNL     1      -3.284  -1.759   1.145  0.00  0.00    -0.008 C 
ATOM     12  C   UNL     1      -2.542  -0.706   0.459  0.00  0.00    +0.005 C 
ATOM     13  C   UNL     1      -1.212  -0.580   0.548  0.00  0.00    +0.004 C 
ATOM     14  C   UNL     1      -0.452  -1.532   1.425  0.00  0.00    +0.159 C 
ATOM     15  N   UNL     1       0.865  -1.901   0.926  0.00  0.00    -0.276 NA
ATOM     16  C   UNL     1       0.907  -3.198   0.835  0.00  0.00    +0.037 C 
ATOM     17  C   UNL     1       2.128  -3.974   0.413  0.00  0.00    +0.065 C 
ENDBRANCH   1  11
BRANCH   5  18
ATOM     18  C   UNL     1      -5.419  -2.608  -1.042  0.00  0.00    +0.144 C 
BRANCH  18  19
ATOM     19  C   UNL     1      -4.323  -3.541  -1.488  0.00  0.00    -0.030 A 
ATOM     20  C   UNL     1      -3.059  -3.047  -1.751  0.00  0.00    +0.005 A 
ATOM     21  C   UNL     1      -2.054  -3.902  -2.161  0.00  0.00    +0.000 A 
ATOM     22  C   UNL     1      -2.312  -5.253  -2.307  0.00  0.00    +0.000 A 
ATOM     23  C   UNL     1      -3.576  -5.747  -2.043  0.00  0.00    +0.000 A 
ATOM     24  C   UNL     1      -4.580  -4.892  -1.630  0.00  0.00    +0.005 A 
ENDBRANCH  18  19
ENDBRANCH   5  18
BRANCH   4  25
ATOM     25  S   UNL     1      -7.197  -4.764   0.653  0.00  0.00    -0.080 S 
BRANCH  25  26
ATOM     26  C   UNL     1      -7.867  -5.516   2.161  0.00  0.00    +0.173 C 
BRANCH  26  27
ATOM     27  C   UNL     1      -8.758  -6.674   1.792  0.00  0.00    +0.227 C 
ATOM     28  O   UNL     1      -8.925  -6.964   0.626  0.00  0.00    -0.275 OA
ATOM     29  N   UNL     1      -9.370  -7.388   2.758  0.00  0.00    -0.285 N 
ATOM     30  H   UNL     1      -9.187  -7.199   3.691  0.00  0.00    +0.155 HD
BRANCH  29  31
ATOM     31  C   UNL     1     -10.267  -8.399   2.415  0.00  0.00    +0.033 A 
ATOM     32  C   UNL     1     -11.399  -8.615   3.195  0.00  0.00    +0.024 A 
ATOM     33  C   UNL     1     -12.284  -9.607   2.861  0.00  0.00    +0.013 A 
ATOM     34  C   UNL     1     -12.047 -10.405   1.734  0.00  0.00    +0.017 A 
ATOM     35  C   UNL     1     -10.905 -10.183   0.953  0.00  0.00    +0.013 A 
ATOM     36  C   UNL     1     -10.029  -9.185   1.291  0.00  0.00    +0.024 A 
BRANCH  34  37
ATOM     37  C   UNL     1     -12.991 -11.470   1.373  0.00  0.00    +0.160 C 
ATOM     38  O   UNL     1     -13.979 -11.660   2.051  0.00  0.00    -0.292 OA
ATOM     39  C   UNL     1     -12.733 -12.326   0.160  0.00  0.00    +0.091 C 
ENDBRANCH  34  37
ENDBRANCH  29  31
ENDBRANCH  26  27
ENDBRANCH  25  26
ENDBRANCH   4  25
TORSDOF 8
