REMARK  Name = ZINC08242675
REMARK  6 active torsions:
REMARK  status: ('A' for Active; 'I' for Inactive)
REMARK    1  A    between atoms: C_1  and  C_2
REMARK    2  A    between atoms: C_2  and  C_4
REMARK    3  A    between atoms: C_2  and  O_19
REMARK    4  A    between atoms: N_6  and  N_7
REMARK    5  A    between atoms: C_8  and  C_10
REMARK    6  A    between atoms: O_19  and  C_20
REMARK                            x       y       z     vdW  Elec       q    Type
REMARK                         _______ _______ _______ _____ _____    ______ ____
ROOT
ATOM      1  C   UNL     1       2.370  -3.932  -0.957  0.00  0.00    +0.270 C 
ATOM      2  O   UNL     1       1.284  -4.261  -1.383  0.00  0.00    -0.270 OA
ATOM      3  N   UNL     1       3.452  -4.695  -1.207  0.00  0.00    -0.231 N 
ATOM      4  H   UNL     1       4.321  -4.432  -0.866  0.00  0.00    +0.173 HD
ENDROOT
BRANCH   3   5
ATOM      5  N   UNL     1       3.322  -5.870  -1.960  0.00  0.00    -0.230 N 
ATOM      6  C   UNL     1       4.404  -6.633  -2.210  0.00  0.00    +0.260 C 
ATOM      7  O   UNL     1       5.493  -6.303  -1.782  0.00  0.00    -0.269 OA
ATOM      8  H   UNL     1       2.453  -6.133  -2.301  0.00  0.00    +0.173 HD
BRANCH   6   9
ATOM      9  C   UNL     1       4.266  -7.871  -3.003  0.00  0.00    +0.042 A 
ATOM     10  C   UNL     1       3.015  -8.255  -3.490  0.00  0.00    +0.017 A 
ATOM     11  C   UNL     1       2.889  -9.407  -4.235  0.00  0.00    +0.050 A 
ATOM     12  C   UNL     1       4.002 -10.196  -4.494  0.00  0.00    +0.166 A 
ATOM     13  C   UNL     1       5.254  -9.821  -4.005  0.00  0.00    +0.167 A 
ATOM     14  C   UNL     1       5.387  -8.664  -3.263  0.00  0.00    +0.062 A 
ATOM     15  O   UNL     1       6.171 -10.755  -4.394  0.00  0.00    -0.453 OA
ATOM     16  C   UNL     1       5.402 -11.912  -4.774  0.00  0.00    +0.466 C 
ATOM     17  O   UNL     1       4.137 -11.363  -5.187  0.00  0.00    -0.453 OA
ENDBRANCH   6   9
ENDBRANCH   3   5
BRANCH   1  19
ATOM     18  C   UNL     1       3.051  -3.011   1.243  0.00  0.00    +0.062 C 
ATOM     19  C   UNL     1       2.511  -2.668  -0.147  0.00  0.00    +0.257 C 
BRANCH  19  20
ATOM     20  O   UNL     1       1.234  -2.039  -0.020  0.00  0.00    -0.480 OA
BRANCH  20  21
ATOM     21  C   UNL     1       1.226  -0.699   0.200  0.00  0.00    +0.123 A 
ATOM     22  C   UNL     1       2.419  -0.021   0.404  0.00  0.00    +0.046 A 
ATOM     23  C   UNL     1       2.409   1.342   0.627  0.00  0.00    +0.005 A 
ATOM     24  C   UNL     1       1.211   2.032   0.648  0.00  0.00    +0.015 A 
ATOM     25  C   UNL     1       0.019   1.359   0.446  0.00  0.00    +0.021 A 
ATOM     26  C   UNL     1       0.025  -0.005   0.222  0.00  0.00    +0.061 A 
ATOM     27 BR   UNL     1      -1.618   2.305   0.475  0.00  0.00    -0.050 Br
ENDBRANCH  20  21
ENDBRANCH  19  20
ENDBRANCH   1  19
TORSDOF 5
