REMARK  Name = ZINC36831635
REMARK  7 active torsions:
REMARK  status: ('A' for Active; 'I' for Inactive)
REMARK    1  A    between atoms: C_4  and  N_25
REMARK    2  A    between atoms: C_5  and  N_7
REMARK    3  A    between atoms: C_8  and  C_10
REMARK    4  A    between atoms: C_14  and  N_16
REMARK    5  A    between atoms: C_17  and  C_19
REMARK    6  A    between atoms: N_25  and  S_26
REMARK    7  A    between atoms: S_26  and  C_29
REMARK                            x       y       z     vdW  Elec       q    Type
REMARK                         _______ _______ _______ _____ _____    ______ ____
ROOT
ATOM      1  N   UNL     1       1.225  -2.073   0.001  0.00  0.00    -0.280 N 
ATOM      2  C   UNL     1       0.075  -2.768   0.107  0.00  0.00    +0.248 C 
ATOM      3  O   UNL     1      -0.990  -2.182   0.123  0.00  0.00    -0.270 OA
ATOM      4  H   UNL     1       2.068  -2.543  -0.093  0.00  0.00    +0.155 HD
ENDROOT
BRANCH   1   9
ATOM      5  C   UNL     1       0.138   1.376   0.674  0.00  0.00    +0.002 A 
ATOM      6  C   UNL     1       1.155   2.098   0.077  0.00  0.00    +0.002 A 
ATOM      7  C   UNL     1       2.199   1.441  -0.547  0.00  0.00    +0.028 A 
ATOM      8  C   UNL     1       2.228   0.054  -0.576  0.00  0.00    +0.095 A 
ATOM      9  C   UNL     1       1.202  -0.673   0.027  0.00  0.00    +0.058 A 
ATOM     10  C   UNL     1       0.158  -0.005   0.650  0.00  0.00    +0.025 A 
BRANCH   8  11
ATOM     11  N   UNL     1       3.284  -0.612  -1.207  0.00  0.00    -0.096 NA
BRANCH  11  12
ATOM     12  S   UNL     1       4.501   0.254  -1.922  0.00  0.00    +0.098 S 
ATOM     13  O   UNL     1       3.918   0.944  -3.019  0.00  0.00    -0.148 OA
ATOM     14  O   UNL     1       5.189   0.927  -0.877  0.00  0.00    -0.148 OA
BRANCH  12  15
ATOM     15  C   UNL     1       5.636  -0.908  -2.605  0.00  0.00    +0.148 A 
ATOM     16  C   UNL     1       5.651  -1.460  -3.843  0.00  0.00    +0.037 A 
ATOM     17  C   UNL     1       6.650  -2.360  -4.164  0.00  0.00    +0.010 A 
ATOM     18  C   UNL     1       7.585  -2.664  -3.230  0.00  0.00    +0.047 A 
ATOM     19  S   UNL     1       7.068  -1.659  -1.848  0.00  0.00    -0.077 S 
ENDBRANCH  12  15
ENDBRANCH  11  12
ENDBRANCH   8  11
ENDBRANCH   1   9
BRANCH   2  20
ATOM     20  C   UNL     1       0.108  -4.243   0.204  0.00  0.00    +0.039 A 
ATOM     21  C   UNL     1       1.331  -4.918   0.192  0.00  0.00    +0.013 A 
ATOM     22  C   UNL     1       1.359  -6.294   0.282  0.00  0.00    +0.003 A 
ATOM     23  C   UNL     1       0.180  -7.010   0.385  0.00  0.00    +0.023 A 
ATOM     24  C   UNL     1      -1.041  -6.347   0.397  0.00  0.00    +0.034 A 
ATOM     25  C   UNL     1      -1.080  -4.964   0.313  0.00  0.00    +0.036 A 
BRANCH  24  26
ATOM     26  N   UNL     1      -2.231  -7.076   0.500  0.00  0.00    -0.283 N 
ATOM     27  C   UNL     1      -3.336  -6.658  -0.149  0.00  0.00    +0.246 C 
ATOM     28  O   UNL     1      -3.323  -5.606  -0.751  0.00  0.00    -0.273 OA
ATOM     29  H   UNL     1      -2.261  -7.882   1.039  0.00  0.00    +0.155 HD
BRANCH  27  30
ATOM     30  C   UNL     1      -4.587  -7.498  -0.126  0.00  0.00    +0.204 C 
ATOM     31  C   UNL     1      -4.335  -8.832  -0.861  0.00  0.00    +0.043 C 
ATOM     32  C   UNL     1      -5.673  -9.048  -1.619  0.00  0.00    +0.031 C 
ATOM     33  C   UNL     1      -6.061  -7.586  -1.953  0.00  0.00    +0.161 C 
ATOM     34  O   UNL     1      -5.643  -6.816  -0.812  0.00  0.00    -0.367 OA
ENDBRANCH  27  30
ENDBRANCH  24  26
ENDBRANCH   2  20
TORSDOF 7
