REMARK  Name = ZINC45829555
REMARK  7 active torsions:
REMARK  status: ('A' for Active; 'I' for Inactive)
REMARK    1  A    between atoms: C_1  and  C_2
REMARK    2  A    between atoms: C_4  and  C_14
REMARK    3  A    between atoms: N_16  and  N_17
REMARK    4  A    between atoms: C_18  and  C_20
REMARK    5  A    between atoms: C_23  and  C_26
REMARK    6  A    between atoms: C_26  and  S_27
REMARK    7  A    between atoms: S_27  and  C_28
REMARK                            x       y       z     vdW  Elec       q    Type
REMARK                         _______ _______ _______ _____ _____    ______ ____
ROOT
ATOM      1  N   UNL     1      -2.786   1.722   2.838  0.00  0.00    -0.230 N 
ATOM      2  C   UNL     1      -3.100   3.024   2.988  0.00  0.00    +0.260 C 
ATOM      3  O   UNL     1      -2.992   3.787   2.048  0.00  0.00    -0.269 OA
ATOM      4  H   UNL     1      -2.872   1.113   3.588  0.00  0.00    +0.173 HD
ENDROOT
BRANCH   2   5
ATOM      5  C   UNL     1      -3.577   3.524   4.295  0.00  0.00    +0.038 A 
ATOM      6  C   UNL     1      -3.697   2.651   5.378  0.00  0.00    +0.013 A 
ATOM      7  C   UNL     1      -4.142   3.124   6.595  0.00  0.00    +0.005 A 
ATOM      8  C   UNL     1      -4.469   4.460   6.744  0.00  0.00    -0.037 A 
ATOM      9  C   UNL     1      -4.353   5.330   5.674  0.00  0.00    +0.005 A 
ATOM     10  C   UNL     1      -3.903   4.872   4.454  0.00  0.00    +0.013 A 
BRANCH   8  11
ATOM     11  C   UNL     1      -4.955   4.970   8.076  0.00  0.00    +0.112 C 
BRANCH  11  12
ATOM     12  S   UNL     1      -3.538   5.519   9.067  0.00  0.00    -0.083 S 
BRANCH  12  13
ATOM     13  C   UNL     1      -4.262   6.078  10.573  0.00  0.00    +0.168 A 
ATOM     14  N   UNL     1      -3.571   6.592  11.633  0.00  0.00    -0.333 N 
ATOM     15  H   UNL     1      -2.610   6.713  11.689  0.00  0.00    +0.168 HD
ATOM     16  C   UNL     1      -4.498   6.910  12.612  0.00  0.00    +0.067 A 
ATOM     17  C   UNL     1      -4.404   7.453  13.885  0.00  0.00    +0.028 A 
ATOM     18  C   UNL     1      -5.546   7.652  14.633  0.00  0.00    +0.002 A 
ATOM     19  C   UNL     1      -6.789   7.312  14.121  0.00  0.00    +0.002 A 
ATOM     20  C   UNL     1      -6.901   6.772  12.859  0.00  0.00    +0.030 A 
ATOM     21  C   UNL     1      -5.754   6.564  12.089  0.00  0.00    +0.090 A 
ATOM     22  N   UNL     1      -5.545   6.068  10.841  0.00  0.00    -0.222 NA
ENDBRANCH  12  13
ENDBRANCH  11  12
ENDBRANCH   8  11
ENDBRANCH   2   5
BRANCH   1  25
ATOM     23  C   UNL     1      -2.019  -0.054   1.450  0.00  0.00    +0.274 C 
ATOM     24  O   UNL     1      -2.214  -0.833   2.359  0.00  0.00    -0.270 OA
ATOM     25  N   UNL     1      -2.334   1.248   1.600  0.00  0.00    -0.231 N 
ATOM     26  H   UNL     1      -2.247   1.857   0.850  0.00  0.00    +0.173 HD
BRANCH  23  29
ATOM     27  C   UNL     1      -0.003   1.516   0.023  0.00  0.00    +0.056 C 
ATOM     28  C   UNL     1       0.007  -0.013   0.009  0.00  0.00    +0.220 C 
ATOM     29  C   UNL     1      -1.426  -0.542   0.154  0.00  0.00    +0.300 C 
ATOM     30  O   UNL     1      -1.379  -1.973   0.151  0.00  0.00    -0.472 OA
ATOM     31  C   UNL     1      -0.435  -2.555   0.941  0.00  0.00    +0.163 A 
ATOM     32  C   UNL     1      -0.557  -3.896   1.271  0.00  0.00    +0.049 A 
ATOM     33  C   UNL     1       0.395  -4.502   2.069  0.00  0.00    +0.004 A 
ATOM     34  C   UNL     1       1.471  -3.773   2.540  0.00  0.00    +0.004 A 
ATOM     35  C   UNL     1       1.598  -2.436   2.216  0.00  0.00    +0.049 A 
ATOM     36  C   UNL     1       0.645  -1.821   1.417  0.00  0.00    +0.163 A 
ATOM     37  O   UNL     1       0.779  -0.501   1.112  0.00  0.00    -0.481 OA
ENDBRANCH  23  29
ENDBRANCH   1  25
TORSDOF 6
