REMARK  Name = ZINC01148530
REMARK  8 active torsions:
REMARK  status: ('A' for Active; 'I' for Inactive)
REMARK    1  A    between atoms: C_1  and  C_2
REMARK    2  A    between atoms: N_5  and  C_7
REMARK    3  A    between atoms: C_14  and  N_31
REMARK    4  A    between atoms: C_15  and  C_29
REMARK    5  A    between atoms: C_16  and  C_18
REMARK    6  A    between atoms: C_20  and  O_27
REMARK    7  A    between atoms: C_21  and  O_26
REMARK    8  A    between atoms: O_27  and  C_28
REMARK                            x       y       z     vdW  Elec       q    Type
REMARK                         _______ _______ _______ _____ _____    ______ ____
ROOT
ATOM      1  C   UNL     1       4.638  -1.667   0.889  0.00  0.00    +0.068 C 
ATOM      2  C   UNL     1       3.931  -0.434   0.387  0.00  0.00    +0.068 A 
ATOM      3  C   UNL     1       4.489   0.556  -0.411  0.00  0.00    +0.050 A 
ATOM      4  C   UNL     1       3.529   1.501  -0.648  0.00  0.00    +0.230 A 
ATOM      5  N   UNL     1       2.404   1.105  -0.014  0.00  0.00    -0.200 N 
ATOM      6  N   UNL     1       2.683  -0.109   0.633  0.00  0.00    -0.168 NA
ATOM      7  O   UNL     1       3.759   2.607  -1.398  0.00  0.00    -0.423 OA
ATOM      8  C   UNL     1       5.041   2.907  -1.691  0.00  0.00    +0.200 C 
ATOM      9  C   UNL     1       6.073   2.053  -1.512  0.00  0.00    +0.098 C 
ATOM     10  C   UNL     1       5.886   0.660  -0.965  0.00  0.00    +0.103 C 
ENDROOT
BRANCH  10  11
ATOM     11  C   UNL     1       6.072  -0.349  -2.068  0.00  0.00    -0.011 A 
ATOM     12  C   UNL     1       5.246  -0.320  -3.176  0.00  0.00    +0.055 A 
ATOM     13  C   UNL     1       5.418  -1.244  -4.194  0.00  0.00    +0.163 A 
ATOM     14  C   UNL     1       6.417  -2.208  -4.094  0.00  0.00    +0.174 A 
ATOM     15  C   UNL     1       7.240  -2.236  -2.979  0.00  0.00    +0.081 A 
ATOM     16  C   UNL     1       7.066  -1.306  -1.967  0.00  0.00    +0.063 A 
ATOM     17 CL   UNL     1       8.097  -1.342  -0.571  0.00  0.00    -0.082 Cl
ATOM     18 BR   UNL     1       8.598  -3.543  -2.838  0.00  0.00    -0.045 Br
BRANCH  14  19
ATOM     19  O   UNL     1       6.586  -3.120  -5.088  0.00  0.00    -0.503 OA
ATOM     20  H   UNL     1       6.069  -3.929  -4.972  0.00  0.00    +0.292 HD
ENDBRANCH  14  19
BRANCH  13  21
ATOM     21  O   UNL     1       4.609  -1.213  -5.287  0.00  0.00    -0.491 OA
ATOM     22  C   UNL     1       3.605  -0.197  -5.322  0.00  0.00    +0.277 C 
ENDBRANCH  13  21
ENDBRANCH  10  11
BRANCH   5  23
ATOM     23  C   UNL     1       1.180   1.787   0.000  0.00  0.00    +0.069 A 
ATOM     24  C   UNL     1      -0.013   1.076   0.008  0.00  0.00    +0.028 A 
ATOM     25  C   UNL     1      -1.218   1.751   0.017  0.00  0.00    +0.002 A 
ATOM     26  C   UNL     1      -1.237   3.133   0.030  0.00  0.00    +0.000 A 
ATOM     27  C   UNL     1      -0.051   3.845   0.022  0.00  0.00    +0.002 A 
ATOM     28  C   UNL     1       1.157   3.175   0.008  0.00  0.00    +0.028 A 
ENDBRANCH   5  23
BRANCH   8  29
ATOM     29  N   UNL     1       5.313   4.153  -2.200  0.00  0.00    -0.328 N 
ATOM     30  H   UNL     1       4.593   4.788  -2.339  0.00  0.00    +0.145 HD
ATOM     31  H   UNL     1       6.225   4.398  -2.420  0.00  0.00    +0.145 HD
ENDBRANCH   8  29
BRANCH   9  32
ATOM     32  C   UNL     1       7.394   2.487  -1.856  0.00  0.00    +0.101 C 
ATOM     33  N   UNL     1       8.442   2.832  -2.128  0.00  0.00    -0.191 NA
ENDBRANCH   9  32
TORSDOF 6
