REMARK  Name = ZINC62824347
REMARK  4 active torsions:
REMARK  status: ('A' for Active; 'I' for Inactive)
REMARK    1  A    between atoms: C_1  and  C_2
REMARK    2  A    between atoms: C_7  and  C_10
REMARK    3  A    between atoms: C_12  and  C_15
REMARK    4  A    between atoms: C_20  and  N_21
REMARK                            x       y       z     vdW  Elec       q    Type
REMARK                         _______ _______ _______ _____ _____    ______ ____
ROOT
ATOM      1  C   UNL     1       1.469  -2.526   2.517  0.00  0.00    +0.175 A 
ATOM      2  N   UNL     1       2.537  -3.325   2.490  0.00  0.00    -0.191 NA
ATOM      3  C   UNL     1       2.989  -3.510   3.712  0.00  0.00    +0.260 A 
ATOM      4  O   UNL     1       2.202  -2.819   4.555  0.00  0.00    -0.333 OA
ATOM      5  N   UNL     1       1.222  -2.182   3.749  0.00  0.00    -0.061 NA
ENDROOT
BRANCH   1  11
ATOM      6  C   UNL     1      -0.042   1.413  -0.126  0.00  0.00    +0.007 C 
ATOM      7  C   UNL     1      -0.084  -0.113  -0.019  0.00  0.00    -0.013 C 
ATOM      8  C   UNL     1      -1.535  -0.574   0.128  0.00  0.00    +0.003 C 
ATOM      9  C   UNL     1      -1.577  -2.100   0.235  0.00  0.00    +0.001 C 
ATOM     10  C   UNL     1      -0.774  -2.547   1.458  0.00  0.00    +0.011 C 
ATOM     11  C   UNL     1       0.678  -2.085   1.312  0.00  0.00    +0.061 C 
ATOM     12  C   UNL     1       0.719  -0.560   1.204  0.00  0.00    +0.014 C 
ENDBRANCH   1  11
BRANCH   3  13
ATOM     13  C   UNL     1       4.154  -4.333   4.090  0.00  0.00    +0.061 A 
ATOM     14  C   UNL     1       5.358  -4.208   3.393  0.00  0.00    +0.029 A 
ATOM     15  C   UNL     1       6.444  -4.979   3.751  0.00  0.00    +0.014 A 
ATOM     16  C   UNL     1       6.347  -5.879   4.801  0.00  0.00    +0.016 A 
ATOM     17  C   UNL     1       5.163  -6.013   5.499  0.00  0.00    +0.024 A 
ATOM     18  C   UNL     1       4.061  -5.240   5.156  0.00  0.00    +0.037 A 
ATOM     19  I   UNL     1       8.248  -4.790   2.704  0.00  0.00    -0.044 I 
BRANCH  18  20
ATOM     20  N   UNL     1       2.870  -5.370   5.861  0.00  0.00    -0.357 N 
ATOM     21  H   UNL     1       2.075  -4.902   5.561  0.00  0.00    +0.142 HD
ATOM     22  H   UNL     1       2.833  -5.929   6.653  0.00  0.00    +0.142 HD
ENDBRANCH  18  20
ENDBRANCH   3  13
TORSDOF 3
