REMARK  Name = ZINC41006503
REMARK  10 active torsions:
REMARK  status: ('A' for Active; 'I' for Inactive)
REMARK    1  A    between atoms: C_1  and  C_2
REMARK    2  A    between atoms: C_7  and  N_8
REMARK    3  A    between atoms: C_9  and  C_11
REMARK    4  A    between atoms: C_13  and  C_33
REMARK    5  A    between atoms: C_15  and  C_23
REMARK    6  A    between atoms: C_17  and  C_21
REMARK    7  A    between atoms: C_17  and  O_22
REMARK    8  A    between atoms: N_25  and  C_26
REMARK    9  A    between atoms: C_31  and  C_32
REMARK   10  A    between atoms: C_38  and  C_39
REMARK                            x       y       z     vdW  Elec       q    Type
REMARK                         _______ _______ _______ _____ _____    ______ ____
ROOT
ATOM      1  C   UNL     1       0.661  -0.217   5.394  0.00  0.00    +0.149 C 
ATOM      2  C   UNL     1       0.203  -1.416   6.230  0.00  0.00    +0.053 C 
ATOM      3  C   UNL     1      -1.162  -1.892   5.730  0.00  0.00    +0.115 C 
ATOM      4  C   UNL     1      -2.205  -0.794   5.943  0.00  0.00    +0.082 C 
ATOM      5  C   UNL     1      -1.837   0.429   5.095  0.00  0.00    +0.110 C 
ATOM      6  C   UNL     1      -0.417   0.843   5.433  0.00  0.00    +0.148 C 
ATOM      7  O   UNL     1      -0.154   1.984   5.728  0.00  0.00    -0.296 OA
ATOM      8  C   UNL     1      -3.583  -1.310   5.523  0.00  0.00    +0.042 C 
ENDROOT
BRANCH   2   9
ATOM      9  C   UNL     1       1.205  -2.533   6.099  0.00  0.00    -0.028 A 
ATOM     10  C   UNL     1       1.251  -3.288   4.945  0.00  0.00    +0.005 A 
ATOM     11  C   UNL     1       2.171  -4.315   4.822  0.00  0.00    +0.000 A 
ATOM     12  C   UNL     1       3.050  -4.592   5.854  0.00  0.00    +0.001 A 
ATOM     13  C   UNL     1       3.015  -3.846   7.014  0.00  0.00    +0.015 A 
ATOM     14  C   UNL     1       2.093  -2.804   7.142  0.00  0.00    +0.067 A 
BRANCH  14  15
ATOM     15  C   UNL     1       2.054  -1.997   8.377  0.00  0.00    +0.387 C 
ATOM     16  O   UNL     1       2.894  -2.172   9.249  0.00  0.00    -0.241 OA
ATOM     17  O   UNL     1       1.182  -1.153   8.528  0.00  0.00    -0.241 OA
ENDBRANCH  14  15
ENDBRANCH   2   9
BRANCH   1  19
ATOM     18  N   UNL     1       0.388   0.075   2.953  0.00  0.00    -0.285 N 
ATOM     19  C   UNL     1       0.892  -0.652   3.969  0.00  0.00    +0.228 C 
ATOM     20  O   UNL     1       1.530  -1.657   3.738  0.00  0.00    -0.275 OA
ATOM     21  H   UNL     1      -0.064   0.914   3.134  0.00  0.00    +0.155 HD
BRANCH  18  28
ATOM     22  C   UNL     1      -1.508   0.970   1.028  0.00  0.00    +0.045 C 
ATOM     23  C   UNL     1      -0.385   0.033   0.665  0.00  0.00    -0.029 A 
ATOM     24  C   UNL     1      -0.250  -0.413  -0.635  0.00  0.00    +0.005 A 
ATOM     25  C   UNL     1       0.780  -1.273  -0.970  0.00  0.00    +0.000 A 
ATOM     26  C   UNL     1       1.678  -1.689  -0.004  0.00  0.00    +0.002 A 
ATOM     27  C   UNL     1       1.549  -1.247   1.298  0.00  0.00    +0.023 A 
ATOM     28  C   UNL     1       0.519  -0.379   1.635  0.00  0.00    +0.036 A 
ENDBRANCH  18  28
ENDBRANCH   1  19
BRANCH   3  29
ATOM     29  C   UNL     1      -1.071  -2.217   4.261  0.00  0.00    +0.224 C 
ATOM     30  O   UNL     1      -1.019  -1.323   3.444  0.00  0.00    -0.275 OA
ATOM     31  N   UNL     1      -1.048  -3.502   3.856  0.00  0.00    -0.285 N 
ATOM     32  H   UNL     1      -1.149  -4.217   4.503  0.00  0.00    +0.155 HD
BRANCH  31  33
ATOM     33  C   UNL     1      -0.879  -3.805   2.500  0.00  0.00    +0.036 A 
ATOM     34  C   UNL     1      -1.148  -2.845   1.534  0.00  0.00    +0.023 A 
ATOM     35  C   UNL     1      -0.980  -3.147   0.197  0.00  0.00    +0.002 A 
ATOM     36  C   UNL     1      -0.543  -4.404  -0.180  0.00  0.00    +0.000 A 
ATOM     37  C   UNL     1      -0.275  -5.363   0.780  0.00  0.00    +0.005 A 
ATOM     38  C   UNL     1      -0.435  -5.064   2.119  0.00  0.00    -0.029 A 
ATOM     39  C   UNL     1      -0.135  -6.107   3.165  0.00  0.00    +0.045 C 
ENDBRANCH  31  33
ENDBRANCH   3  29
BRANCH   4  40
ATOM     40  O   UNL     1      -2.234  -0.425   7.323  0.00  0.00    -0.388 OA
ATOM     41  H   UNL     1      -2.875   0.269   7.532  0.00  0.00    +0.210 HD
ENDBRANCH   4  40
TORSDOF 7
