REMARK  Name = ZINC00092501
REMARK  6 active torsions:
REMARK  status: ('A' for Active; 'I' for Inactive)
REMARK    1  A    between atoms: C_1  and  C_2
REMARK    2  A    between atoms: C_2  and  C_3
REMARK    3  A    between atoms: C_2  and  C_4
REMARK    4  A    between atoms: C_7  and  C_10
REMARK    5  A    between atoms: C_7  and  O_17
REMARK    6  A    between atoms: C_10  and  O_16
REMARK                            x       y       z     vdW  Elec       q    Type
REMARK                         _______ _______ _______ _____ _____    ______ ____
ROOT
ATOM      1  C   UNL     1       1.423   1.615  -0.003  0.00  0.00    +0.089 C 
ATOM      2  C   UNL     1       2.214   1.044   1.192  0.00  0.00    +0.090 C 
ATOM      3  C   UNL     1       2.644   2.289   2.000  0.00  0.00    +0.217 C 
ATOM      4  O   UNL     1       2.621   3.360   1.028  0.00  0.00    -0.262 OA
ATOM      5  N   UNL     1       1.431   3.084   0.194  0.00  0.00    -0.194 NA
ATOM      6  H   UNL     1       1.487   3.567  -0.690  0.00  0.00    +0.154 HD
ENDROOT
BRANCH   3   7
ATOM      7  C   UNL     1       4.054   2.102   2.564  0.00  0.00    +0.121 C 
ATOM      8  C   UNL     1       4.077   0.880   3.485  0.00  0.00    +0.040 C 
ATOM      9  C   UNL     1       5.487   0.694   4.049  0.00  0.00    +0.003 C 
ATOM     10  C   UNL     1       5.887   1.939   4.843  0.00  0.00    +0.000 C 
ATOM     11  C   UNL     1       5.864   3.160   3.922  0.00  0.00    +0.003 C 
ATOM     12  C   UNL     1       4.454   3.347   3.358  0.00  0.00    +0.040 C 
BRANCH   7  13
ATOM     13  O   UNL     1       4.975   1.906   1.489  0.00  0.00    -0.383 OA
ATOM     14  H   UNL     1       5.890   1.780   1.774  0.00  0.00    +0.210 HD
ENDBRANCH   7  13
ENDBRANCH   3   7
BRANCH   1  16
ATOM     15  C   UNL     1      -0.753   1.593  -1.232  0.00  0.00    +0.009 C 
ATOM     16  C   UNL     1      -0.013   1.086   0.008  0.00  0.00    +0.002 C 
ATOM     17  C   UNL     1      -0.729   1.579   1.267  0.00  0.00    +0.009 C 
ENDBRANCH   1  16
BRANCH   3  18
ATOM     18  O   UNL     1       1.714   2.548   3.054  0.00  0.00    -0.361 OA
ATOM     19  H   UNL     1       0.809   2.704   2.750  0.00  0.00    +0.213 HD
ENDBRANCH   3  18
TORSDOF 4
