REMARK  Name = ZINC36218732
REMARK  8 active torsions:
REMARK  status: ('A' for Active; 'I' for Inactive)
REMARK    1  A    between atoms: C_1  and  C_2
REMARK    2  A    between atoms: C_6  and  C_8
REMARK    3  A    between atoms: N_10  and  C_11
REMARK    4  A    between atoms: C_15  and  C_17
REMARK    5  A    between atoms: C_19  and  C_32
REMARK    6  A    between atoms: N_21  and  C_25
REMARK    7  A    between atoms: C_25  and  C_26
REMARK    8  A    between atoms: N_34  and  C_35
REMARK                            x       y       z     vdW  Elec       q    Type
REMARK                         _______ _______ _______ _____ _____    ______ ____
ROOT
ATOM      1  C   UNL     1       0.476  -9.037   4.681  0.00  0.00    +0.238 C 
ATOM      2  C   UNL     1      -1.054  -9.165   4.872  0.00  0.00    +0.211 C 
ATOM      3  N   UNL     1      -1.153 -10.229   5.891  0.00  0.00    -0.248 N 
ATOM      4  C   UNL     1       0.067 -10.390   6.437  0.00  0.00    +0.405 C 
ATOM      5  O   UNL     1       0.318 -11.216   7.292  0.00  0.00    -0.226 OA
ATOM      6  O   UNL     1       0.979  -9.540   5.934  0.00  0.00    -0.440 OA
ENDROOT
BRANCH   1  11
ATOM      7  C   UNL     1       1.449  -5.785   3.018  0.00  0.00    +0.034 A 
ATOM      8  C   UNL     1       1.609  -4.952   4.118  0.00  0.00    +0.023 A 
ATOM      9  C   UNL     1       1.402  -5.445   5.391  0.00  0.00    +0.002 A 
ATOM     10  C   UNL     1       1.035  -6.766   5.572  0.00  0.00    +0.007 A 
ATOM     11  C   UNL     1       0.875  -7.598   4.479  0.00  0.00    -0.003 A 
ATOM     12  C   UNL     1       1.075  -7.110   3.203  0.00  0.00    +0.030 A 
BRANCH   7  15
ATOM     13  C   UNL     1       2.626  -4.378   1.505  0.00  0.00    +0.248 C 
ATOM     14  O   UNL     1       3.255  -3.919   2.438  0.00  0.00    -0.270 OA
ATOM     15  N   UNL     1       1.659  -5.290   1.728  0.00  0.00    -0.281 N 
ATOM     16  H   UNL     1       1.108  -5.602   0.993  0.00  0.00    +0.155 HD
BRANCH  13  22
ATOM     17  C   UNL     1       5.271  -1.562  -1.653  0.00  0.00    +0.044 C 
ATOM     18  C   UNL     1       4.192  -2.583  -1.398  0.00  0.00    -0.050 A 
ATOM     19  C   UNL     1       3.474  -3.107  -2.459  0.00  0.00    +0.003 A 
ATOM     20  C   UNL     1       2.481  -4.044  -2.233  0.00  0.00    +0.001 A 
ATOM     21  C   UNL     1       2.201  -4.461  -0.949  0.00  0.00    +0.013 A 
ATOM     22  C   UNL     1       2.921  -3.936   0.125  0.00  0.00    +0.037 A 
ATOM     23  C   UNL     1       3.926  -2.995  -0.110  0.00  0.00    +0.016 A 
ENDBRANCH  13  22
ENDBRANCH   7  15
ENDBRANCH   1  11
BRANCH   2  24
ATOM     24  C   UNL     1      -1.722  -9.582   3.588  0.00  0.00    +0.242 C 
ATOM     25  O   UNL     1      -1.899 -10.758   3.350  0.00  0.00    -0.273 OA
ATOM     26  N   UNL     1      -2.123  -8.648   2.703  0.00  0.00    -0.284 N 
ATOM     27  H   UNL     1      -1.924  -7.712   2.862  0.00  0.00    +0.155 HD
BRANCH  26  28
ATOM     28  C   UNL     1      -2.827  -9.029   1.555  0.00  0.00    +0.036 A 
ATOM     29  C   UNL     1      -3.830  -8.210   1.050  0.00  0.00    +0.023 A 
ATOM     30  C   UNL     1      -4.523  -8.587  -0.083  0.00  0.00    +0.005 A 
ATOM     31  C   UNL     1      -4.221  -9.778  -0.717  0.00  0.00    +0.038 A 
ATOM     32  C   UNL     1      -3.223 -10.598  -0.217  0.00  0.00    +0.125 A 
ATOM     33  C   UNL     1      -2.521 -10.222   0.915  0.00  0.00    +0.061 A 
ATOM     34  F   UNL     1      -2.930 -11.761  -0.837  0.00  0.00    -0.205 F 
ENDBRANCH  26  28
ENDBRANCH   2  24
BRANCH   3  35
ATOM     35  C   UNL     1      -2.363 -10.976   6.245  0.00  0.00    +0.147 C 
BRANCH  35  36
ATOM     36  C   UNL     1      -3.028 -10.324   7.429  0.00  0.00    -0.030 A 
ATOM     37  C   UNL     1      -2.639 -10.662   8.712  0.00  0.00    +0.005 A 
ATOM     38  C   UNL     1      -3.249 -10.063   9.799  0.00  0.00    +0.000 A 
ATOM     39  C   UNL     1      -4.247  -9.127   9.603  0.00  0.00    +0.000 A 
ATOM     40  C   UNL     1      -4.634  -8.788   8.320  0.00  0.00    +0.000 A 
ATOM     41  C   UNL     1      -4.022  -9.383   7.233  0.00  0.00    +0.005 A 
ENDBRANCH  35  36
ENDBRANCH   3  35
TORSDOF 7
