REMARK  Name = ZINC39657144
REMARK  9 active torsions:
REMARK  status: ('A' for Active; 'I' for Inactive)
REMARK    1  A    between atoms: C_1  and  C_2
REMARK    2  A    between atoms: C_2  and  C_3
REMARK    3  A    between atoms: C_3  and  C_5
REMARK    4  A    between atoms: C_3  and  C_6
REMARK    5  A    between atoms: C_6  and  C_7
REMARK    6  A    between atoms: C_11  and  C_20
REMARK    7  A    between atoms: N_22  and  C_23
REMARK    8  A    between atoms: C_23  and  C_25
REMARK    9  A    between atoms: C_23  and  C_26
REMARK                            x       y       z     vdW  Elec       q    Type
REMARK                         _______ _______ _______ _____ _____    ______ ____
ROOT
ATOM      1  C   UNL     1       1.778  -2.509  -2.497  0.00  0.00    +0.216 C 
ATOM      2  O   UNL     1       2.176  -1.736  -3.343  0.00  0.00    -0.276 OA
ATOM      3  N   UNL     1       1.977  -3.833  -2.648  0.00  0.00    -0.300 N 
ATOM      4  C   UNL     1       1.562  -4.924  -1.734  0.00  0.00    +0.121 C 
ATOM      5  C   UNL     1       1.094  -6.061  -2.670  0.00  0.00    +0.100 C 
ATOM      6  C   UNL     1       1.819  -5.797  -4.000  0.00  0.00    -0.004 C 
ATOM      7  C   UNL     1       2.654  -4.529  -3.768  0.00  0.00    +0.115 C 
ATOM      8  C   UNL     1       0.806  -5.558  -5.115  0.00  0.00    -0.010 C 
ATOM      9  C   UNL     1       1.550  -5.355  -6.439  0.00  0.00    -0.082 C 
ATOM     10  N   UNL     1       2.361  -6.543  -6.733  0.00  0.00    +0.379 N 
ATOM     11  C   UNL     1       3.393  -6.712  -5.704  0.00  0.00    -0.082 C 
ATOM     12  C   UNL     1       2.728  -6.972  -4.349  0.00  0.00    -0.010 C 
ATOM     13  H   UNL     1       1.767  -7.358  -6.750  0.00  0.00    -0.086 HD
ATOM     14  H   UNL     1       2.802  -6.432  -7.634  0.00  0.00    -0.086 HD
ENDROOT
BRANCH   5  15
ATOM     15  C   UNL     1       1.495  -7.401  -2.108  0.00  0.00    +0.219 C 
ATOM     16  O   UNL     1       2.500  -7.501  -1.438  0.00  0.00    -0.275 OA
ATOM     17  N   UNL     1       0.735  -8.487  -2.350  0.00  0.00    -0.308 N 
ATOM     18  H   UNL     1      -0.070  -8.407  -2.886  0.00  0.00    +0.149 HD
BRANCH  17  19
ATOM     19  C   UNL     1       1.124  -9.790  -1.804  0.00  0.00    +0.100 C 
ATOM     20  C   UNL     1       0.597  -9.921  -0.373  0.00  0.00    +0.033 C 
BRANCH  19  21
ATOM     21  C   UNL     1       0.541 -10.887  -2.657  0.00  0.00    -0.027 A 
ATOM     22  C   UNL     1      -0.741 -10.763  -3.160  0.00  0.00    +0.006 A 
ATOM     23  C   UNL     1      -1.276 -11.769  -3.943  0.00  0.00    +0.015 A 
ATOM     24  C   UNL     1      -0.528 -12.899  -4.223  0.00  0.00    +0.018 A 
ATOM     25  C   UNL     1       0.754 -13.022  -3.719  0.00  0.00    +0.015 A 
ATOM     26  C   UNL     1       1.290 -12.014  -2.940  0.00  0.00    +0.006 A 
ATOM     27 BR   UNL     1      -1.260 -14.275  -5.293  0.00  0.00    -0.050 Br
ENDBRANCH  19  21
ENDBRANCH  17  19
ENDBRANCH   5  15
BRANCH   1  28
ATOM     28  C   UNL     1       1.062  -1.988  -1.278  0.00  0.00    +0.099 C 
BRANCH  28  29
ATOM     29  C   UNL     1       0.970  -0.463  -1.353  0.00  0.00    -0.006 C 
ATOM     30  C   UNL     1       0.092  -0.062  -2.540  0.00  0.00    +0.008 C 
BRANCH  29  32
ATOM     31  C   UNL     1       0.378   1.605  -0.082  0.00  0.00    +0.004 C 
ATOM     32  C   UNL     1       0.356   0.076  -0.060  0.00  0.00    +0.000 C 
ENDBRANCH  29  32
ENDBRANCH  28  29
ENDBRANCH   1  28
TORSDOF 6
