REMARK  Name = ZINC44784130
REMARK  4 active torsions:
REMARK  status: ('A' for Active; 'I' for Inactive)
REMARK    1  A    between atoms: C_6  and  N_7
REMARK    2  A    between atoms: C_8  and  C_10
REMARK    3  A    between atoms: C_10  and  C_15
REMARK    4  A    between atoms: N_16  and  O_17
REMARK                            x       y       z     vdW  Elec       q    Type
REMARK                         _______ _______ _______ _____ _____    ______ ____
ROOT
ATOM      1  N   UNL     1      -1.267  -1.154  -0.345  0.00  0.00    -0.285 N 
ATOM      2  C   UNL     1      -2.245  -0.299   0.014  0.00  0.00    +0.231 C 
ATOM      3  O   UNL     1      -2.004   0.884   0.128  0.00  0.00    -0.274 OA
ATOM      4  H   UNL     1      -1.481  -2.077  -0.553  0.00  0.00    +0.155 HD
ENDROOT
BRANCH   1  10
ATOM      5  C   UNL     1       0.333   0.630  -0.650  0.00  0.00    +0.023 A 
ATOM      6  C   UNL     1       1.641   1.062  -0.720  0.00  0.00    +0.006 A 
ATOM      7  C   UNL     1       2.684   0.164  -0.558  0.00  0.00    -0.044 A 
ATOM      8  C   UNL     1       2.414  -1.172  -0.325  0.00  0.00    -0.042 A 
ATOM      9  C   UNL     1       1.103  -1.609  -0.255  0.00  0.00    +0.027 A 
ATOM     10  C   UNL     1       0.059  -0.711  -0.417  0.00  0.00    +0.034 A 
ATOM     11  C   UNL     1       3.712  -1.939  -0.186  0.00  0.00    +0.036 C 
ATOM     12  C   UNL     1       4.792  -1.018  -0.789  0.00  0.00    +0.009 C 
ATOM     13  C   UNL     1       4.181   0.385  -0.590  0.00  0.00    +0.036 C 
ENDBRANCH   1  10
BRANCH   2  14
ATOM     14  C   UNL     1      -3.637  -0.813   0.273  0.00  0.00    +0.105 C 
ATOM     15  C   UNL     1      -4.128  -1.637  -0.930  0.00  0.00    +0.024 C 
ATOM     16  C   UNL     1      -5.388  -0.928  -1.466  0.00  0.00    +0.001 C 
ATOM     17  C   UNL     1      -5.234   0.536  -0.985  0.00  0.00    +0.001 C 
ATOM     18  C   UNL     1      -4.617   0.369   0.426  0.00  0.00    +0.024 C 
BRANCH  14  19
ATOM     19  C   UNL     1      -3.651  -1.660   1.520  0.00  0.00    +0.147 C 
ATOM     20  N   UNL     1      -4.726  -2.288   1.863  0.00  0.00    -0.076 NA
ATOM     21  N   UNL     1      -2.516  -1.764   2.294  0.00  0.00    -0.343 N 
ATOM     22  H   UNL     1      -1.740  -1.218   2.092  0.00  0.00    +0.144 HD
ATOM     23  H   UNL     1      -2.494  -2.383   3.040  0.00  0.00    +0.144 HD
BRANCH  20  24
ATOM     24  O   UNL     1      -5.835  -2.326   0.982  0.00  0.00    -0.408 OA
ATOM     25  H   UNL     1      -6.593  -2.819   1.325  0.00  0.00    +0.328 HD
ENDBRANCH  20  24
ENDBRANCH  14  19
ENDBRANCH   2  14
TORSDOF 4
