REMARK  Name = ZINC35555853
REMARK  4 active torsions:
REMARK  status: ('A' for Active; 'I' for Inactive)
REMARK    1  A    between atoms: C_14  and  C_34
REMARK    2  A    between atoms: C_18  and  C_23
REMARK    3  A    between atoms: N_25  and  C_26
REMARK    4  A    between atoms: C_26  and  C_27
REMARK                            x       y       z     vdW  Elec       q    Type
REMARK                         _______ _______ _______ _____ _____    ______ ____
ROOT
ATOM      1  C   UNL     1       0.009   1.378   0.246  0.00  0.00    +0.005 A 
ATOM      2  C   UNL     1       1.194   2.058  -0.005  0.00  0.00    +0.018 A 
ATOM      3  C   UNL     1       2.347   1.340  -0.249  0.00  0.00    +0.084 A 
ATOM      4  N   UNL     1       2.336   0.021  -0.248  0.00  0.00    -0.350 N 
ATOM      5  C   UNL     1       1.227  -0.664  -0.014  0.00  0.00    +0.099 A 
ATOM      6  C   UNL     1       0.028  -0.005   0.241  0.00  0.00    +0.042 A 
ATOM      7  N   UNL     1       1.260  -2.054  -0.022  0.00  0.00    -0.313 N 
ATOM      8  C   UNL     1       2.541  -2.740  -0.142  0.00  0.00    +0.125 C 
ATOM      9  C   UNL     1       2.502  -3.759  -1.264  0.00  0.00    +0.124 C 
ATOM     10  N   UNL     1       1.231  -4.455  -1.372  0.00  0.00    -0.323 N 
ATOM     11  C   UNL     1       1.179  -5.623  -2.162  0.00  0.00    +0.033 A 
ATOM     12  C   UNL     1       2.355  -6.316  -2.418  0.00  0.00    +0.024 A 
ATOM     13  C   UNL     1       2.325  -7.456  -3.198  0.00  0.00    +0.014 A 
ATOM     14  C   UNL     1       1.123  -7.898  -3.721  0.00  0.00    +0.055 A 
ATOM     15  C   UNL     1      -0.046  -7.211  -3.461  0.00  0.00    +0.017 A 
ATOM     16  C   UNL     1      -0.027  -6.069  -2.674  0.00  0.00    -0.025 A 
ATOM     17  C   UNL     1      -1.330  -5.367  -2.397  0.00  0.00    +0.051 C 
ATOM     18  C   UNL     1      -1.087  -3.949  -1.871  0.00  0.00    +0.101 C 
ATOM     19  C   UNL     1      -0.019  -4.020  -0.782  0.00  0.00    +0.103 C 
ATOM     20  C   UNL     1       0.018  -2.800   0.096  0.00  0.00    +0.129 C 
ATOM     21  H   UNL     1       3.160  -0.460  -0.422  0.00  0.00    +0.166 HD
ENDROOT
BRANCH  18  22
ATOM     22  C   UNL     1      -0.611  -3.065  -2.995  0.00  0.00    +0.219 C 
ATOM     23  O   UNL     1       0.472  -2.522  -2.922  0.00  0.00    -0.275 OA
ATOM     24  N   UNL     1      -1.387  -2.877  -4.081  0.00  0.00    -0.311 N 
ATOM     25  H   UNL     1      -2.252  -3.312  -4.139  0.00  0.00    +0.149 HD
BRANCH  24  26
ATOM     26  C   UNL     1      -0.923  -2.018  -5.173  0.00  0.00    +0.139 C 
BRANCH  26  27
ATOM     27  C   UNL     1      -1.968  -1.976  -6.258  0.00  0.00    -0.030 A 
ATOM     28  C   UNL     1      -1.941  -2.907  -7.280  0.00  0.00    +0.008 A 
ATOM     29  C   UNL     1      -2.899  -2.870  -8.274  0.00  0.00    +0.038 A 
ATOM     30  C   UNL     1      -3.887  -1.900  -8.248  0.00  0.00    +0.123 A 
ATOM     31  C   UNL     1      -3.914  -0.969  -7.223  0.00  0.00    +0.038 A 
ATOM     32  C   UNL     1      -2.958  -1.011  -6.227  0.00  0.00    +0.008 A 
ATOM     33  F   UNL     1      -4.825  -1.863  -9.220  0.00  0.00    -0.205 F 
ENDBRANCH  26  27
ENDBRANCH  24  26
ENDBRANCH  18  22
BRANCH  14  34
ATOM     34  C   UNL     1       1.090  -9.138  -4.577  0.00  0.00    +0.417 C 
ATOM     35  F   UNL     1       2.384  -9.656  -4.698  0.00  0.00    -0.166 F 
ATOM     36  F   UNL     1       0.258 -10.093  -3.983  0.00  0.00    -0.166 F 
ATOM     37  F   UNL     1       0.597  -8.815  -5.846  0.00  0.00    -0.166 F 
ENDBRANCH  14  34
TORSDOF 4
