REMARK  Name = ZINC06510750
REMARK  7 active torsions:
REMARK  status: ('A' for Active; 'I' for Inactive)
REMARK    1  A    between atoms: C_1  and  C_2
REMARK    2  A    between atoms: C_4  and  C_31
REMARK    3  A    between atoms: N_5  and  C_7
REMARK    4  A    between atoms: C_10  and  C_13
REMARK    5  A    between atoms: N_15  and  N_16
REMARK    6  A    between atoms: C_17  and  C_19
REMARK    7  A    between atoms: N_23  and  C_24
REMARK                            x       y       z     vdW  Elec       q    Type
REMARK                         _______ _______ _______ _____ _____    ______ ____
ROOT
ATOM      1  C   UNL     1      -1.152   1.670  -0.963  0.00  0.00    +0.260 C 
ATOM      2  O   UNL     1      -1.173   2.879  -0.841  0.00  0.00    -0.269 OA
ATOM      3  N   UNL     1       0.015   1.002  -0.857  0.00  0.00    -0.230 N 
ATOM      4  H   UNL     1       0.032   0.037  -0.954  0.00  0.00    +0.173 HD
ENDROOT
BRANCH   1   8
ATOM      5  C   UNL     1      -4.752  -0.453  -1.724  0.00  0.00    +0.066 A 
ATOM      6  C   UNL     1      -4.778   0.930  -1.584  0.00  0.00    +0.028 A 
ATOM      7  C   UNL     1      -3.613   1.622  -1.337  0.00  0.00    +0.015 A 
ATOM      8  C   UNL     1      -2.403   0.932  -1.227  0.00  0.00    +0.038 A 
ATOM      9  C   UNL     1      -2.379  -0.458  -1.373  0.00  0.00    +0.015 A 
ATOM     10  C   UNL     1      -3.549  -1.143  -1.615  0.00  0.00    +0.028 A 
BRANCH   5  15
ATOM     11  C   UNL     1      -9.536  -1.744  -1.633  0.00  0.00    +0.067 C 
ATOM     12  C   UNL     1      -8.059  -1.714  -1.927  0.00  0.00    +0.061 A 
ATOM     13  C   UNL     1      -7.366  -2.625  -2.733  0.00  0.00    +0.047 A 
ATOM     14  C   UNL     1      -6.064  -2.258  -2.754  0.00  0.00    +0.042 A 
ATOM     15  N   UNL     1      -5.936  -1.152  -1.975  0.00  0.00    -0.237 N 
ATOM     16  N   UNL     1      -7.205  -0.833  -1.473  0.00  0.00    -0.171 NA
ATOM     17  C   UNL     1      -4.955  -2.952  -3.502  0.00  0.00    +0.066 C 
ENDBRANCH   5  15
ENDBRANCH   1   8
BRANCH   3  18
ATOM     18  N   UNL     1       1.203   1.703  -0.612  0.00  0.00    -0.229 N 
ATOM     19  C   UNL     1       2.370   1.037  -0.512  0.00  0.00    +0.278 C 
ATOM     20  O   UNL     1       2.381  -0.179  -0.553  0.00  0.00    -0.267 OA
ATOM     21  H   UNL     1       1.185   2.668  -0.515  0.00  0.00    +0.173 HD
BRANCH  19  22
ATOM     22  C   UNL     1       3.626   1.777  -0.353  0.00  0.00    +0.130 A 
ATOM     23  C   UNL     1       3.773   3.134  -0.269  0.00  0.00    +0.144 A 
ATOM     24  N   UNL     1       5.073   3.396  -0.130  0.00  0.00    -0.243 NA
ATOM     25  C   UNL     1       5.751   2.276  -0.123  0.00  0.00    +0.204 A 
ATOM     26  N   UNL     1       4.898   1.242  -0.253  0.00  0.00    -0.295 N 
BRANCH  26  27
ATOM     27  C   UNL     1       5.234  -0.118  -0.285  0.00  0.00    +0.048 A 
ATOM     28  C   UNL     1       4.664  -0.997   0.626  0.00  0.00    +0.029 A 
ATOM     29  C   UNL     1       4.994  -2.338   0.591  0.00  0.00    +0.040 A 
ATOM     30  C   UNL     1       5.900  -2.804  -0.347  0.00  0.00    +0.124 A 
ATOM     31  C   UNL     1       6.474  -1.928  -1.254  0.00  0.00    +0.040 A 
ATOM     32  C   UNL     1       6.143  -0.588  -1.224  0.00  0.00    +0.029 A 
ATOM     33  F   UNL     1       6.225  -4.115  -0.377  0.00  0.00    -0.205 F 
ENDBRANCH  26  27
ENDBRANCH  19  22
ENDBRANCH   3  18
TORSDOF 5
