REMARK  Name = ZINC01035457
REMARK  6 active torsions:
REMARK  status: ('A' for Active; 'I' for Inactive)
REMARK    1  A    between atoms: C_1  and  C_2
REMARK    2  A    between atoms: C_4  and  C_24
REMARK    3  A    between atoms: C_8  and  N_23
REMARK    4  A    between atoms: C_9  and  C_11
REMARK    5  A    between atoms: N_13  and  N_14
REMARK    6  A    between atoms: C_15  and  C_16
REMARK                            x       y       z     vdW  Elec       q    Type
REMARK                         _______ _______ _______ _____ _____    ______ ____
ROOT
ATOM      1  C   UNL     1      -3.016   3.207   1.711  0.00  0.00    +0.044 C 
ATOM      2  C   UNL     1      -1.659   2.573   1.542  0.00  0.00    -0.037 A 
ATOM      3  C   UNL     1      -1.507   1.210   1.648  0.00  0.00    +0.027 A 
ATOM      4  C   UNL     1      -0.256   0.630   1.497  0.00  0.00    +0.040 A 
ATOM      5  N   UNL     1       0.800   1.377   1.241  0.00  0.00    -0.245 NA
ATOM      6  C   UNL     1       0.706   2.683   1.126  0.00  0.00    +0.111 A 
ATOM      7  C   UNL     1      -0.521   3.372   1.267  0.00  0.00    +0.032 A 
ATOM      8  C   UNL     1      -0.442   4.816   1.109  0.00  0.00    +0.054 A 
ATOM      9  C   UNL     1       0.788   5.377   0.842  0.00  0.00    +0.099 A 
ATOM     10  S   UNL     1       1.882   3.972   0.795  0.00  0.00    -0.062 S 
ATOM     11  C   UNL     1      -0.105  -0.864   1.621  0.00  0.00    +0.065 C 
ENDROOT
BRANCH   9  12
ATOM     12  C   UNL     1       1.106   6.744   0.650  0.00  0.00    +0.272 C 
ATOM     13  O   UNL     1       0.230   7.588   0.714  0.00  0.00    -0.268 OA
ATOM     14  N   UNL     1       2.377   7.111   0.395  0.00  0.00    -0.202 N 
ATOM     15  H   UNL     1       3.075   6.439   0.344  0.00  0.00    +0.178 HD
BRANCH  14  16
ATOM     16  N   UNL     1       2.692   8.463   0.205  0.00  0.00    -0.187 NA
ATOM     17  C   UNL     1       3.916   8.817  -0.040  0.00  0.00    +0.138 C 
BRANCH  17  18
ATOM     18  C   UNL     1       4.247  10.240  -0.240  0.00  0.00    -0.005 A 
ATOM     19  C   UNL     1       3.244  11.209  -0.172  0.00  0.00    +0.011 A 
ATOM     20  C   UNL     1       3.561  12.539  -0.355  0.00  0.00    +0.020 A 
ATOM     21  C   UNL     1       4.869  12.913  -0.615  0.00  0.00    +0.041 A 
ATOM     22  C   UNL     1       5.867  11.956  -0.690  0.00  0.00    +0.020 A 
ATOM     23  C   UNL     1       5.564  10.623  -0.503  0.00  0.00    +0.011 A 
ATOM     24 CL   UNL     1       5.258  14.588  -0.851  0.00  0.00    -0.084 Cl
ENDBRANCH  17  18
ENDBRANCH  14  16
ENDBRANCH   9  12
BRANCH   8  25
ATOM     25  N   UNL     1      -1.576   5.607   1.224  0.00  0.00    -0.356 N 
ATOM     26  H   UNL     1      -2.438   5.264   0.941  0.00  0.00    +0.142 HD
ATOM     27  H   UNL     1      -1.506   6.504   1.587  0.00  0.00    +0.142 HD
ENDBRANCH   8  25
TORSDOF 4
