REMARK  Name = ZINC12494332
REMARK  10 active torsions:
REMARK  status: ('A' for Active; 'I' for Inactive)
REMARK    1  A    between atoms: C_1  and  C_2
REMARK    2  A    between atoms: C_5  and  N_9
REMARK    3  A    between atoms: C_6  and  C_8
REMARK    4  A    between atoms: N_9  and  S_10
REMARK    5  A    between atoms: S_10  and  C_13
REMARK    6  A    between atoms: C_16  and  N_19
REMARK    7  A    between atoms: N_19  and  C_20
REMARK    8  A    between atoms: C_20  and  N_22
REMARK    9  A    between atoms: C_23  and  C_25
REMARK   10  A    between atoms: C_28  and  C_31
REMARK                            x       y       z     vdW  Elec       q    Type
REMARK                         _______ _______ _______ _____ _____    ______ ____
ROOT
ATOM      1  N   UNL     1       1.786   5.413   4.562  0.00  0.00    -0.297 N 
ATOM      2  H   UNL     1       0.978   5.715   5.006  0.00  0.00    +0.154 HD
ENDROOT
BRANCH   1   6
ATOM      3  C   UNL     1       1.530   2.842   1.294  0.00  0.00    +0.109 A 
ATOM      4  C   UNL     1       0.702   3.947   1.369  0.00  0.00    +0.030 A 
ATOM      5  C   UNL     1       0.781   4.799   2.454  0.00  0.00    +0.025 A 
ATOM      6  C   UNL     1       1.700   4.550   3.465  0.00  0.00    +0.033 A 
ATOM      7  C   UNL     1       2.534   3.442   3.383  0.00  0.00    +0.025 A 
ATOM      8  C   UNL     1       2.446   2.592   2.299  0.00  0.00    +0.030 A 
BRANCH   3   9
ATOM      9  S   UNL     1       1.422   1.756  -0.089  0.00  0.00    +0.072 S 
ATOM     10  O   UNL     1       2.681   1.105  -0.193  0.00  0.00    -0.150 OA
ATOM     11  O   UNL     1       0.864   2.510  -1.156  0.00  0.00    -0.150 OA
BRANCH   9  12
ATOM     12  N   UNL     1       0.314   0.586   0.293  0.00  0.00    -0.216 N 
ATOM     13  H   UNL     1       0.582  -0.346   0.318  0.00  0.00    +0.174 HD
BRANCH  12  18
ATOM     14  C   UNL     1      -5.051   2.023   1.436  0.00  0.00    +0.044 C 
ATOM     15  C   UNL     1      -3.625   1.642   1.133  0.00  0.00    -0.050 A 
ATOM     16  C   UNL     1      -2.913   2.340   0.175  0.00  0.00    +0.005 A 
ATOM     17  C   UNL     1      -1.606   1.992  -0.106  0.00  0.00    +0.025 A 
ATOM     18  C   UNL     1      -1.007   0.940   0.576  0.00  0.00    +0.051 A 
ATOM     19  C   UNL     1      -1.727   0.238   1.534  0.00  0.00    -0.028 A 
ATOM     20  C   UNL     1      -3.032   0.594   1.813  0.00  0.00    +0.008 A 
ATOM     21  C   UNL     1      -1.083  -0.908   2.271  0.00  0.00    +0.046 C 
ENDBRANCH  12  18
ENDBRANCH   9  12
ENDBRANCH   3   9
ENDBRANCH   1   6
BRANCH   1  22
ATOM     22  C   UNL     1       2.991   5.824   5.003  0.00  0.00    +0.141 C 
ATOM     23  S   UNL     1       4.420   5.205   4.292  0.00  0.00    -0.018 S 
BRANCH  22  24
ATOM     24  N   UNL     1       3.071   6.724   6.003  0.00  0.00    -0.264 N 
ATOM     25  C   UNL     1       4.276   7.136   6.444  0.00  0.00    +0.250 C 
ATOM     26  O   UNL     1       5.291   6.696   5.940  0.00  0.00    -0.270 OA
ATOM     27  H   UNL     1       2.261   7.075   6.406  0.00  0.00    +0.157 HD
BRANCH  25  28
ATOM     28  C   UNL     1       4.364   8.121   7.540  0.00  0.00    +0.037 A 
ATOM     29  C   UNL     1       3.198   8.632   8.117  0.00  0.00    +0.013 A 
ATOM     30  C   UNL     1       3.281   9.546   9.143  0.00  0.00    +0.009 A 
ATOM     31  C   UNL     1       4.529   9.971   9.599  0.00  0.00    -0.018 A 
ATOM     32  C   UNL     1       5.694   9.467   9.020  0.00  0.00    +0.009 A 
ATOM     33  C   UNL     1       5.613   8.549   7.998  0.00  0.00    +0.013 A 
BRANCH  31  34
ATOM     34  C   UNL     1       4.617  10.961  10.700  0.00  0.00    -0.018 A 
ATOM     35  C   UNL     1       5.862  11.385  11.162  0.00  0.00    +0.008 A 
ATOM     36  C   UNL     1       5.938  12.309  12.183  0.00  0.00    +0.001 A 
ATOM     37  C   UNL     1       4.782  12.808  12.756  0.00  0.00    +0.000 A 
ATOM     38  C   UNL     1       3.544  12.387  12.305  0.00  0.00    +0.001 A 
ATOM     39  C   UNL     1       3.455  11.467  11.281  0.00  0.00    +0.008 A 
ENDBRANCH  31  34
ENDBRANCH  25  28
ENDBRANCH  22  24
ENDBRANCH   1  22
TORSDOF 8
