REMARK  Name = ZINC39425991
REMARK  9 active torsions:
REMARK  status: ('A' for Active; 'I' for Inactive)
REMARK    1  A    between atoms: C_1  and  C_2
REMARK    2  A    between atoms: C_2  and  C_3
REMARK    3  A    between atoms: C_3  and  S_4
REMARK    4  A    between atoms: S_4  and  C_5
REMARK    5  A    between atoms: C_13  and  C_20
REMARK    6  A    between atoms: C_15  and  C_18
REMARK    7  A    between atoms: C_16  and  N_17
REMARK    8  A    between atoms: C_30  and  C_32
REMARK    9  A    between atoms: C_30  and  C_33
REMARK                            x       y       z     vdW  Elec       q    Type
REMARK                         _______ _______ _______ _____ _____    ______ ____
ROOT
ATOM      1  C   UNL     1       1.430  -2.379  -3.071  0.00  0.00    +0.160 A 
ATOM      2  N   UNL     1       2.725  -2.612  -2.916  0.00  0.00    -0.133 NA
ATOM      3  N   UNL     1       3.400  -3.228  -3.785  0.00  0.00    -0.124 NA
ATOM      4  C   UNL     1       2.858  -3.679  -4.904  0.00  0.00    +0.194 A 
ATOM      5  S   UNL     1       1.164  -3.151  -4.664  0.00  0.00    -0.024 S 
ATOM      6  N   UNL     1       3.438  -4.372  -5.964  0.00  0.00    -0.237 N 
ATOM      7  C   UNL     1       3.933  -3.680  -7.039  0.00  0.00    +0.027 C 
ATOM      8  C   UNL     1       4.129  -4.298  -8.224  0.00  0.00    +0.025 C 
ATOM      9  C   UNL     1       3.809  -5.761  -8.397  0.00  0.00    +0.099 C 
ATOM     10  C   UNL     1       3.694  -6.452  -7.070  0.00  0.00    +0.077 C 
ATOM     11  C   UNL     1       3.517  -5.746  -5.922  0.00  0.00    +0.108 C 
ATOM     12  C   UNL     1       4.632  -3.595  -9.332  0.00  0.00    +0.162 C 
ATOM     13  O   UNL     1       4.813  -4.185 -10.380  0.00  0.00    -0.292 OA
ATOM     14  C   UNL     1       4.951  -2.128  -9.247  0.00  0.00    +0.086 C 
ATOM     15  C   UNL     1       4.048  -1.482  -8.191  0.00  0.00    -0.023 C 
ATOM     16  C   UNL     1       4.255  -2.216  -6.864  0.00  0.00    +0.058 C 
ATOM     17  C   UNL     1       4.422  -0.008  -8.026  0.00  0.00    +0.011 C 
ATOM     18  C   UNL     1       2.585  -1.601  -8.622  0.00  0.00    +0.011 C 
ENDROOT
BRANCH   9  19
ATOM     19  C   UNL     1       2.504  -5.897  -9.138  0.00  0.00    -0.016 A 
ATOM     20  C   UNL     1       1.348  -5.353  -8.609  0.00  0.00    +0.006 A 
ATOM     21  C   UNL     1       0.151  -5.478  -9.289  0.00  0.00    +0.000 A 
ATOM     22  C   UNL     1       0.109  -6.147 -10.498  0.00  0.00    +0.001 A 
ATOM     23  C   UNL     1       1.263  -6.691 -11.028  0.00  0.00    +0.020 A 
ATOM     24  C   UNL     1       2.463  -6.562 -10.351  0.00  0.00    +0.045 A 
ATOM     25 CL   UNL     1       3.915  -7.239 -11.019  0.00  0.00    -0.083 Cl
ENDBRANCH   9  19
BRANCH  11  26
ATOM     26  N   UNL     1       3.410  -6.402  -4.719  0.00  0.00    -0.345 N 
ATOM     27  H   UNL     1       3.193  -5.907  -3.914  0.00  0.00    +0.144 HD
ATOM     28  H   UNL     1       3.552  -7.361  -4.676  0.00  0.00    +0.144 HD
ENDBRANCH  11  26
BRANCH  10  29
ATOM     29  C   UNL     1       3.777  -7.880  -7.011  0.00  0.00    +0.099 C 
ATOM     30  N   UNL     1       3.843  -9.014  -6.964  0.00  0.00    -0.191 NA
ENDBRANCH  10  29
BRANCH   1  31
ATOM     31  S   UNL     1       0.292  -1.551  -2.010  0.00  0.00    -0.097 S 
BRANCH  31  32
ATOM     32  C   UNL     1       1.303  -1.047  -0.590  0.00  0.00    +0.076 C 
BRANCH  32  34
ATOM     33  C   UNL     1       1.280   0.117   1.620  0.00  0.00    +0.004 C 
ATOM     34  C   UNL     1       0.428  -0.307   0.423  0.00  0.00    +0.008 C 
ENDBRANCH  32  34
ENDBRANCH  31  32
ENDBRANCH   1  31
TORSDOF 6
