REMARK  Name = ZINC19800814
REMARK  6 active torsions:
REMARK  status: ('A' for Active; 'I' for Inactive)
REMARK    1  A    between atoms: C_1  and  C_2
REMARK    2  A    between atoms: C_2  and  C_16
REMARK    3  A    between atoms: N_3  and  N_4
REMARK    4  A    between atoms: C_5  and  C_7
REMARK    5  A    between atoms: C_12  and  N_13
REMARK    6  A    between atoms: C_17  and  C_18
REMARK                            x       y       z     vdW  Elec       q    Type
REMARK                         _______ _______ _______ _____ _____    ______ ____
ROOT
ATOM      1  N   UNL     1      -3.592   4.374   0.193  0.00  0.00    -0.203 N 
ATOM      2  C   UNL     1      -2.371   4.933   0.076  0.00  0.00    +0.265 C 
ATOM      3  O   UNL     1      -2.260   6.141  -0.005  0.00  0.00    -0.268 OA
ATOM      4  H   UNL     1      -3.692   3.281   0.266  0.00  0.00    +0.178 HD
ENDROOT
BRANCH   2   5
ATOM      5  C   UNL     1      -1.170   4.079   0.047  0.00  0.00    +0.061 A 
ATOM      6  C   UNL     1      -1.297   2.687   0.015  0.00  0.00    +0.030 A 
ATOM      7  C   UNL     1      -0.171   1.894  -0.006  0.00  0.00    +0.020 A 
ATOM      8  C   UNL     1       1.091   2.469  -0.008  0.00  0.00    +0.032 A 
ATOM      9  C   UNL     1       1.233   3.842   0.019  0.00  0.00    +0.040 A 
ATOM     10  C   UNL     1       0.108   4.658   0.046  0.00  0.00    +0.051 A 
ATOM     11 BR   UNL     1       2.960   4.613   0.017  0.00  0.00    -0.048 Br
ATOM     12 BR   UNL     1      -0.346   0.011  -0.042  0.00  0.00    -0.050 Br
BRANCH  10  13
ATOM     13  N   UNL     1       0.248   6.040   0.073  0.00  0.00    -0.357 N 
ATOM     14  H   UNL     1       1.252   6.492   0.072  0.00  0.00    +0.142 HD
ATOM     15  H   UNL     1      -0.644   6.684   0.095  0.00  0.00    +0.142 HD
ENDBRANCH  10  13
ENDBRANCH   2   5
BRANCH   1  18
ATOM     16  C   UNL     1      -6.051   3.149   0.433  0.00  0.00    +0.067 C 
ATOM     17  C   UNL     1      -5.914   4.647   0.333  0.00  0.00    +0.056 C 
ATOM     18  N   UNL     1      -4.734   5.186   0.220  0.00  0.00    -0.185 NA
BRANCH  17  19
ATOM     19  C   UNL     1      -7.069   5.468   0.361  0.00  0.00    +0.025 C 
ATOM     20  C   UNL     1      -6.946   6.808   0.271  0.00  0.00    +0.010 C 
BRANCH  20  21
ATOM     21  C   UNL     1      -8.146   7.661   0.299  0.00  0.00    -0.025 A 
ATOM     22  C   UNL     1      -9.415   7.085   0.414  0.00  0.00    +0.008 A 
ATOM     23  C   UNL     1     -10.533   7.891   0.446  0.00  0.00    +0.001 A 
ATOM     24  C   UNL     1     -10.403   9.266   0.352  0.00  0.00    +0.000 A 
ATOM     25  C   UNL     1      -9.150   9.843   0.234  0.00  0.00    +0.001 A 
ATOM     26  C   UNL     1      -8.022   9.051   0.206  0.00  0.00    +0.008 A 
ENDBRANCH  20  21
ENDBRANCH  17  19
ENDBRANCH   1  18
TORSDOF 5
