REMARK  Name = ZINC13206060
REMARK  9 active torsions:
REMARK  status: ('A' for Active; 'I' for Inactive)
REMARK    1  A    between atoms: C_1  and  C_2
REMARK    2  A    between atoms: C_5  and  C_8
REMARK    3  A    between atoms: C_11  and  S_16
REMARK    4  A    between atoms: N_12  and  C_13
REMARK    5  A    between atoms: C_13  and  C_14
REMARK    6  A    between atoms: S_16  and  C_17
REMARK    7  A    between atoms: C_17  and  C_18
REMARK    8  A    between atoms: N_20  and  C_21
REMARK    9  A    between atoms: C_30  and  C_32
REMARK                            x       y       z     vdW  Elec       q    Type
REMARK                         _______ _______ _______ _____ _____    ______ ____
ROOT
ATOM      1  S   UNL     1       0.974   3.705   1.800  0.00  0.00    -0.077 S 
ENDROOT
BRANCH   1   5
ATOM      2  C   UNL     1      -1.827   0.983   1.912  0.00  0.00    +0.165 A 
ATOM      3  N   UNL     1      -2.196   1.816   2.857  0.00  0.00    -0.128 NA
ATOM      4  N   UNL     1      -1.358   2.787   2.939  0.00  0.00    -0.122 NA
ATOM      5  C   UNL     1      -0.399   2.631   2.054  0.00  0.00    +0.193 A 
ATOM      6  N   UNL     1      -0.666   1.481   1.367  0.00  0.00    -0.291 N 
BRANCH   2  11
ATOM      7  C   UNL     1      -4.548  -3.840   0.347  0.00  0.00    +0.044 C 
ATOM      8  C   UNL     1      -3.835  -2.577   0.757  0.00  0.00    -0.050 A 
ATOM      9  C   UNL     1      -4.100  -2.005   1.989  0.00  0.00    +0.004 A 
ATOM     10  C   UNL     1      -3.451  -0.849   2.370  0.00  0.00    +0.012 A 
ATOM     11  C   UNL     1      -2.526  -0.256   1.510  0.00  0.00    +0.019 A 
ATOM     12  C   UNL     1      -2.267  -0.835   0.267  0.00  0.00    +0.012 A 
ATOM     13  C   UNL     1      -2.919  -1.994  -0.100  0.00  0.00    +0.004 A 
ENDBRANCH   2  11
BRANCH   6  14
ATOM     14  C   UNL     1       0.123   0.897   0.279  0.00  0.00    +0.250 C 
BRANCH  14  15
ATOM     15  C   UNL     1      -0.351   1.452  -1.040  0.00  0.00    +0.375 C 
ATOM     16  O   UNL     1      -1.255   2.254  -1.068  0.00  0.00    -0.244 OA
ATOM     17  O   UNL     1       0.231   1.056  -2.183  0.00  0.00    -0.244 OA
ENDBRANCH  14  15
ENDBRANCH   6  14
ENDBRANCH   1   5
BRANCH   1  18
ATOM     18  C   UNL     1       0.629   4.959   3.059  0.00  0.00    +0.173 C 
BRANCH  18  19
ATOM     19  C   UNL     1       1.705   6.013   3.026  0.00  0.00    +0.227 C 
ATOM     20  O   UNL     1       2.616   5.926   2.230  0.00  0.00    -0.275 OA
ATOM     21  N   UNL     1       1.655   7.054   3.881  0.00  0.00    -0.285 N 
ATOM     22  H   UNL     1       0.965   7.090   4.562  0.00  0.00    +0.155 HD
BRANCH  21  23
ATOM     23  C   UNL     1       2.600   8.084   3.787  0.00  0.00    +0.034 A 
ATOM     24  C   UNL     1       3.911   7.798   3.427  0.00  0.00    +0.025 A 
ATOM     25  C   UNL     1       4.838   8.812   3.329  0.00  0.00    +0.025 A 
ATOM     26  C   UNL     1       4.473  10.132   3.602  0.00  0.00    +0.040 A 
ATOM     27  C   UNL     1       3.165  10.409   3.965  0.00  0.00    -0.023 A 
ATOM     28  C   UNL     1       2.232   9.395   4.059  0.00  0.00    +0.028 A 
ATOM     29  C   UNL     1       3.036  11.897   4.202  0.00  0.00    +0.056 C 
ATOM     30  C   UNL     1       4.442  12.457   3.929  0.00  0.00    +0.118 C 
ATOM     31  N   UNL     1       5.255  11.293   3.566  0.00  0.00    -0.271 N 
ATOM     32  C   UNL     1       6.563  11.334   3.245  0.00  0.00    +0.217 C 
ATOM     33  O   UNL     1       7.127  10.328   2.870  0.00  0.00    -0.276 OA
ATOM     34  C   UNL     1       7.325  12.630   3.353  0.00  0.00    +0.109 C 
ENDBRANCH  21  23
ENDBRANCH  18  19
ENDBRANCH   1  18
TORSDOF 7
