REMARK  Name = ZINC13080573
REMARK  8 active torsions:
REMARK  status: ('A' for Active; 'I' for Inactive)
REMARK    1  A    between atoms: C_1  and  C_2
REMARK    2  A    between atoms: C_6  and  N_8
REMARK    3  A    between atoms: C_9  and  C_11
REMARK    4  A    between atoms: C_12  and  C_37
REMARK    5  A    between atoms: C_16  and  C_18
REMARK    6  A    between atoms: C_21  and  O_24
REMARK    7  A    between atoms: O_24  and  C_25
REMARK    8  A    between atoms: C_29  and  C_32
REMARK                            x       y       z     vdW  Elec       q    Type
REMARK                         _______ _______ _______ _____ _____    ______ ____
ROOT
ATOM      1  C   UNL     1      -4.238  -4.772   1.370  0.00  0.00    +0.043 C 
ATOM      2  C   UNL     1      -3.645  -4.292   2.476  0.00  0.00    +0.014 C 
ATOM      3  N   UNL     1      -2.865  -3.170   2.412  0.00  0.00    -0.321 N 
ATOM      4  C   UNL     1      -2.346  -2.748   1.218  0.00  0.00    +0.016 C 
ATOM      5  C   UNL     1      -2.887  -3.163   0.052  0.00  0.00    +0.024 C 
ATOM      6  C   UNL     1      -4.072  -4.095   0.041  0.00  0.00    +0.090 C 
ATOM      7  C   UNL     1      -2.365  -2.736  -1.182  0.00  0.00    +0.162 C 
ATOM      8  O   UNL     1      -2.864  -3.142  -2.213  0.00  0.00    -0.292 OA
ATOM      9  C   UNL     1      -1.200  -1.787  -1.249  0.00  0.00    +0.091 C 
ATOM     10  C   UNL     1      -1.202  -0.907   0.006  0.00  0.00    +0.068 C 
ATOM     11  C   UNL     1      -1.160  -1.817   1.236  0.00  0.00    +0.062 C 
ATOM     12  C   UNL     1      -3.841  -4.994   3.795  0.00  0.00    +0.061 C 
ATOM     13  H   UNL     1      -2.648  -2.598   3.327  0.00  0.00    +0.152 HD
ENDROOT
BRANCH   6  14
ATOM     14  C   UNL     1      -5.318  -3.307  -0.271  0.00  0.00    -0.035 A 
ATOM     15  C   UNL     1      -5.710  -2.276   0.563  0.00  0.00    +0.008 A 
ATOM     16  C   UNL     1      -6.849  -1.549   0.276  0.00  0.00    +0.046 A 
ATOM     17  C   UNL     1      -7.606  -1.860  -0.844  0.00  0.00    +0.120 A 
ATOM     18  C   UNL     1      -7.213  -2.898  -1.677  0.00  0.00    +0.046 A 
ATOM     19  C   UNL     1      -6.071  -3.619  -1.388  0.00  0.00    +0.008 A 
BRANCH  17  20
ATOM     20  O   UNL     1      -8.730  -1.150  -1.125  0.00  0.00    -0.495 OA
ATOM     21  C   UNL     1      -9.073  -0.095  -0.225  0.00  0.00    +0.277 C 
ENDBRANCH  17  20
ENDBRANCH   6  14
BRANCH  10  22
ATOM     22  C   UNL     1       0.010  -0.011  -0.002  0.00  0.00    +0.109 A 
ATOM     23  C   UNL     1      -0.007   1.334   0.006  0.00  0.00    +0.045 A 
ATOM     24  C   UNL     1       1.341   1.760  -0.006  0.00  0.00    +0.041 A 
ATOM     25  C   UNL     1       2.101   0.650  -0.021  0.00  0.00    +0.195 A 
ATOM     26  O   UNL     1       1.289  -0.419  -0.018  0.00  0.00    -0.468 OA
ENDBRANCH  10  22
BRANCH   1  28
ATOM     27  N   UNL     1      -5.635  -6.432   0.359  0.00  0.00    -0.267 N 
ATOM     28  C   UNL     1      -5.034  -5.939   1.460  0.00  0.00    +0.248 C 
ATOM     29  O   UNL     1      -5.176  -6.498   2.533  0.00  0.00    -0.270 OA
ATOM     30  H   UNL     1      -5.576  -5.883  -0.592  0.00  0.00    +0.157 HD
BRANCH  27  36
ATOM     31  C   UNL     1      -7.283 -10.033   3.052  0.00  0.00    +0.065 C 
ATOM     32  C   UNL     1      -7.136  -9.384   1.700  0.00  0.00    +0.040 A 
ATOM     33  C   UNL     1      -7.684  -9.993   0.588  0.00  0.00    +0.023 A 
ATOM     34  C   UNL     1      -7.545  -9.391  -0.655  0.00  0.00    +0.005 A 
ATOM     35  C   UNL     1      -6.857  -8.194  -0.735  0.00  0.00    +0.044 A 
ATOM     36  C   UNL     1      -6.330  -7.637   0.425  0.00  0.00    +0.125 A 
ATOM     37  N   UNL     1      -6.480  -8.245   1.592  0.00  0.00    -0.237 NA
ENDBRANCH  27  36
ENDBRANCH   1  28
TORSDOF 5
