REMARK  Name = ZINC08686972
REMARK  8 active torsions:
REMARK  status: ('A' for Active; 'I' for Inactive)
REMARK    1  A    between atoms: C_1  and  C_2
REMARK    2  A    between atoms: C_5  and  S_8
REMARK    3  A    between atoms: S_8  and  N_11
REMARK    4  A    between atoms: N_11  and  C_12
REMARK    5  A    between atoms: C_17  and  C_18
REMARK    6  A    between atoms: C_23  and  C_26
REMARK    7  A    between atoms: C_29  and  O_32
REMARK    8  A    between atoms: O_32  and  C_33
REMARK                            x       y       z     vdW  Elec       q    Type
REMARK                         _______ _______ _______ _____ _____    ______ ____
ROOT
ATOM      1  C   UNL     1       1.976  -6.349  -0.043  0.00  0.00    +0.086 A 
ATOM      2  C   UNL     1       0.972  -7.310  -0.049  0.00  0.00    +0.027 A 
ATOM      3  C   UNL     1       1.297  -8.650  -0.058  0.00  0.00    +0.002 A 
ATOM      4  C   UNL     1       2.624  -9.050  -0.063  0.00  0.00    +0.001 A 
ATOM      5  C   UNL     1       3.634  -8.113  -0.057  0.00  0.00    +0.015 A 
ATOM      6  C   UNL     1       3.321  -6.751  -0.053  0.00  0.00    +0.061 A 
ENDROOT
BRANCH   6   7
ATOM      7  C   UNL     1       4.396  -5.743  -0.053  0.00  0.00    +0.252 C 
ATOM      8  O   UNL     1       4.119  -4.559  -0.045  0.00  0.00    -0.270 OA
ATOM      9  N   UNL     1       5.686  -6.134  -0.063  0.00  0.00    -0.261 N 
ATOM     10  C   UNL     1       6.699  -5.184  -0.063  0.00  0.00    +0.165 A 
ATOM     11  N   UNL     1       8.008  -5.358  -0.077  0.00  0.00    -0.225 NA
ATOM     12  C   UNL     1       8.839  -4.327  -0.075  0.00  0.00    +0.080 A 
ATOM     13  C   UNL     1       8.332  -3.057  -0.059  0.00  0.00    +0.076 A 
ATOM     14  S   UNL     1       6.577  -3.401  -0.053  0.00  0.00    -0.060 S 
ATOM     15  H   UNL     1       5.907  -7.078  -0.069  0.00  0.00    +0.157 HD
BRANCH  12  16
ATOM     16  C   UNL     1      10.305  -4.548  -0.090  0.00  0.00    +0.001 A 
ATOM     17  C   UNL     1      11.176  -3.459  -0.082  0.00  0.00    +0.013 A 
ATOM     18  C   UNL     1      12.539  -3.667  -0.096  0.00  0.00    +0.046 A 
ATOM     19  C   UNL     1      13.045  -4.959  -0.118  0.00  0.00    +0.120 A 
ATOM     20  C   UNL     1      12.181  -6.046  -0.126  0.00  0.00    +0.046 A 
ATOM     21  C   UNL     1      10.817  -5.844  -0.107  0.00  0.00    +0.013 A 
BRANCH  19  22
ATOM     22  O   UNL     1      14.389  -5.162  -0.133  0.00  0.00    -0.495 OA
ATOM     23  C   UNL     1      14.841  -6.517  -0.155  0.00  0.00    +0.277 C 
ENDBRANCH  19  22
ENDBRANCH  12  16
ENDBRANCH   6   7
BRANCH   1  24
ATOM     24  N   UNL     1       1.651  -4.999  -0.034  0.00  0.00    -0.097 NA
BRANCH  24  25
ATOM     25  S   UNL     1       0.063  -4.530  -0.023  0.00  0.00    +0.092 S 
ATOM     26  O   UNL     1      -0.476  -4.950   1.223  0.00  0.00    -0.148 OA
ATOM     27  O   UNL     1      -0.490  -4.937  -1.267  0.00  0.00    -0.148 OA
BRANCH  25  32
ATOM     28  C   UNL     1      -0.018   1.503   0.010  0.00  0.00    +0.044 C 
ATOM     29  C   UNL     1       0.002  -0.004   0.002  0.00  0.00    -0.050 A 
ATOM     30  C   UNL     1       0.006  -0.689  -1.199  0.00  0.00    +0.005 A 
ATOM     31  C   UNL     1       0.025  -2.071  -1.206  0.00  0.00    +0.029 A 
ATOM     32  C   UNL     1       0.040  -2.768  -0.013  0.00  0.00    +0.110 A 
ATOM     33  C   UNL     1       0.037  -2.084   1.188  0.00  0.00    +0.029 A 
ATOM     34  C   UNL     1       0.023  -0.702   1.195  0.00  0.00    +0.005 A 
ENDBRANCH  25  32
ENDBRANCH  24  25
ENDBRANCH   1  24
TORSDOF 6
