REMARK  Name = ZINC00866080
REMARK  10 active torsions:
REMARK  status: ('A' for Active; 'I' for Inactive)
REMARK    1  A    between atoms: C_1  and  O_2
REMARK    2  A    between atoms: O_2  and  C_3
REMARK    3  A    between atoms: C_6  and  C_11
REMARK    4  A    between atoms: C_8  and  O_9
REMARK    5  A    between atoms: O_9  and  C_10
REMARK    6  A    between atoms: C_14  and  C_33
REMARK    7  A    between atoms: C_18  and  C_21
REMARK    8  A    between atoms: N_23  and  C_24
REMARK    9  A    between atoms: C_29  and  S_30
REMARK   10  A    between atoms: S_30  and  C_31
REMARK                            x       y       z     vdW  Elec       q    Type
REMARK                         _______ _______ _______ _____ _____    ______ ____
ROOT
ATOM      1  C   UNL     1       2.584  -2.533   4.286  0.00  0.00    +0.104 C 
ATOM      2  C   UNL     1       1.644  -2.556   5.496  0.00  0.00    +0.063 C 
ATOM      3  C   UNL     1       1.223  -1.125   5.854  0.00  0.00    +0.215 C 
ATOM      4  N   UNL     1       2.422  -0.284   5.931  0.00  0.00    -0.238 N 
ATOM      5  C   UNL     1       3.608  -0.615   5.367  0.00  0.00    +0.130 A 
ATOM      6  C   UNL     1       4.501   0.404   5.644  0.00  0.00    +0.096 A 
ATOM      7  C   UNL     1       3.794   1.370   6.405  0.00  0.00    +0.149 A 
ATOM      8  N   UNL     1       2.569   0.948   6.565  0.00  0.00    -0.177 NA
ATOM      9  N   UNL     1       3.805  -1.787   4.651  0.00  0.00    -0.322 N 
ATOM     10  H   UNL     1       4.689  -2.101   4.405  0.00  0.00    +0.148 HD
ENDROOT
BRANCH   1  14
ATOM     11  C   UNL     1       0.651  -0.597   1.000  0.00  0.00    +0.162 A 
ATOM     12  C   UNL     1       1.222   0.157   2.013  0.00  0.00    +0.050 A 
ATOM     13  C   UNL     1       1.846  -0.472   3.074  0.00  0.00    +0.009 A 
ATOM     14  C   UNL     1       1.902  -1.853   3.127  0.00  0.00    -0.024 A 
ATOM     15  C   UNL     1       1.335  -2.610   2.119  0.00  0.00    +0.054 A 
ATOM     16  C   UNL     1       0.702  -1.986   1.056  0.00  0.00    +0.162 A 
BRANCH  11  18
ATOM     17  C   UNL     1       0.021   1.450  -0.037  0.00  0.00    +0.277 C 
ATOM     18  O   UNL     1       0.036   0.021  -0.045  0.00  0.00    -0.491 OA
ENDBRANCH  11  18
BRANCH  16  19
ATOM     19  O   UNL     1       0.138  -2.730   0.067  0.00  0.00    -0.491 OA
ATOM     20  C   UNL     1       0.229  -4.150   0.191  0.00  0.00    +0.277 C 
ENDBRANCH  16  19
ENDBRANCH   1  14
BRANCH   6  21
ATOM     21  C   UNL     1       5.907   0.472   5.231  0.00  0.00    +0.253 C 
ATOM     22  O   UNL     1       6.394  -0.430   4.576  0.00  0.00    -0.270 OA
ATOM     23  N   UNL     1       6.660   1.535   5.577  0.00  0.00    -0.280 N 
ATOM     24  H   UNL     1       6.257   2.284   6.043  0.00  0.00    +0.155 HD
BRANCH  23  25
ATOM     25  C   UNL     1       8.026   1.558   5.265  0.00  0.00    +0.047 A 
ATOM     26  C   UNL     1       8.480   0.976   4.091  0.00  0.00    +0.024 A 
ATOM     27  C   UNL     1       9.828   0.999   3.785  0.00  0.00    +0.002 A 
ATOM     28  C   UNL     1      10.727   1.602   4.645  0.00  0.00    +0.001 A 
ATOM     29  C   UNL     1      10.284   2.185   5.817  0.00  0.00    +0.016 A 
ATOM     30  C   UNL     1       8.932   2.171   6.131  0.00  0.00    +0.029 A 
BRANCH  30  31
ATOM     31  S   UNL     1       8.363   2.919   7.621  0.00  0.00    -0.127 S 
ATOM     32  C   UNL     1       9.872   3.566   8.392  0.00  0.00    +0.090 C 
ENDBRANCH  30  31
ENDBRANCH  23  25
ENDBRANCH   6  21
BRANCH   3  33
ATOM     33  C   UNL     1       0.505  -1.125   7.205  0.00  0.00    +0.412 C 
ATOM     34  F   UNL     1       1.367  -1.617   8.191  0.00  0.00    -0.168 F 
ATOM     35  F   UNL     1       0.123   0.181   7.529  0.00  0.00    -0.168 F 
ATOM     36  F   UNL     1      -0.630  -1.938   7.130  0.00  0.00    -0.168 F 
ENDBRANCH   3  33
TORSDOF 7
