REMARK  Name = ZINC66118970
REMARK  7 active torsions:
REMARK  status: ('A' for Active; 'I' for Inactive)
REMARK    1  A    between atoms: C_3  and  C_6
REMARK    2  A    between atoms: C_6  and  C_8
REMARK    3  A    between atoms: C_6  and  N_24
REMARK    4  A    between atoms: C_8  and  N_9
REMARK    5  A    between atoms: C_16  and  C_19
REMARK    6  A    between atoms: C_19  and  C_20
REMARK    7  A    between atoms: C_20  and  C_21
REMARK                            x       y       z     vdW  Elec       q    Type
REMARK                         _______ _______ _______ _____ _____    ______ ____
ROOT
ATOM      1  N   UNL     1       5.615   0.179   0.959  0.00  0.00    -0.300 N 
ATOM      2  C   UNL     1       6.334  -0.154   2.050  0.00  0.00    +0.302 C 
ATOM      3  O   UNL     1       5.804  -0.176   3.144  0.00  0.00    -0.253 OA
ATOM      4  N   UNL     1       7.640  -0.463   1.927  0.00  0.00    -0.285 N 
ATOM      5  C   UNL     1       8.323  -0.327   0.633  0.00  0.00    +0.109 C 
ATOM      6  C   UNL     1       9.570   0.543   0.823  0.00  0.00    +0.019 C 
ATOM      7  C   UNL     1      10.439  -0.053   1.933  0.00  0.00    +0.006 C 
ATOM      8  C   UNL     1       9.654  -0.065   3.246  0.00  0.00    +0.007 C 
ATOM      9  C   UNL     1       8.409  -0.936   3.086  0.00  0.00    +0.112 C 
ATOM     10  H   UNL     1       6.053   0.268   0.098  0.00  0.00    +0.150 HD
ENDROOT
BRANCH   1  11
ATOM     11  C   UNL     1       4.173   0.409   1.075  0.00  0.00    +0.098 C 
BRANCH  11  12
ATOM     12  C   UNL     1       3.581   0.649  -0.316  0.00  0.00    +0.016 C 
BRANCH  12  13
ATOM     13  N   UNL     1       2.119   0.750  -0.215  0.00  0.00    +0.387 N 
ATOM     14  C   UNL     1       1.514   0.797  -1.571  0.00  0.00    -0.078 C 
ATOM     15  C   UNL     1       0.055   0.338  -1.324  0.00  0.00    -0.020 C 
ATOM     16  C   UNL     1       0.215  -0.755  -0.243  0.00  0.00    -0.020 C 
ATOM     17  C   UNL     1       1.567  -0.460   0.432  0.00  0.00    -0.078 C 
ATOM     18  H   UNL     1       1.862   1.573   0.310  0.00  0.00    -0.081 HD
ENDBRANCH  12  13
BRANCH  12  21
ATOM     19  C   UNL     1       5.329   3.404  -2.029  0.00  0.00    +0.041 A 
ATOM     20  C   UNL     1       5.136   2.026  -1.777  0.00  0.00    +0.043 A 
ATOM     21  C   UNL     1       4.136   1.930  -0.883  0.00  0.00    +0.093 A 
ATOM     22  O   UNL     1       3.715   3.169  -0.582  0.00  0.00    -0.469 OA
ATOM     23  C   UNL     1       4.435   4.067  -1.274  0.00  0.00    +0.195 A 
ENDBRANCH  12  21
ENDBRANCH  11  12
ENDBRANCH   1  11
BRANCH   8  24
ATOM     24  C   UNL     1      10.535  -0.629   4.362  0.00  0.00    +0.014 C 
BRANCH  24  25
ATOM     25  C   UNL     1       9.795  -0.526   5.698  0.00  0.00    +0.096 C 
BRANCH  25  26
ATOM     26  C   UNL     1      10.663  -1.082   6.797  0.00  0.00    +0.210 C 
ATOM     27  O   UNL     1      11.765  -1.518   6.538  0.00  0.00    -0.276 OA
ATOM     28  N   UNL     1      10.215  -1.095   8.068  0.00  0.00    -0.329 N 
ATOM     29  H   UNL     1       9.334  -0.746   8.275  0.00  0.00    +0.145 HD
ATOM     30  H   UNL     1      10.774  -1.452   8.776  0.00  0.00    +0.145 HD
ENDBRANCH  25  26
ENDBRANCH  24  25
ENDBRANCH   8  24
TORSDOF 7
