REMARK  Name = ZINC63704999
REMARK  9 active torsions:
REMARK  status: ('A' for Active; 'I' for Inactive)
REMARK    1  A    between atoms: C_1  and  C_2
REMARK    2  A    between atoms: C_6  and  C_7
REMARK    3  A    between atoms: C_7  and  C_8
REMARK    4  A    between atoms: C_8  and  N_9
REMARK    5  A    between atoms: C_10  and  C_12
REMARK    6  A    between atoms: C_23  and  C_28
REMARK    7  A    between atoms: N_30  and  C_31
REMARK    8  A    between atoms: C_31  and  C_32
REMARK    9  A    between atoms: C_31  and  C_33
REMARK                            x       y       z     vdW  Elec       q    Type
REMARK                         _______ _______ _______ _____ _____    ______ ____
ROOT
ATOM      1  C   UNL     1      -2.560   1.211   6.482  0.00  0.00    +0.039 A 
ATOM      2  C   UNL     1      -1.343   1.472   7.121  0.00  0.00    +0.014 A 
ATOM      3  C   UNL     1      -1.321   1.943   8.404  0.00  0.00    +0.016 A 
ATOM      4  C   UNL     1      -2.522   2.163   9.076  0.00  0.00    +0.065 A 
ATOM      5  C   UNL     1      -3.744   1.907   8.449  0.00  0.00    +0.062 A 
ATOM      6  C   UNL     1      -3.765   1.433   7.144  0.00  0.00    +0.040 A 
ATOM      7  N   UNL     1      -4.955   2.131   9.134  0.00  0.00    -0.284 N 
ATOM      8  C   UNL     1      -4.905   2.595  10.398  0.00  0.00    +0.142 A 
ATOM      9  N   UNL     1      -3.765   2.849  11.017  0.00  0.00    -0.193 NA
ATOM     10  C   UNL     1      -2.561   2.671  10.461  0.00  0.00    +0.281 A 
ATOM     11  O   UNL     1      -1.537   2.918  11.074  0.00  0.00    -0.265 OA
ATOM     12  C   UNL     1      -6.268   2.812  11.070  0.00  0.00    +0.205 C 
ATOM     13  S   UNL     1      -7.395   2.291   9.719  0.00  0.00    -0.079 S 
ATOM     14  C   UNL     1      -6.151   1.879   8.517  0.00  0.00    +0.128 C 
ATOM     15  S   UNL     1      -6.395   1.292   6.928  0.00  0.00    -0.025 S 
ENDROOT
BRANCH   1  17
ATOM     16  N   UNL     1      -1.403   0.483   4.449  0.00  0.00    -0.311 N 
ATOM     17  C   UNL     1      -2.567   0.700   5.093  0.00  0.00    +0.244 C 
ATOM     18  O   UNL     1      -3.622   0.477   4.533  0.00  0.00    -0.270 OA
ATOM     19  H   UNL     1      -0.561   0.661   4.896  0.00  0.00    +0.149 HD
BRANCH  16  20
ATOM     20  C   UNL     1      -1.410  -0.022   3.074  0.00  0.00    +0.109 C 
BRANCH  20  21
ATOM     21  C   UNL     1       0.030  -0.179   2.581  0.00  0.00    +0.061 C 
BRANCH  21  27
ATOM     22  C   UNL     1      -0.018   1.503   0.010  0.00  0.00    +0.044 C 
ATOM     23  C   UNL     1       0.002  -0.004   0.002  0.00  0.00    -0.040 A 
ATOM     24  C   UNL     1       0.006  -0.699  -1.193  0.00  0.00    +0.011 A 
ATOM     25  C   UNL     1       0.024  -2.054  -1.165  0.00  0.00    +0.046 A 
ATOM     26  S   UNL     1       0.037  -2.387   0.589  0.00  0.00    -0.101 S 
ATOM     27  C   UNL     1       0.023  -0.698   1.166  0.00  0.00    -0.006 A 
ENDBRANCH  21  27
ENDBRANCH  20  21
ENDBRANCH  16  20
ENDBRANCH   1  17
BRANCH  12  28
ATOM     28  C   UNL     1      -6.425   1.929  12.281  0.00  0.00    +0.234 C 
ATOM     29  O   UNL     1      -5.866   0.854  12.324  0.00  0.00    -0.274 OA
ATOM     30  N   UNL     1      -7.185   2.335  13.317  0.00  0.00    -0.312 N 
ATOM     31  H   UNL     1      -7.632   3.195  13.283  0.00  0.00    +0.149 HD
BRANCH  30  32
ATOM     32  C   UNL     1      -7.337   1.477  14.495  0.00  0.00    +0.067 C 
ATOM     33  C   UNL     1      -7.676   2.339  15.713  0.00  0.00    +0.027 C 
ATOM     34  C   UNL     1      -8.464   0.472  14.252  0.00  0.00    +0.027 C 
ENDBRANCH  30  32
ENDBRANCH  12  28
TORSDOF 6
