REMARK  Name = ZINC14649024
REMARK  11 active torsions:
REMARK  status: ('A' for Active; 'I' for Inactive)
REMARK    1  A    between atoms: C_1  and  C_2
REMARK    2  A    between atoms: C_6  and  O_9
REMARK    3  A    between atoms: C_7  and  C_8
REMARK    4  A    between atoms: O_9  and  C_10
REMARK    5  A    between atoms: C_10  and  C_11
REMARK    6  A    between atoms: N_13  and  N_14
REMARK    7  A    between atoms: N_14  and  C_15
REMARK    8  A    between atoms: C_15  and  N_17
REMARK    9  A    between atoms: C_18  and  C_20
REMARK   10  A    between atoms: C_23  and  O_27
REMARK   11  A    between atoms: O_27  and  C_28
REMARK                            x       y       z     vdW  Elec       q    Type
REMARK                         _______ _______ _______ _____ _____    ______ ____
ROOT
ATOM      1  N   UNL     1       2.323   0.998  -0.015  0.00  0.00    -0.245 N 
ATOM      2  H   UNL     1       3.156   1.494  -0.020  0.00  0.00    +0.172 HD
ENDROOT
BRANCH   1   5
ATOM      3  C   UNL     1       3.518  -1.061  -0.037  0.00  0.00    +0.267 C 
ATOM      4  O   UNL     1       4.560  -0.441  -0.044  0.00  0.00    -0.271 OA
ATOM      5  N   UNL     1       2.342  -0.403  -0.022  0.00  0.00    -0.232 N 
ATOM      6  H   UNL     1       1.509  -0.900  -0.017  0.00  0.00    +0.173 HD
BRANCH   3   7
ATOM      7  C   UNL     1       3.539  -2.568  -0.045  0.00  0.00    +0.326 C 
BRANCH   7   8
ATOM      8  O   UNL     1       4.892  -3.026  -0.061  0.00  0.00    -0.482 OA
BRANCH   8  14
ATOM      9  C   UNL     1       7.973  -6.811  -0.112  0.00  0.00    +0.044 C 
ATOM     10  C   UNL     1       6.574  -6.252  -0.095  0.00  0.00    -0.044 A 
ATOM     11  C   UNL     1       5.488  -7.108  -0.088  0.00  0.00    +0.004 A 
ATOM     12  C   UNL     1       4.203  -6.598  -0.073  0.00  0.00    +0.004 A 
ATOM     13  C   UNL     1       4.001  -5.232  -0.064  0.00  0.00    +0.046 A 
ATOM     14  C   UNL     1       5.088  -4.371  -0.070  0.00  0.00    +0.124 A 
ATOM     15  C   UNL     1       6.377  -4.885  -0.091  0.00  0.00    -0.006 A 
ATOM     16  C   UNL     1       7.561  -3.952  -0.104  0.00  0.00    +0.048 C 
ENDBRANCH   8  14
ENDBRANCH   7   8
ENDBRANCH   3   7
ENDBRANCH   1   5
BRANCH   1  17
ATOM     17  C   UNL     1       1.147   1.655   0.000  0.00  0.00    +0.153 C 
ATOM     18  S   UNL     1       1.124   3.367   0.009  0.00  0.00    -0.017 S 
BRANCH  17  19
ATOM     19  N   UNL     1      -0.011   0.966   0.007  0.00  0.00    -0.263 N 
ATOM     20  C   UNL     1      -1.187   1.624   0.017  0.00  0.00    +0.250 C 
ATOM     21  O   UNL     1      -1.204   2.839   0.023  0.00  0.00    -0.270 OA
ATOM     22  H   UNL     1       0.002  -0.004   0.002  0.00  0.00    +0.157 HD
BRANCH  20  23
ATOM     23  C   UNL     1      -2.455   0.869   0.018  0.00  0.00    +0.038 A 
ATOM     24  C   UNL     1      -2.438  -0.529   0.005  0.00  0.00    +0.017 A 
ATOM     25  C   UNL     1      -3.623  -1.230   0.013  0.00  0.00    +0.047 A 
ATOM     26  C   UNL     1      -4.835  -0.550   0.022  0.00  0.00    +0.133 A 
ATOM     27  C   UNL     1      -4.857   0.840   0.030  0.00  0.00    +0.056 A 
ATOM     28  C   UNL     1      -3.675   1.549   0.028  0.00  0.00    +0.031 A 
ATOM     29  I   UNL     1      -6.688   1.858   0.045  0.00  0.00    -0.040 I 
BRANCH  26  30
ATOM     30  O   UNL     1      -6.001  -1.245   0.024  0.00  0.00    -0.494 OA
ATOM     31  C   UNL     1      -5.906  -2.671   0.016  0.00  0.00    +0.277 C 
ENDBRANCH  26  30
ENDBRANCH  20  23
ENDBRANCH  17  19
ENDBRANCH   1  17
TORSDOF 8
