REMARK  Name = ZINC08909065
REMARK  8 active torsions:
REMARK  status: ('A' for Active; 'I' for Inactive)
REMARK    1  A    between atoms: C_1  and  C_2
REMARK    2  A    between atoms: C_5  and  N_9
REMARK    3  A    between atoms: C_7  and  C_8
REMARK    4  A    between atoms: C_11  and  C_16
REMARK    5  A    between atoms: C_22  and  S_24
REMARK    6  A    between atoms: S_24  and  C_25
REMARK    7  A    between atoms: C_25  and  C_26
REMARK    8  A    between atoms: N_28  and  C_29
REMARK                            x       y       z     vdW  Elec       q    Type
REMARK                         _______ _______ _______ _____ _____    ______ ____
ROOT
ATOM      1  C   UNL     1      -1.171   2.028   0.032  0.00  0.00    +0.224 C 
ATOM      2  O   UNL     1      -1.179   0.815   0.051  0.00  0.00    -0.275 OA
ATOM      3  N   UNL     1       0.001   2.692  -0.025  0.00  0.00    -0.263 N 
ATOM      4  C   UNL     1       1.201   1.986  -0.062  0.00  0.00    +0.189 A 
ATOM      5  N   UNL     1       1.421   0.682  -0.045  0.00  0.00    -0.125 NA
ATOM      6  N   UNL     1       2.585   0.200  -0.089  0.00  0.00    -0.133 NA
ATOM      7  C   UNL     1       3.661   0.971  -0.143  0.00  0.00    +0.160 A 
ATOM      8  S   UNL     1       2.886   2.586  -0.138  0.00  0.00    -0.024 S 
ATOM      9  H   UNL     1       0.008   3.662  -0.040  0.00  0.00    +0.157 HD
ENDROOT
BRANCH   1  12
ATOM     10  N   UNL     1      -3.930   1.728   1.642  0.00  0.00    -0.271 N 
ATOM     11  C   UNL     1      -3.672   1.831   0.200  0.00  0.00    +0.127 C 
ATOM     12  C   UNL     1      -2.469   2.792   0.066  0.00  0.00    +0.102 C 
ATOM     13  C   UNL     1      -2.586   3.628   1.361  0.00  0.00    +0.110 C 
ATOM     14  C   UNL     1      -3.337   2.728   2.317  0.00  0.00    +0.221 C 
ATOM     15  O   UNL     1      -3.395   2.885   3.519  0.00  0.00    -0.275 OA
BRANCH  10  20
ATOM     16  C   UNL     1      -7.032  -2.364   4.053  0.00  0.00    +0.044 C 
ATOM     17  C   UNL     1      -6.209  -1.277   3.413  0.00  0.00    -0.047 A 
ATOM     18  C   UNL     1      -5.734  -0.228   4.179  0.00  0.00    +0.005 A 
ATOM     19  C   UNL     1      -4.974   0.766   3.597  0.00  0.00    +0.024 A 
ATOM     20  C   UNL     1      -4.695   0.719   2.237  0.00  0.00    +0.037 A 
ATOM     21  C   UNL     1      -5.173  -0.335   1.470  0.00  0.00    +0.027 A 
ATOM     22  C   UNL     1      -5.929  -1.330   2.060  0.00  0.00    -0.046 A 
ATOM     23  C   UNL     1      -6.448  -2.474   1.228  0.00  0.00    +0.044 C 
ENDBRANCH  10  20
ENDBRANCH   1  12
BRANCH   7  24
ATOM     24  S   UNL     1       5.367   0.534  -0.205  0.00  0.00    -0.088 S 
BRANCH  24  25
ATOM     25  C   UNL     1       5.356  -1.280  -0.176  0.00  0.00    +0.172 C 
BRANCH  25  26
ATOM     26  C   UNL     1       6.773  -1.791  -0.225  0.00  0.00    +0.228 C 
ATOM     27  O   UNL     1       7.699  -1.009  -0.274  0.00  0.00    -0.275 OA
ATOM     28  N   UNL     1       7.011  -3.118  -0.213  0.00  0.00    -0.283 N 
ATOM     29  H   UNL     1       6.276  -3.742  -0.110  0.00  0.00    +0.155 HD
BRANCH  28  30
ATOM     30  C   UNL     1       8.321  -3.596  -0.350  0.00  0.00    +0.069 A 
ATOM     31  C   UNL     1       9.382  -2.883   0.193  0.00  0.00    +0.029 A 
ATOM     32  C   UNL     1      10.672  -3.356   0.057  0.00  0.00    +0.040 A 
ATOM     33  C   UNL     1      10.911  -4.540  -0.621  0.00  0.00    +0.126 A 
ATOM     34  C   UNL     1       9.856  -5.253  -1.165  0.00  0.00    +0.078 A 
ATOM     35  C   UNL     1       8.561  -4.787  -1.026  0.00  0.00    +0.147 A 
ATOM     36  F   UNL     1       7.531  -5.486  -1.550  0.00  0.00    -0.203 F 
ATOM     37  F   UNL     1      12.174  -4.999  -0.753  0.00  0.00    -0.205 F 
ENDBRANCH  28  30
ENDBRANCH  25  26
ENDBRANCH  24  25
ENDBRANCH   7  24
TORSDOF 6
