REMARK  Name = ZINC09464342
REMARK  8 active torsions:
REMARK  status: ('A' for Active; 'I' for Inactive)
REMARK    1  A    between atoms: C_3  and  O_8
REMARK    2  A    between atoms: O_8  and  C_9
REMARK    3  A    between atoms: C_9  and  C_10
REMARK    4  A    between atoms: C_13  and  S_16
REMARK    5  A    between atoms: N_14  and  N_15
REMARK    6  A    between atoms: S_16  and  C_17
REMARK    7  A    between atoms: C_17  and  C_18
REMARK    8  A    between atoms: C_21  and  C_23
REMARK                            x       y       z     vdW  Elec       q    Type
REMARK                         _______ _______ _______ _____ _____    ______ ____
ROOT
ATOM      1  C   UNL     1      -1.118   2.173   0.018  0.00  0.00    +0.189 A 
ATOM      2  N   UNL     1      -0.692   3.404   0.026  0.00  0.00    -0.128 NA
ATOM      3  N   UNL     1       0.593   3.428   0.014  0.00  0.00    -0.121 NA
ATOM      4  C   UNL     1       1.061   2.201   0.004  0.00  0.00    +0.209 A 
ATOM      5  N   UNL     1      -0.016   1.362   0.009  0.00  0.00    -0.225 N 
ENDROOT
BRANCH   5   6
ATOM      6  N   UNL     1       0.002  -0.004   0.002  0.00  0.00    -0.295 N 
ATOM      7  H   UNL     1       0.016  -0.371   0.942  0.00  0.00    +0.163 HD
ATOM      8  H   UNL     1      -0.779  -0.373  -0.519  0.00  0.00    +0.163 HD
ENDBRANCH   5   6
BRANCH   1   9
ATOM      9  C   UNL     1      -2.557   1.725   0.022  0.00  0.00    +0.306 C 
BRANCH   9  10
ATOM     10  O   UNL     1      -3.006   1.576   1.370  0.00  0.00    -0.484 OA
BRANCH  10  13
ATOM     11  C   UNL     1      -6.101   0.601   3.016  0.00  0.00    +0.005 A 
ATOM     12  C   UNL     1      -4.794   1.009   2.834  0.00  0.00    +0.046 A 
ATOM     13  C   UNL     1      -4.292   1.174   1.551  0.00  0.00    +0.122 A 
ATOM     14  C   UNL     1      -5.106   0.934   0.454  0.00  0.00    +0.061 A 
ATOM     15  C   UNL     1      -6.411   0.521   0.640  0.00  0.00    +0.021 A 
ATOM     16  C   UNL     1      -6.909   0.357   1.921  0.00  0.00    +0.015 A 
ATOM     17 BR   UNL     1      -7.519   0.186  -0.855  0.00  0.00    -0.050 Br
ENDBRANCH  10  13
ENDBRANCH   9  10
ENDBRANCH   1   9
BRANCH   4  18
ATOM     18  S   UNL     1       2.758   1.727  -0.013  0.00  0.00    -0.078 S 
BRANCH  18  19
ATOM     19  C   UNL     1       3.540   3.360  -0.013  0.00  0.00    +0.133 C 
BRANCH  19  20
ATOM     20  C   UNL     1       5.038   3.199  -0.027  0.00  0.00    +0.059 A 
ATOM     21  C   UNL     1       5.704   3.131  -1.210  0.00  0.00    +0.071 A 
ATOM     22  S   UNL     1       7.387   2.950  -0.630  0.00  0.00    -0.075 S 
ATOM     23  C   UNL     1       7.020   2.983   1.119  0.00  0.00    +0.109 A 
ATOM     24  N   UNL     1       5.702   3.129   1.103  0.00  0.00    -0.243 NA
BRANCH  23  25
ATOM     25  C   UNL     1       7.939   2.881   2.273  0.00  0.00    +0.007 A 
ATOM     26  C   UNL     1       7.437   2.936   3.574  0.00  0.00    +0.013 A 
ATOM     27  C   UNL     1       8.298   2.835   4.647  0.00  0.00    +0.039 A 
ATOM     28  C   UNL     1       9.660   2.690   4.434  0.00  0.00    +0.123 A 
ATOM     29  C   UNL     1      10.164   2.641   3.144  0.00  0.00    +0.039 A 
ATOM     30  C   UNL     1       9.311   2.736   2.064  0.00  0.00    +0.013 A 
ATOM     31  F   UNL     1      10.500   2.597   5.489  0.00  0.00    -0.205 F 
ENDBRANCH  23  25
ENDBRANCH  19  20
ENDBRANCH  18  19
ENDBRANCH   4  18
TORSDOF 8
