REMARK  Name = ZINC12576372
REMARK  10 active torsions:
REMARK  status: ('A' for Active; 'I' for Inactive)
REMARK    1  A    between atoms: C_1  and  O_2
REMARK    2  A    between atoms: O_2  and  C_3
REMARK    3  A    between atoms: C_4  and  O_36
REMARK    4  A    between atoms: C_7  and  C_9
REMARK    5  A    between atoms: N_10  and  C_11
REMARK    6  A    between atoms: C_23  and  N_25
REMARK    7  A    between atoms: C_26  and  C_27
REMARK    8  A    between atoms: C_29  and  O_34
REMARK    9  A    between atoms: C_30  and  O_33
REMARK   10  A    between atoms: O_34  and  C_35
REMARK                            x       y       z     vdW  Elec       q    Type
REMARK                         _______ _______ _______ _____ _____    ______ ____
ROOT
ATOM      1  C   UNL     1       3.621   0.443   6.180  0.00  0.00    +0.066 A 
ATOM      2  C   UNL     1       3.419   0.076   7.498  0.00  0.00    +0.054 A 
ATOM      3  C   UNL     1       4.004   0.838   8.527  0.00  0.00    +0.049 A 
ATOM      4  N   UNL     1       3.826   0.506   9.803  0.00  0.00    -0.354 N 
ATOM      5  C   UNL     1       4.372   1.216  10.787  0.00  0.00    +0.049 A 
ATOM      6  C   UNL     1       5.195   2.394  10.494  0.00  0.00    -0.001 A 
ATOM      7  C   UNL     1       5.406   2.774   9.166  0.00  0.00    +0.020 A 
ATOM      8  C   UNL     1       4.815   2.004   8.162  0.00  0.00    -0.001 A 
ATOM      9  C   UNL     1       4.986   2.330   6.800  0.00  0.00    +0.012 A 
ATOM     10  C   UNL     1       4.406   1.563   5.845  0.00  0.00    +0.028 A 
ATOM     11  C   UNL     1       5.761   3.126  11.559  0.00  0.00    +0.012 A 
ATOM     12  C   UNL     1       5.541   2.736  12.837  0.00  0.00    +0.028 A 
ATOM     13  C   UNL     1       4.754   1.606  13.135  0.00  0.00    +0.066 A 
ATOM     14  C   UNL     1       4.174   0.851  12.132  0.00  0.00    +0.054 A 
ATOM     15  H   UNL     1       3.287  -0.270  10.021  0.00  0.00    +0.166 HD
ENDROOT
BRANCH   1  17
ATOM     16  C   UNL     1       2.454   0.297   4.188  0.00  0.00    +0.119 C 
ATOM     17  N   UNL     1       3.051  -0.298   5.183  0.00  0.00    -0.255 NA
BRANCH  16  22
ATOM     18  C   UNL     1       0.626  -0.619   1.042  0.00  0.00    +0.162 A 
ATOM     19  C   UNL     1       0.687  -2.011   1.094  0.00  0.00    +0.158 A 
ATOM     20  C   UNL     1       1.323  -2.643   2.154  0.00  0.00    +0.050 A 
ATOM     21  C   UNL     1       1.898  -1.898   3.160  0.00  0.00    +0.013 A 
ATOM     22  C   UNL     1       1.841  -0.501   3.115  0.00  0.00    -0.003 A 
ATOM     23  C   UNL     1       1.204   0.136   2.043  0.00  0.00    +0.058 A 
BRANCH  18  25
ATOM     24  C   UNL     1      -0.017   1.425   0.010  0.00  0.00    +0.277 C 
ATOM     25  O   UNL     1       0.002  -0.004   0.002  0.00  0.00    -0.491 OA
ENDBRANCH  18  25
BRANCH  19  26
ATOM     26  O   UNL     1       0.122  -2.751   0.105  0.00  0.00    -0.503 OA
ATOM     27  H   UNL     1       0.719  -2.949  -0.629  0.00  0.00    +0.292 HD
ENDBRANCH  19  26
ENDBRANCH  16  22
ENDBRANCH   1  17
BRANCH  13  28
ATOM     28  N   UNL     1       4.560   1.250  14.440  0.00  0.00    -0.255 NA
ATOM     29  C   UNL     1       5.567   1.236  15.269  0.00  0.00    +0.119 C 
BRANCH  29  30
ATOM     30  C   UNL     1       5.359   0.853  16.673  0.00  0.00    -0.003 A 
ATOM     31  C   UNL     1       6.437   0.843  17.566  0.00  0.00    +0.058 A 
ATOM     32  C   UNL     1       6.234   0.482  18.883  0.00  0.00    +0.162 A 
ATOM     33  C   UNL     1       4.958   0.128  19.321  0.00  0.00    +0.158 A 
ATOM     34  C   UNL     1       3.889   0.137  18.436  0.00  0.00    +0.050 A 
ATOM     35  C   UNL     1       4.081   0.502  17.121  0.00  0.00    +0.013 A 
BRANCH  33  36
ATOM     36  O   UNL     1       4.762  -0.228  20.617  0.00  0.00    -0.503 OA
ATOM     37  H   UNL     1       4.542   0.513  21.199  0.00  0.00    +0.292 HD
ENDBRANCH  33  36
BRANCH  32  38
ATOM     38  O   UNL     1       7.279   0.471  19.753  0.00  0.00    -0.491 OA
ATOM     39  C   UNL     1       8.558   0.844  19.236  0.00  0.00    +0.277 C 
ENDBRANCH  32  38
ENDBRANCH  29  30
ENDBRANCH  13  28
TORSDOF 8
