REMARK  Name = ZINC06296742
REMARK  6 active torsions:
REMARK  status: ('A' for Active; 'I' for Inactive)
REMARK    1  A    between atoms: C_1  and  N_2
REMARK    2  A    between atoms: N_2  and  C_3
REMARK    3  A    between atoms: N_2  and  S_10
REMARK    4  A    between atoms: S_10  and  C_13
REMARK    5  A    between atoms: C_20  and  C_23
REMARK    6  A    between atoms: N_25  and  C_26
REMARK                            x       y       z     vdW  Elec       q    Type
REMARK                         _______ _______ _______ _____ _____    ______ ____
ROOT
ATOM      1  C   UNL     1       1.558   4.124  10.659  0.00  0.00    +0.110 A 
ATOM      2  C   UNL     1       2.641   4.967  10.896  0.00  0.00    +0.031 A 
ATOM      3  C   UNL     1       3.041   5.875   9.963  0.00  0.00    +0.028 A 
ATOM      4  C   UNL     1       2.355   5.970   8.742  0.00  0.00    +0.050 A 
ATOM      5  C   UNL     1       1.254   5.112   8.504  0.00  0.00    +0.048 A 
ATOM      6  C   UNL     1       0.869   4.187   9.486  0.00  0.00    +0.042 A 
ATOM      7  C   UNL     1       0.559   5.210   7.277  0.00  0.00    +0.202 A 
ATOM      8  C   UNL     1       1.008   6.154   6.347  0.00  0.00    +0.100 A 
ATOM      9  C   UNL     1       2.110   6.965   6.665  0.00  0.00    +0.100 A 
ATOM     10  N   UNL     1       2.729   6.861   7.813  0.00  0.00    -0.360 N 
ATOM     11  O   UNL     1      -0.501   4.415   7.010  0.00  0.00    -0.286 OA
ATOM     12  H   UNL     1       3.503   7.464   8.003  0.00  0.00    +0.165 HD
ENDROOT
BRANCH   8  13
ATOM     13  C   UNL     1       0.331   6.297   5.045  0.00  0.00    +0.249 C 
ATOM     14  O   UNL     1      -0.622   5.592   4.776  0.00  0.00    -0.270 OA
ATOM     15  N   UNL     1       0.769   7.208   4.154  0.00  0.00    -0.308 N 
ATOM     16  H   UNL     1       1.529   7.771   4.369  0.00  0.00    +0.149 HD
BRANCH  15  17
ATOM     17  C   UNL     1       0.096   7.349   2.861  0.00  0.00    +0.073 C 
ATOM     18  C   UNL     1       1.062   7.935   1.810  0.00  0.00    +0.022 C 
ATOM     19  C   UNL     1       0.234   8.891   0.934  0.00  0.00    +0.002 C 
ATOM     20  C   UNL     1      -1.207   8.853   1.481  0.00  0.00    +0.002 C 
ATOM     21  C   UNL     1      -1.043   8.396   2.952  0.00  0.00    +0.022 C 
ENDBRANCH  15  17
ENDBRANCH   8  13
BRANCH   1  22
ATOM     22  S   UNL     1       1.073   2.962  11.892  0.00  0.00    +0.074 S 
ATOM     23  O   UNL     1       1.659   3.396  13.112  0.00  0.00    -0.150 OA
ATOM     24  O   UNL     1      -0.328   2.774  11.744  0.00  0.00    -0.150 OA
BRANCH  22  26
ATOM     25  C   UNL     1       1.149   0.616  10.549  0.00  0.00    +0.157 C 
ATOM     26  N   UNL     1       1.788   1.518  11.511  0.00  0.00    -0.206 N 
BRANCH  26  27
ATOM     27  C   UNL     1       2.999   1.159  12.107  0.00  0.00    +0.051 A 
ATOM     28  C   UNL     1       4.142   1.911  11.868  0.00  0.00    +0.026 A 
ATOM     29  C   UNL     1       5.337   1.557  12.463  0.00  0.00    +0.017 A 
ATOM     30  C   UNL     1       5.400   0.448  13.287  0.00  0.00    +0.018 A 
ATOM     31  C   UNL     1       4.264  -0.307  13.523  0.00  0.00    +0.017 A 
ATOM     32  C   UNL     1       3.065   0.046  12.935  0.00  0.00    +0.026 A 
ATOM     33 BR   UNL     1       7.040  -0.038  14.094  0.00  0.00    -0.050 Br
ENDBRANCH  26  27
ENDBRANCH  22  26
ENDBRANCH   1  22
TORSDOF 5
