REMARK  Name = ZINC40325221
REMARK  10 active torsions:
REMARK  status: ('A' for Active; 'I' for Inactive)
REMARK    1  A    between atoms: C_1  and  C_2
REMARK    2  A    between atoms: C_2  and  C_3
REMARK    3  A    between atoms: C_3  and  S_4
REMARK    4  A    between atoms: S_4  and  C_7
REMARK    5  A    between atoms: C_10  and  C_13
REMARK    6  A    between atoms: C_15  and  C_18
REMARK    7  A    between atoms: N_20  and  C_21
REMARK    8  A    between atoms: C_22  and  C_30
REMARK    9  A    between atoms: N_32  and  C_33
REMARK   10  A    between atoms: C_33  and  C_34
REMARK                            x       y       z     vdW  Elec       q    Type
REMARK                         _______ _______ _______ _____ _____    ______ ____
ROOT
ATOM      1  C   UNL     1       6.549  -4.610  -8.395  0.00  0.00    +0.270 C 
ATOM      2  O   UNL     1       7.541  -4.579  -7.694  0.00  0.00    -0.268 OA
ATOM      3  N   UNL     1       6.659  -4.912  -9.704  0.00  0.00    -0.274 N 
ATOM      4  H   UNL     1       5.867  -4.937 -10.264  0.00  0.00    +0.156 HD
ENDROOT
BRANCH   3   5
ATOM      5  C   UNL     1       7.902  -5.188 -10.249  0.00  0.00    +0.085 A 
ATOM      6  C   UNL     1       8.204  -5.510 -11.564  0.00  0.00    +0.069 A 
ATOM      7  C   UNL     1       9.599  -5.755 -11.884  0.00  0.00    -0.023 A 
ATOM      8  C   UNL     1      10.437  -5.634 -10.831  0.00  0.00    -0.004 A 
ATOM      9  S   UNL     1       9.390  -5.202  -9.472  0.00  0.00    -0.077 S 
ATOM     10  C   UNL     1      11.922  -5.825 -10.837  0.00  0.00    +0.043 C 
ATOM     11  C   UNL     1      12.310  -6.548 -12.135  0.00  0.00    +0.005 C 
ATOM     12  C   UNL     1      11.623  -5.853 -13.314  0.00  0.00    +0.005 C 
ATOM     13  C   UNL     1      10.116  -6.118 -13.268  0.00  0.00    +0.037 C 
BRANCH   6  14
ATOM     14  C   UNL     1       7.158  -5.599 -12.588  0.00  0.00    +0.247 C 
ATOM     15  O   UNL     1       6.854  -4.613 -13.234  0.00  0.00    -0.270 OA
ATOM     16  N   UNL     1       6.535  -6.772 -12.814  0.00  0.00    -0.312 N 
ATOM     17  H   UNL     1       6.777  -7.557 -12.299  0.00  0.00    +0.149 HD
BRANCH  16  18
ATOM     18  C   UNL     1       5.490  -6.861 -13.837  0.00  0.00    +0.101 C 
ATOM     19  C   UNL     1       4.949  -8.291 -13.890  0.00  0.00    +0.024 C 
ENDBRANCH  16  18
ENDBRANCH   6  14
ENDBRANCH   3   5
BRANCH   1  22
ATOM     20  C   UNL     1       3.619  -3.788  -6.332  0.00  0.00    +0.168 A 
ATOM     21  C   UNL     1       4.958  -3.985  -6.463  0.00  0.00    +0.086 A 
ATOM     22  C   UNL     1       5.218  -4.315  -7.811  0.00  0.00    +0.169 A 
ATOM     23  N   UNL     1       4.076  -4.314  -8.457  0.00  0.00    -0.073 NA
ATOM     24  O   UNL     1       3.051  -3.988  -7.536  0.00  0.00    -0.354 OA
BRANCH  20  28
ATOM     25  C   UNL     1       1.586  -2.744  -2.752  0.00  0.00    +0.088 A 
ATOM     26  C   UNL     1       0.872  -2.919  -3.924  0.00  0.00    +0.027 A 
ATOM     27  C   UNL     1       1.526  -3.258  -5.090  0.00  0.00    +0.013 A 
ATOM     28  C   UNL     1       2.912  -3.425  -5.086  0.00  0.00    +0.020 A 
ATOM     29  C   UNL     1       3.626  -3.247  -3.901  0.00  0.00    +0.013 A 
ATOM     30  C   UNL     1       2.961  -2.903  -2.742  0.00  0.00    +0.027 A 
BRANCH  25  31
ATOM     31  S   UNL     1       0.743  -2.311  -1.267  0.00  0.00    -0.003 S 
ATOM     32  O   UNL     1       1.576  -2.795  -0.222  0.00  0.00    -0.169 OA
ATOM     33  O   UNL     1      -0.574  -2.818  -1.437  0.00  0.00    -0.169 OA
BRANCH  31  34
ATOM     34  C   UNL     1       0.718  -0.497  -1.257  0.00  0.00    +0.171 C 
BRANCH  34  36
ATOM     35  C   UNL     1      -0.019   1.526   0.010  0.00  0.00    +0.005 C 
ATOM     36  C   UNL     1       0.002  -0.004   0.002  0.00  0.00    +0.020 C 
ENDBRANCH  34  36
ENDBRANCH  31  34
ENDBRANCH  25  31
ENDBRANCH  20  28
ENDBRANCH   1  22
TORSDOF 8
