REMARK  Name = ZINC00694529
REMARK  5 active torsions:
REMARK  status: ('A' for Active; 'I' for Inactive)
REMARK    1  A    between atoms: C_1  and  C_2
REMARK    2  A    between atoms: C_2  and  C_3
REMARK    3  A    between atoms: C_10  and  N_15
REMARK    4  A    between atoms: C_11  and  C_12
REMARK    5  A    between atoms: C_16  and  C_18
REMARK                            x       y       z     vdW  Elec       q    Type
REMARK                         _______ _______ _______ _____ _____    ______ ____
ROOT
ATOM      1  N   UNL     1      -7.016  -2.218   2.570  0.00  0.00    -0.279 N 
ATOM      2  C   UNL     1      -7.554  -1.480   3.561  0.00  0.00    +0.230 C 
ATOM      3  O   UNL     1      -6.942  -0.536   4.015  0.00  0.00    -0.274 OA
ATOM      4  H   UNL     1      -7.505  -2.973   2.207  0.00  0.00    +0.155 HD
ENDROOT
BRANCH   2   5
ATOM      5  C   UNL     1      -8.916  -1.827   4.104  0.00  0.00    +0.142 C 
ATOM      6  C   UNL     1      -9.925  -1.771   2.989  0.00  0.00    +0.011 A 
ATOM      7  C   UNL     1     -10.002  -2.820   2.090  0.00  0.00    +0.008 A 
ATOM      8  C   UNL     1     -10.922  -2.787   1.060  0.00  0.00    +0.001 A 
ATOM      9  C   UNL     1     -11.771  -1.704   0.924  0.00  0.00    +0.004 A 
ATOM     10  C   UNL     1     -11.700  -0.655   1.819  0.00  0.00    +0.046 A 
ATOM     11  C   UNL     1     -10.775  -0.685   2.857  0.00  0.00    +0.133 A 
ATOM     12  O   UNL     1     -10.720   0.353   3.725  0.00  0.00    -0.455 OA
ATOM     13  C   UNL     1     -10.163   0.185   4.948  0.00  0.00    +0.133 A 
ATOM     14  C   UNL     1      -9.280  -0.854   5.193  0.00  0.00    +0.011 A 
ATOM     15  C   UNL     1      -8.723  -1.004   6.451  0.00  0.00    +0.008 A 
ATOM     16  C   UNL     1      -9.045  -0.121   7.463  0.00  0.00    +0.001 A 
ATOM     17  C   UNL     1      -9.926   0.917   7.223  0.00  0.00    +0.004 A 
ATOM     18  C   UNL     1     -10.484   1.072   5.969  0.00  0.00    +0.046 A 
ENDBRANCH   2   5
BRANCH   1  25
ATOM     19  C   UNL     1      -1.433  -0.534   0.013  0.00  0.00    -0.006 C 
ATOM     20  C   UNL     1      -1.418  -2.060  -0.115  0.00  0.00    +0.008 C 
ATOM     21  C   UNL     1      -2.839  -2.577  -0.353  0.00  0.00    +0.037 C 
ATOM     22  C   UNL     1      -3.752  -2.005   0.722  0.00  0.00    -0.023 A 
ATOM     23  C   UNL     1      -3.389  -0.927   1.450  0.00  0.00    -0.004 A 
ATOM     24  S   UNL     1      -4.749  -0.648   2.547  0.00  0.00    -0.077 S 
ATOM     25  C   UNL     1      -5.762  -1.899   2.070  0.00  0.00    +0.084 A 
ATOM     26  C   UNL     1      -5.058  -2.540   1.063  0.00  0.00    +0.068 A 
ATOM     27  C   UNL     1      -2.113  -0.150   1.336  0.00  0.00    +0.046 C 
BRANCH  26  28
ATOM     28  C   UNL     1      -5.609  -3.709   0.371  0.00  0.00    +0.244 C 
ATOM     29  O   UNL     1      -5.392  -4.828   0.798  0.00  0.00    -0.270 OA
ATOM     30  N   UNL     1      -6.356  -3.545  -0.739  0.00  0.00    -0.325 N 
ATOM     31  H   UNL     1      -6.529  -2.653  -1.079  0.00  0.00    +0.145 HD
ATOM     32  H   UNL     1      -6.721  -4.318  -1.197  0.00  0.00    +0.145 HD
ENDBRANCH  26  28
BRANCH  19  34
ATOM     33  C   UNL     1      -0.019   1.526   0.010  0.00  0.00    +0.004 C 
ATOM     34  C   UNL     1       0.002  -0.004   0.002  0.00  0.00    +0.000 C 
ENDBRANCH  19  34
ENDBRANCH   1  25
TORSDOF 4
