REMARK  Name = ZINC17089209
REMARK  8 active torsions:
REMARK  status: ('A' for Active; 'I' for Inactive)
REMARK    1  A    between atoms: C_1  and  C_2
REMARK    2  A    between atoms: C_2  and  C_3
REMARK    3  A    between atoms: C_2  and  C_4
REMARK    4  A    between atoms: C_6  and  C_22
REMARK    5  A    between atoms: C_7  and  N_9
REMARK    6  A    between atoms: C_10  and  C_12
REMARK    7  A    between atoms: C_18  and  C_20
REMARK    8  A    between atoms: N_24  and  C_25
REMARK                            x       y       z     vdW  Elec       q    Type
REMARK                         _______ _______ _______ _____ _____    ______ ____
ROOT
ATOM      1  C   UNL     1       3.183  -2.429   5.170  0.00  0.00    -0.005 A 
ATOM      2  C   UNL     1       4.141  -2.982   4.404  0.00  0.00    +0.026 A 
ATOM      3  C   UNL     1       4.333  -2.426   3.086  0.00  0.00    +0.066 A 
ATOM      4  C   UNL     1       3.507  -1.367   2.728  0.00  0.00    +0.084 A 
ATOM      5  S   UNL     1       2.521  -1.142   4.133  0.00  0.00    -0.077 S 
ENDROOT
BRANCH   4   6
ATOM      6  N   UNL     1       3.482  -0.659   1.536  0.00  0.00    -0.279 N 
ATOM      7  C   UNL     1       2.601   0.347   1.368  0.00  0.00    +0.222 C 
ATOM      8  O   UNL     1       1.831   0.634   2.259  0.00  0.00    -0.275 OA
ATOM      9  H   UNL     1       4.099  -0.888   0.823  0.00  0.00    +0.155 HD
BRANCH   7  10
ATOM     10  C   UNL     1       2.575   1.117   0.072  0.00  0.00    +0.093 C 
ATOM     11  C   UNL     1       2.274   2.591   0.356  0.00  0.00    +0.040 C 
ATOM     12  C   UNL     1       0.850   2.751   0.800  0.00  0.00    -0.030 C 
ATOM     13  C   UNL     1      -0.070   1.858   0.624  0.00  0.00    -0.030 C 
ATOM     14  C   UNL     1       0.158   0.533  -0.045  0.00  0.00    +0.042 C 
ATOM     15  C   UNL     1       1.469   0.562  -0.834  0.00  0.00    +0.118 C 
BRANCH  15  16
ATOM     16  C   UNL     1       1.827  -0.835  -1.273  0.00  0.00    +0.360 C 
ATOM     17  O   UNL     1       2.864  -1.336  -0.907  0.00  0.00    -0.246 OA
ATOM     18  O   UNL     1       0.997  -1.520  -2.075  0.00  0.00    -0.246 OA
ENDBRANCH  15  16
ENDBRANCH   7  10
ENDBRANCH   4   6
BRANCH   3  19
ATOM     19  C   UNL     1       5.349  -2.953   2.169  0.00  0.00    +0.251 C 
ATOM     20  O   UNL     1       5.485  -2.462   1.064  0.00  0.00    -0.270 OA
ATOM     21  N   UNL     1       6.132  -3.981   2.551  0.00  0.00    -0.281 N 
ATOM     22  H   UNL     1       5.976  -4.420   3.401  0.00  0.00    +0.155 HD
BRANCH  21  23
ATOM     23  C   UNL     1       7.171  -4.414   1.721  0.00  0.00    +0.034 A 
ATOM     24  C   UNL     1       7.523  -5.758   1.690  0.00  0.00    +0.023 A 
ATOM     25  C   UNL     1       8.546  -6.183   0.866  0.00  0.00    +0.002 A 
ATOM     26  C   UNL     1       9.226  -5.272   0.079  0.00  0.00    +0.000 A 
ATOM     27  C   UNL     1       8.882  -3.933   0.111  0.00  0.00    +0.002 A 
ATOM     28  C   UNL     1       7.856  -3.502   0.929  0.00  0.00    +0.023 A 
ENDBRANCH  21  23
ENDBRANCH   3  19
BRANCH   1  30
ATOM     29  C   UNL     1       2.969  -1.606   7.499  0.00  0.00    +0.013 C 
ATOM     30  C   UNL     1       2.773  -2.806   6.570  0.00  0.00    +0.020 C 
ATOM     31  C   UNL     1       1.300  -3.220   6.576  0.00  0.00    +0.013 C 
ENDBRANCH   1  30
TORSDOF 6
