REMARK  Name = ZINC67426688
REMARK  8 active torsions:
REMARK  status: ('A' for Active; 'I' for Inactive)
REMARK    1  A    between atoms: C_1  and  C_2
REMARK    2  A    between atoms: C_7  and  N_8
REMARK    3  A    between atoms: C_9  and  C_11
REMARK    4  A    between atoms: N_13  and  C_14
REMARK    5  A    between atoms: C_14  and  C_16
REMARK    6  A    between atoms: C_14  and  C_17
REMARK    7  A    between atoms: C_20  and  N_23
REMARK    8  A    between atoms: N_26  and  C_29
REMARK                            x       y       z     vdW  Elec       q    Type
REMARK                         _______ _______ _______ _____ _____    ______ ____
ROOT
ATOM      1  C   UNL     1      -0.179   0.055   4.868  0.00  0.00    +0.300 C 
ATOM      2  O   UNL     1      -0.188   1.269   4.877  0.00  0.00    -0.265 OA
ATOM      3  N   UNL     1      -0.259  -0.628   6.027  0.00  0.00    -0.301 N 
ATOM      4  H   UNL     1      -0.252  -1.598   6.020  0.00  0.00    +0.150 HD
ENDROOT
BRANCH   1   6
ATOM      5  N   UNL     1      -0.000   0.002   2.413  0.00  0.00    -0.277 N 
ATOM      6  C   UNL     1      -0.080  -0.681   3.573  0.00  0.00    +0.303 C 
ATOM      7  O   UNL     1      -0.071  -1.895   3.563  0.00  0.00    -0.265 OA
ATOM      8  H   UNL     1       0.057   0.970   2.424  0.00  0.00    +0.155 HD
BRANCH   5  15
ATOM      9  C   UNL     1      -1.293   1.214   0.189  0.00  0.00    +0.045 C 
ATOM     10  C   UNL     1      -0.620  -0.130   0.084  0.00  0.00    -0.029 A 
ATOM     11  C   UNL     1      -0.613  -0.807  -1.119  0.00  0.00    +0.008 A 
ATOM     12  C   UNL     1       0.004  -2.040  -1.218  0.00  0.00    +0.039 A 
ATOM     13  C   UNL     1       0.619  -2.600  -0.109  0.00  0.00    +0.125 A 
ATOM     14  C   UNL     1       0.616  -1.926   1.098  0.00  0.00    +0.062 A 
ATOM     15  C   UNL     1       0.000  -0.685   1.197  0.00  0.00    +0.039 A 
ATOM     16  F   UNL     1       1.221  -3.806  -0.208  0.00  0.00    -0.205 F 
ENDBRANCH   5  15
ENDBRANCH   1   6
BRANCH   3  17
ATOM     17  C   UNL     1      -0.356   0.094   7.298  0.00  0.00    +0.101 C 
ATOM     18  C   UNL     1       1.046   0.465   7.783  0.00  0.00    +0.033 C 
BRANCH  17  19
ATOM     19  C   UNL     1      -1.027  -0.782   8.324  0.00  0.00    -0.027 A 
ATOM     20  C   UNL     1      -0.723  -2.130   8.384  0.00  0.00    +0.007 A 
ATOM     21  C   UNL     1      -1.336  -2.936   9.323  0.00  0.00    +0.023 A 
ATOM     22  C   UNL     1      -2.259  -2.392  10.208  0.00  0.00    +0.030 A 
ATOM     23  C   UNL     1      -2.562  -1.038  10.144  0.00  0.00    +0.023 A 
ATOM     24  C   UNL     1      -1.941  -0.236   9.206  0.00  0.00    +0.007 A 
BRANCH  22  25
ATOM     25  N   UNL     1      -2.881  -3.205  11.158  0.00  0.00    -0.333 N 
ATOM     26  C   UNL     1      -3.951  -2.679  12.019  0.00  0.00    +0.086 C 
ATOM     27  C   UNL     1      -5.144  -3.638  11.952  0.00  0.00    -0.060 C 
ATOM     28  N   UNL     1      -4.700  -4.994  12.297  0.00  0.00    +0.380 N 
ATOM     29  C   UNL     1      -3.747  -5.479  11.292  0.00  0.00    -0.060 C 
ATOM     30  C   UNL     1      -2.488  -4.613  11.323  0.00  0.00    +0.086 C 
ATOM     31  C   UNL     1      -5.863  -5.891  12.340  0.00  0.00    -0.096 C 
ATOM     32  H   UNL     1      -4.255  -4.981  13.203  0.00  0.00    -0.082 HD
ENDBRANCH  22  25
ENDBRANCH  17  19
ENDBRANCH   3  17
TORSDOF 5
