REMARK  Name = ZINC13247345
REMARK  9 active torsions:
REMARK  status: ('A' for Active; 'I' for Inactive)
REMARK    1  A    between atoms: C_1  and  N_2
REMARK    2  A    between atoms: N_2  and  C_3
REMARK    3  A    between atoms: N_2  and  C_4
REMARK    4  A    between atoms: C_7  and  S_23
REMARK    5  A    between atoms: C_9  and  N_10
REMARK    6  A    between atoms: N_10  and  S_11
REMARK    7  A    between atoms: S_11  and  C_14
REMARK    8  A    between atoms: C_18  and  C_20
REMARK    9  A    between atoms: S_23  and  N_26
REMARK                            x       y       z     vdW  Elec       q    Type
REMARK                         _______ _______ _______ _____ _____    ______ ____
ROOT
ATOM      1  C   UNL     1       5.121  -1.985  -2.758  0.00  0.00    +0.052 A 
ATOM      2  C   UNL     1       4.356  -2.962  -2.139  0.00  0.00    +0.027 A 
ATOM      3  C   UNL     1       3.921  -2.778  -0.839  0.00  0.00    +0.030 A 
ATOM      4  C   UNL     1       4.238  -1.618  -0.157  0.00  0.00    +0.107 A 
ATOM      5  C   UNL     1       5.000  -0.639  -0.767  0.00  0.00    +0.055 A 
ATOM      6  C   UNL     1       5.445  -0.817  -2.069  0.00  0.00    +0.071 A 
ENDROOT
BRANCH   1   8
ATOM      7  C   UNL     1       6.413  -3.369  -4.177  0.00  0.00    +0.129 C 
ATOM      8  N   UNL     1       5.567  -2.172  -4.072  0.00  0.00    -0.335 N 
ATOM      9  C   UNL     1       4.436  -2.243  -5.007  0.00  0.00    +0.129 C 
ENDBRANCH   1   8
BRANCH   4  10
ATOM     10  S   UNL     1       3.674  -1.389   1.496  0.00  0.00    +0.061 S 
ATOM     11  O   UNL     1       4.566  -0.466   2.105  0.00  0.00    -0.153 OA
ATOM     12  O   UNL     1       3.439  -2.686   2.028  0.00  0.00    -0.153 OA
BRANCH  10  13
ATOM     13  N   UNL     1       2.200  -0.639   1.412  0.00  0.00    -0.177 NA
ATOM     14  C   UNL     1       0.962  -1.426   1.334  0.00  0.00    +0.109 C 
ATOM     15  C   UNL     1       0.156  -0.960   0.118  0.00  0.00    +0.017 C 
ATOM     16  C   UNL     1      -0.065   0.552   0.208  0.00  0.00    +0.003 C 
ATOM     17  C   UNL     1       1.287   1.269   0.195  0.00  0.00    +0.017 C 
ATOM     18  C   UNL     1       2.106   0.828   1.412  0.00  0.00    +0.109 C 
ENDBRANCH  10  13
ENDBRANCH   4  10
BRANCH   6  19
ATOM     19  N   UNL     1       6.217   0.173  -2.688  0.00  0.00    -0.214 N 
ATOM     20  H   UNL     1       6.113   0.346  -3.637  0.00  0.00    +0.174 HD
BRANCH  19  21
ATOM     21  S   UNL     1       7.308   1.048  -1.802  0.00  0.00    +0.072 S 
ATOM     22  O   UNL     1       8.017   1.865  -2.723  0.00  0.00    -0.150 OA
ATOM     23  O   UNL     1       6.594   1.588  -0.698  0.00  0.00    -0.150 OA
BRANCH  21  24
ATOM     24  C   UNL     1       8.475  -0.092  -1.137  0.00  0.00    +0.109 A 
ATOM     25  C   UNL     1       8.248  -0.668   0.101  0.00  0.00    +0.031 A 
ATOM     26  C   UNL     1       9.155  -1.569   0.629  0.00  0.00    +0.041 A 
ATOM     27  C   UNL     1      10.301  -1.892  -0.074  0.00  0.00    +0.138 A 
ATOM     28  C   UNL     1      10.538  -1.308  -1.323  0.00  0.00    +0.100 A 
ATOM     29  C   UNL     1       9.613  -0.404  -1.850  0.00  0.00    +0.046 A 
ATOM     30  F   UNL     1      11.190  -2.768   0.444  0.00  0.00    -0.205 F 
BRANCH  28  31
ATOM     31  C   UNL     1      11.758  -1.647  -2.080  0.00  0.00    +0.389 C 
ATOM     32  O   UNL     1      12.561  -2.434  -1.619  0.00  0.00    -0.240 OA
ATOM     33  O   UNL     1      11.982  -1.083  -3.284  0.00  0.00    -0.240 OA
ENDBRANCH  28  31
ENDBRANCH  21  24
ENDBRANCH  19  21
ENDBRANCH   6  19
TORSDOF 7
