REMARK  Name = ZINC66342182
REMARK  4 active torsions:
REMARK  status: ('A' for Active; 'I' for Inactive)
REMARK    1  A    between atoms: C_3  and  N_8
REMARK    2  A    between atoms: C_14  and  C_16
REMARK    3  A    between atoms: C_20  and  N_23
REMARK    4  A    between atoms: C_21  and  N_22
REMARK                            x       y       z     vdW  Elec       q    Type
REMARK                         _______ _______ _______ _____ _____    ______ ____
ROOT
ATOM      1  N   UNL     1       3.635   1.956  -0.043  0.00  0.00    -0.312 N 
ATOM      2  C   UNL     1       4.901   1.214  -0.099  0.00  0.00    +0.125 C 
ATOM      3  C   UNL     1       5.713   1.718  -1.298  0.00  0.00    +0.127 C 
ATOM      4  N   UNL     1       5.754   3.187  -1.252  0.00  0.00    -0.294 N 
ATOM      5  C   UNL     1       4.487   3.929  -1.196  0.00  0.00    +0.127 C 
ATOM      6  C   UNL     1       3.676   3.425  -0.003  0.00  0.00    +0.125 C 
ATOM      7  C   UNL     1       6.933   3.840  -1.261  0.00  0.00    +0.249 C 
ATOM      8  O   UNL     1       7.972   3.220  -1.381  0.00  0.00    -0.270 OA
ENDROOT
BRANCH   1  11
ATOM      9  C   UNL     1       0.028   1.321   0.025  0.00  0.00    +0.025 A 
ATOM     10  C   UNL     1       1.231   2.004   0.017  0.00  0.00    +0.045 A 
ATOM     11  C   UNL     1       2.418   1.282  -0.033  0.00  0.00    +0.121 A 
ATOM     12  N   UNL     1       2.402  -0.042  -0.073  0.00  0.00    -0.239 NA
ATOM     13  C   UNL     1       1.270  -0.720  -0.066  0.00  0.00    +0.132 A 
ATOM     14  C   UNL     1       0.053  -0.068  -0.018  0.00  0.00    +0.059 A 
ATOM     15 CL   UNL     1      -1.427  -0.973  -0.009  0.00  0.00    -0.082 Cl
ENDBRANCH   1  11
BRANCH   7  16
ATOM     16  C   UNL     1       6.963   5.308  -1.126  0.00  0.00    +0.062 A 
ATOM     17  C   UNL     1       6.228   6.110  -2.004  0.00  0.00    +0.053 A 
ATOM     18  C   UNL     1       6.261   7.483  -1.872  0.00  0.00    +0.126 A 
ATOM     19  C   UNL     1       7.020   8.072  -0.871  0.00  0.00    +0.073 A 
ATOM     20  C   UNL     1       7.750   7.293   0.002  0.00  0.00    +0.150 A 
ATOM     21  C   UNL     1       7.724   5.908  -0.112  0.00  0.00    +0.068 A 
ATOM     22  F   UNL     1       5.550   8.257  -2.721  0.00  0.00    -0.205 F 
BRANCH  21  23
ATOM     23  N   UNL     1       8.454   5.121   0.771  0.00  0.00    -0.356 N 
ATOM     24  H   UNL     1       9.234   5.487   1.216  0.00  0.00    +0.142 HD
ATOM     25  H   UNL     1       8.183   4.206   0.943  0.00  0.00    +0.142 HD
ENDBRANCH  21  23
BRANCH  20  26
ATOM     26  N   UNL     1       8.558   7.932   1.065  0.00  0.00    +0.058 N 
ATOM     27  O   UNL     1       8.658   9.136   1.107  0.00  0.00    -0.126 OA
ATOM     28  O   UNL     1       9.117   7.250   1.892  0.00  0.00    -0.126 OA
ENDBRANCH  20  26
ENDBRANCH   7  16
TORSDOF 4
