REMARK  Name = ZINC32284904
REMARK  7 active torsions:
REMARK  status: ('A' for Active; 'I' for Inactive)
REMARK    1  A    between atoms: C_1  and  C_2
REMARK    2  A    between atoms: C_2  and  C_4
REMARK    3  A    between atoms: C_2  and  N_15
REMARK    4  A    between atoms: C_16  and  C_18
REMARK    5  A    between atoms: C_21  and  N_24
REMARK    6  A    between atoms: N_24  and  S_25
REMARK    7  A    between atoms: S_25  and  C_28
REMARK                            x       y       z     vdW  Elec       q    Type
REMARK                         _______ _______ _______ _____ _____    ______ ____
ROOT
ATOM      1  N   UNL     1       4.340   0.469  -1.094  0.00  0.00    -0.305 N 
ATOM      2  C   UNL     1       5.349  -0.291  -1.562  0.00  0.00    +0.245 C 
ATOM      3  O   UNL     1       5.419  -1.466  -1.256  0.00  0.00    -0.270 OA
ATOM      4  H   UNL     1       4.277   1.532  -1.370  0.00  0.00    +0.150 HD
ENDROOT
BRANCH   2   5
ATOM      5  C   UNL     1       6.370   0.302  -2.447  0.00  0.00    +0.037 A 
ATOM      6  C   UNL     1       6.289   1.651  -2.804  0.00  0.00    +0.015 A 
ATOM      7  C   UNL     1       7.245   2.203  -3.625  0.00  0.00    +0.027 A 
ATOM      8  C   UNL     1       8.287   1.417  -4.109  0.00  0.00    +0.074 A 
ATOM      9  C   UNL     1       8.368   0.072  -3.759  0.00  0.00    +0.027 A 
ATOM     10  C   UNL     1       7.418  -0.484  -2.934  0.00  0.00    +0.015 A 
BRANCH   8  11
ATOM     11  N   UNL     1       9.249   1.976  -4.943  0.00  0.00    -0.097 NA
BRANCH  11  12
ATOM     12  S   UNL     1       9.228   1.651  -6.566  0.00  0.00    +0.098 S 
ATOM     13  O   UNL     1      10.293   2.394  -7.143  0.00  0.00    -0.148 OA
ATOM     14  O   UNL     1       9.127   0.239  -6.696  0.00  0.00    -0.148 OA
BRANCH  12  15
ATOM     15  C   UNL     1       7.735   2.325  -7.213  0.00  0.00    +0.148 A 
ATOM     16  C   UNL     1       7.524   3.531  -7.795  0.00  0.00    +0.037 A 
ATOM     17  C   UNL     1       6.253   3.851  -8.235  0.00  0.00    +0.010 A 
ATOM     18  C   UNL     1       5.255   2.949  -8.071  0.00  0.00    +0.047 A 
ATOM     19  S   UNL     1       6.107   1.594  -7.280  0.00  0.00    -0.077 S 
ENDBRANCH  12  15
ENDBRANCH  11  12
ENDBRANCH   8  11
ENDBRANCH   2   5
BRANCH   1  21
ATOM     20  C   UNL     1       3.825  -0.090   1.231  0.00  0.00    +0.033 C 
ATOM     21  C   UNL     1       3.326  -0.120  -0.215  0.00  0.00    +0.101 C 
BRANCH  21  22
ATOM     22  C   UNL     1       2.048   0.671  -0.322  0.00  0.00    -0.024 A 
ATOM     23  C   UNL     1       2.096   2.051  -0.402  0.00  0.00    +0.009 A 
ATOM     24  C   UNL     1       0.927   2.784  -0.500  0.00  0.00    +0.050 A 
ATOM     25  C   UNL     1      -0.293   2.130  -0.518  0.00  0.00    +0.162 A 
ATOM     26  C   UNL     1      -0.342   0.745  -0.438  0.00  0.00    +0.162 A 
ATOM     27  C   UNL     1       0.831   0.015  -0.339  0.00  0.00    +0.055 A 
ATOM     28  O   UNL     1      -1.549   0.110  -0.456  0.00  0.00    -0.488 OA
ATOM     29  C   UNL     1      -2.267   0.168  -1.690  0.00  0.00    +0.232 C 
ATOM     30  C   UNL     1      -3.069   1.457  -1.787  0.00  0.00    +0.082 C 
ATOM     31  C   UNL     1      -2.180   2.689  -1.836  0.00  0.00    +0.232 C 
ATOM     32  O   UNL     1      -1.455   2.841  -0.610  0.00  0.00    -0.488 OA
ENDBRANCH  21  22
ENDBRANCH   1  21
TORSDOF 6
