REMARK  Name = ZINC13353907
REMARK  9 active torsions:
REMARK  status: ('A' for Active; 'I' for Inactive)
REMARK    1  A    between atoms: C_1  and  O_2
REMARK    2  A    between atoms: O_2  and  C_3
REMARK    3  A    between atoms: C_5  and  N_13
REMARK    4  A    between atoms: C_7  and  O_11
REMARK    5  A    between atoms: C_8  and  O_9
REMARK    6  A    between atoms: O_9  and  C_10
REMARK    7  A    between atoms: O_11  and  C_12
REMARK    8  A    between atoms: N_16  and  C_17
REMARK    9  A    between atoms: C_27  and  C_29
REMARK                            x       y       z     vdW  Elec       q    Type
REMARK                         _______ _______ _______ _____ _____    ______ ____
ROOT
ATOM      1  C   UNL     1      -2.377  -2.675   0.192  0.00  0.00    +0.037 A 
ATOM      2  C   UNL     1      -3.588  -1.987   0.216  0.00  0.00    +0.024 A 
ATOM      3  C   UNL     1      -4.771  -2.702   0.222  0.00  0.00    +0.019 A 
ATOM      4  C   UNL     1      -4.735  -4.075   0.217  0.00  0.00    +0.041 A 
ATOM      5  C   UNL     1      -3.527  -4.809   0.199  0.00  0.00    +0.082 A 
ATOM      6  C   UNL     1      -2.334  -4.050   0.186  0.00  0.00    +0.052 A 
ATOM      7  N   UNL     1      -3.659  -6.153   0.196  0.00  0.00    -0.225 NA
ATOM      8  C   UNL     1      -4.830  -6.747   0.208  0.00  0.00    +0.165 A 
ATOM      9  S   UNL     1      -5.960  -5.362   0.228  0.00  0.00    -0.052 S 
ATOM     10  N   UNL     1      -5.117  -8.102   0.207  0.00  0.00    -0.264 N 
ATOM     11  C   UNL     1      -6.398  -8.520   0.223  0.00  0.00    +0.222 C 
ATOM     12  O   UNL     1      -7.300  -7.710   0.237  0.00  0.00    -0.275 OA
ATOM     13  H   UNL     1      -4.395  -8.751   0.195  0.00  0.00    +0.157 HD
ENDROOT
BRANCH   1  17
ATOM     14  N   UNL     1       0.076  -0.133  -0.579  0.00  0.00    -0.269 N 
ATOM     15  C   UNL     1      -1.101  -0.783  -0.489  0.00  0.00    +0.308 C 
ATOM     16  O   UNL     1      -2.095  -0.316  -1.012  0.00  0.00    -0.252 OA
ATOM     17  N   UNL     1      -1.177  -1.951   0.180  0.00  0.00    -0.269 N 
ATOM     18  H   UNL     1       0.882  -0.537  -0.220  0.00  0.00    +0.156 HD
ATOM     19  H   UNL     1      -0.401  -2.290   0.653  0.00  0.00    +0.156 HD
BRANCH  14  22
ATOM     20  C   UNL     1       1.074   3.335  -1.314  0.00  0.00    +0.167 A 
ATOM     21  C   UNL     1       1.013   2.089  -0.710  0.00  0.00    +0.073 A 
ATOM     22  C   UNL     1       0.136   1.127  -1.190  0.00  0.00    +0.042 A 
ATOM     23  C   UNL     1      -0.678   1.409  -2.278  0.00  0.00    +0.073 A 
ATOM     24  C   UNL     1      -0.623   2.656  -2.880  0.00  0.00    +0.167 A 
ATOM     25  C   UNL     1       0.255   3.621  -2.400  0.00  0.00    +0.204 A 
BRANCH  20  27
ATOM     26  C   UNL     1       2.745   3.916   0.275  0.00  0.00    +0.277 C 
ATOM     27  O   UNL     1       1.934   4.278  -0.844  0.00  0.00    -0.491 OA
ENDBRANCH  20  27
BRANCH  25  28
ATOM     28  O   UNL     1       0.313   4.845  -2.994  0.00  0.00    -0.488 OA
ATOM     29  C   UNL     1       1.243   5.001  -4.068  0.00  0.00    +0.277 C 
ENDBRANCH  25  28
BRANCH  24  30
ATOM     30  O   UNL     1      -1.425   2.934  -3.943  0.00  0.00    -0.491 OA
ATOM     31  C   UNL     1      -2.303   1.896  -4.383  0.00  0.00    +0.277 C 
ENDBRANCH  24  30
ENDBRANCH  14  22
ENDBRANCH   1  17
BRANCH  11  32
ATOM     32  C   UNL     1      -6.710  -9.995   0.221  0.00  0.00    +0.075 C 
ATOM     33  C   UNL     1      -6.126 -10.638  -1.038  0.00  0.00    +0.013 C 
ATOM     34  C   UNL     1      -6.443 -12.135  -1.039  0.00  0.00    +0.001 C 
ATOM     35  C   UNL     1      -7.960 -12.336  -1.020  0.00  0.00    +0.000 C 
ATOM     36  C   UNL     1      -8.543 -11.692   0.239  0.00  0.00    +0.001 C 
ATOM     37  C   UNL     1      -8.226 -10.195   0.241  0.00  0.00    +0.013 C 
ENDBRANCH  11  32
TORSDOF 6
