REMARK  Name = ZINC33121156
REMARK  9 active torsions:
REMARK  status: ('A' for Active; 'I' for Inactive)
REMARK    1  A    between atoms: C_1  and  C_2
REMARK    2  A    between atoms: C_2  and  C_3
REMARK    3  A    between atoms: C_2  and  C_4
REMARK    4  A    between atoms: C_7  and  S_10
REMARK    5  A    between atoms: S_10  and  N_13
REMARK    6  A    between atoms: N_13  and  C_14
REMARK    7  A    between atoms: C_17  and  N_28
REMARK    8  A    between atoms: C_18  and  C_20
REMARK    9  A    between atoms: N_22  and  C_23
REMARK                            x       y       z     vdW  Elec       q    Type
REMARK                         _______ _______ _______ _____ _____    ______ ____
ROOT
ATOM      1  C   UNL     1       0.044   1.385  -0.068  0.00  0.00    +0.049 A 
ATOM      2  C   UNL     1      -1.155   2.073   0.093  0.00  0.00    +0.026 A 
ATOM      3  C   UNL     1      -1.180   3.451   0.044  0.00  0.00    +0.026 A 
ATOM      4  C   UNL     1      -0.008   4.162  -0.178  0.00  0.00    +0.042 A 
ATOM      5  C   UNL     1       1.204   3.475  -0.346  0.00  0.00    +0.059 A 
ATOM      6  C   UNL     1       1.220   2.079  -0.290  0.00  0.00    +0.039 A 
ENDROOT
BRANCH   4   7
ATOM      7  N   UNL     1      -0.035   5.553  -0.232  0.00  0.00    -0.333 N 
ATOM      8  C   UNL     1      -0.927   6.021  -1.302  0.00  0.00    +0.086 C 
ATOM      9  C   UNL     1      -0.867   7.548  -1.381  0.00  0.00    -0.063 C 
ATOM     10  N   UNL     1      -1.261   8.118  -0.085  0.00  0.00    +0.381 N 
ATOM     11  C   UNL     1      -0.369   7.650   0.986  0.00  0.00    -0.063 C 
ATOM     12  C   UNL     1      -0.428   6.123   1.064  0.00  0.00    +0.086 C 
ATOM     13  H   UNL     1      -1.207   9.216  -0.135  0.00  0.00    -0.086 HD
ATOM     14  H   UNL     1      -2.290   7.812   0.153  0.00  0.00    -0.086 HD
ENDBRANCH   4   7
BRANCH   5  15
ATOM     15  C   UNL     1       2.453   4.223  -0.583  0.00  0.00    +0.246 C 
ATOM     16  O   UNL     1       2.421   5.429  -0.729  0.00  0.00    -0.270 OA
ATOM     17  N   UNL     1       3.629   3.568  -0.637  0.00  0.00    -0.308 N 
ATOM     18  H   UNL     1       3.658   2.476  -0.505  0.00  0.00    +0.149 HD
BRANCH  17  19
ATOM     19  C   UNL     1       4.870   4.310  -0.872  0.00  0.00    +0.073 C 
ATOM     20  C   UNL     1       5.125   4.447  -2.387  0.00  0.00    +0.022 C 
ATOM     21  C   UNL     1       6.662   4.311  -2.528  0.00  0.00    +0.002 C 
ATOM     22  C   UNL     1       7.006   3.226  -1.477  0.00  0.00    +0.002 C 
ATOM     23  C   UNL     1       6.066   3.534  -0.293  0.00  0.00    +0.022 C 
ENDBRANCH  17  19
ENDBRANCH   5  15
BRANCH   1  24
ATOM     24  N   UNL     1       0.060  -0.014  -0.011  0.00  0.00    -0.216 N 
ATOM     25  H   UNL     1       0.605  -0.589  -0.774  0.00  0.00    +0.174 HD
BRANCH  24  26
ATOM     26  S   UNL     1      -0.744  -0.802   1.203  0.00  0.00    +0.072 S 
ATOM     27  O   UNL     1      -2.072  -0.297   1.207  0.00  0.00    -0.150 OA
ATOM     28  O   UNL     1      -0.456  -2.185   1.050  0.00  0.00    -0.150 OA
BRANCH  26  32
ATOM     29  C   UNL     1       1.141   0.486   5.112  0.00  0.00    -0.045 A 
ATOM     30  C   UNL     1       0.011   1.131   4.644  0.00  0.00    +0.006 A 
ATOM     31  C   UNL     1      -0.564   0.737   3.450  0.00  0.00    +0.029 A 
ATOM     32  C   UNL     1      -0.010  -0.301   2.724  0.00  0.00    +0.109 A 
ATOM     33  C   UNL     1       1.117  -0.949   3.195  0.00  0.00    +0.029 A 
ATOM     34  C   UNL     1       1.695  -0.552   4.387  0.00  0.00    +0.006 A 
BRANCH  29  36
ATOM     35  C   UNL     1       1.769  -0.259   7.392  0.00  0.00    +0.012 C 
ATOM     36  C   UNL     1       1.769   0.916   6.412  0.00  0.00    +0.013 C 
ATOM     37  C   UNL     1       3.208   1.369   6.159  0.00  0.00    +0.012 C 
ENDBRANCH  29  36
ENDBRANCH  26  32
ENDBRANCH  24  26
ENDBRANCH   1  24
TORSDOF 7
