REMARK  Name = ZINC35337739
REMARK  7 active torsions:
REMARK  status: ('A' for Active; 'I' for Inactive)
REMARK    1  A    between atoms: C_1  and  C_2
REMARK    2  A    between atoms: C_3  and  C_30
REMARK    3  A    between atoms: C_4  and  C_13
REMARK    4  A    between atoms: C_16  and  N_19
REMARK    5  A    between atoms: C_20  and  C_22
REMARK    6  A    between atoms: C_23  and  C_24
REMARK    7  A    between atoms: N_32  and  C_33
REMARK                            x       y       z     vdW  Elec       q    Type
REMARK                         _______ _______ _______ _____ _____    ______ ____
ROOT
ATOM      1  C   UNL     1      -1.300  -2.643  -1.509  0.00  0.00    -0.022 A 
ATOM      2  C   UNL     1      -0.253  -2.453  -2.393  0.00  0.00    +0.007 A 
ATOM      3  C   UNL     1      -0.383  -2.841  -3.712  0.00  0.00    +0.023 A 
ATOM      4  C   UNL     1      -1.566  -3.422  -4.151  0.00  0.00    +0.034 A 
ATOM      5  C   UNL     1      -2.615  -3.612  -3.260  0.00  0.00    +0.023 A 
ATOM      6  C   UNL     1      -2.476  -3.227  -1.941  0.00  0.00    +0.007 A 
ENDROOT
BRANCH   1  10
ATOM      7  C   UNL     1      -0.551   1.601   0.051  0.00  0.00    +0.064 C 
ATOM      8  C   UNL     1      -0.320   0.113   0.010  0.00  0.00    +0.025 C 
ATOM      9  C   UNL     1      -1.386  -0.733   0.044  0.00  0.00    +0.058 C 
ATOM     10  C   UNL     1      -1.155  -2.219  -0.070  0.00  0.00    +0.142 C 
ATOM     11  N   UNL     1       0.207  -2.526   0.403  0.00  0.00    -0.300 N 
ATOM     12  C   UNL     1       0.407  -3.758   1.158  0.00  0.00    +0.109 C 
ATOM     13  C   UNL     1       1.696  -4.477   0.794  0.00  0.00    +0.030 C 
ATOM     14  C   UNL     1       2.895  -3.609   1.206  0.00  0.00    +0.078 C 
ATOM     15  S   UNL     1       2.897  -2.140   0.133  0.00  0.00    -0.092 S 
ATOM     16  C   UNL     1       1.206  -1.635   0.149  0.00  0.00    +0.135 C 
ATOM     17  N   UNL     1       0.923  -0.355  -0.064  0.00  0.00    -0.341 N 
ATOM     18  H   UNL     1       1.644   0.258  -0.277  0.00  0.00    +0.167 HD
BRANCH   9  19
ATOM     19  C   UNL     1      -2.691  -0.225   0.184  0.00  0.00    +0.244 C 
ATOM     20  O   UNL     1      -2.871   0.977   0.276  0.00  0.00    -0.270 OA
ATOM     21  N   UNL     1      -3.742  -1.069   0.217  0.00  0.00    -0.315 N 
ATOM     22  C   UNL     1      -5.101  -0.540   0.363  0.00  0.00    +0.128 C 
ATOM     23  H   UNL     1      -3.599  -2.025   0.143  0.00  0.00    +0.149 HD
ENDBRANCH   9  19
ENDBRANCH   1  10
BRANCH   4  24
ATOM     24  N   UNL     1      -1.701  -3.816  -5.486  0.00  0.00    -0.282 N 
ATOM     25  C   UNL     1      -2.901  -3.738  -6.093  0.00  0.00    +0.241 C 
ATOM     26  O   UNL     1      -3.846  -3.237  -5.512  0.00  0.00    -0.270 OA
ATOM     27  H   UNL     1      -0.930  -4.144  -5.975  0.00  0.00    +0.155 HD
BRANCH  25  28
ATOM     28  C   UNL     1      -3.069  -4.256  -7.452  0.00  0.00    +0.068 C 
ATOM     29  C   UNL     1      -4.270  -4.179  -8.059  0.00  0.00    +0.013 C 
BRANCH  29  30
ATOM     30  C   UNL     1      -4.439  -4.700  -9.426  0.00  0.00    -0.025 A 
ATOM     31  C   UNL     1      -3.357  -5.281 -10.095  0.00  0.00    +0.008 A 
ATOM     32  C   UNL     1      -3.523  -5.767 -11.374  0.00  0.00    +0.001 A 
ATOM     33  C   UNL     1      -4.756  -5.680 -11.997  0.00  0.00    +0.000 A 
ATOM     34  C   UNL     1      -5.832  -5.106 -11.341  0.00  0.00    +0.001 A 
ATOM     35  C   UNL     1      -5.683  -4.621 -10.059  0.00  0.00    +0.008 A 
ENDBRANCH  29  30
ENDBRANCH  25  28
ENDBRANCH   4  24
TORSDOF 5
