REMARK  Name = ZINC66462210
REMARK  3 active torsions:
REMARK  status: ('A' for Active; 'I' for Inactive)
REMARK    1  A    between atoms: C_1  and  C_2
REMARK    2  A    between atoms: C_9  and  N_12
REMARK    3  A    between atoms: C_13  and  C_15
REMARK                            x       y       z     vdW  Elec       q    Type
REMARK                         _______ _______ _______ _____ _____    ______ ____
ROOT
ATOM      1  N   UNL     1       0.045  -1.961   3.623  0.00  0.00    -0.280 N 
ATOM      2  C   UNL     1      -0.043  -2.621   4.795  0.00  0.00    +0.248 C 
ATOM      3  O   UNL     1      -0.026  -3.837   4.811  0.00  0.00    -0.270 OA
ATOM      4  H   UNL     1       0.112  -0.994   3.614  0.00  0.00    +0.155 HD
ENDROOT
BRANCH   1  13
ATOM      5  C   UNL     1       2.400   0.968   0.317  0.00  0.00    +0.065 C 
ATOM      6  C   UNL     1       1.763  -0.395   0.226  0.00  0.00    +0.039 A 
ATOM      7  C   UNL     1       1.776  -1.070  -0.992  0.00  0.00    +0.023 A 
ATOM      8  C   UNL     1       1.204  -2.306  -1.093  0.00  0.00    +0.012 A 
ATOM      9  C   UNL     1       0.611  -2.859   0.058  0.00  0.00    +0.002 A 
ATOM     10  C   UNL     1       0.004  -4.125   0.029  0.00  0.00    +0.010 A 
ATOM     11  C   UNL     1      -0.561  -4.633   1.159  0.00  0.00    +0.003 A 
ATOM     12  C   UNL     1      -0.547  -3.916   2.352  0.00  0.00    +0.025 A 
ATOM     13  C   UNL     1       0.039  -2.671   2.420  0.00  0.00    +0.060 A 
ATOM     14  C   UNL     1       0.633  -2.118   1.264  0.00  0.00    +0.092 A 
ATOM     15  N   UNL     1       1.214  -0.916   1.297  0.00  0.00    -0.250 NA
ENDBRANCH   1  13
BRANCH   2  16
ATOM     16  C   UNL     1      -0.159  -1.868   6.058  0.00  0.00    +0.039 A 
ATOM     17  C   UNL     1      -0.184  -0.466   6.035  0.00  0.00    +0.014 A 
ATOM     18  C   UNL     1      -0.292   0.241   7.194  0.00  0.00    +0.011 A 
ATOM     19  C   UNL     1      -0.378  -0.433   8.417  0.00  0.00    -0.000 A 
ATOM     20  C   UNL     1      -0.499   0.004   9.808  0.00  0.00    +0.027 A 
ATOM     21  C   UNL     1      -0.539  -1.106  10.567  0.00  0.00    +0.083 A 
ATOM     22  N   UNL     1      -0.454  -2.216   9.776  0.00  0.00    -0.361 N 
ATOM     23  H   UNL     1      -0.463  -3.131  10.097  0.00  0.00    +0.165 HD
ATOM     24  C   UNL     1      -0.354  -1.841   8.453  0.00  0.00    +0.047 A 
ATOM     25  C   UNL     1      -0.250  -2.553   7.267  0.00  0.00    +0.039 A 
ENDBRANCH   2  16
TORSDOF 2
