REMARK  Name = ZINC02242418
REMARK  9 active torsions:
REMARK  status: ('A' for Active; 'I' for Inactive)
REMARK    1  A    between atoms: C_1  and  C_2
REMARK    2  A    between atoms: C_2  and  C_3
REMARK    3  A    between atoms: C_3  and  C_34
REMARK    4  A    between atoms: C_10  and  N_31
REMARK    5  A    between atoms: C_12  and  S_14
REMARK    6  A    between atoms: S_14  and  C_15
REMARK    7  A    between atoms: C_15  and  C_16
REMARK    8  A    between atoms: N_18  and  C_19
REMARK    9  A    between atoms: N_18  and  C_25
REMARK                            x       y       z     vdW  Elec       q    Type
REMARK                         _______ _______ _______ _____ _____    ______ ____
ROOT
ATOM      1  C   UNL     1       0.209  -0.508  -7.961  0.00  0.00    +0.071 C 
ATOM      2  C   UNL     1       0.732   0.046  -6.632  0.00  0.00    +0.071 C 
ATOM      3  C   UNL     1       0.199  -0.839  -5.508  0.00  0.00    -0.020 A 
ATOM      4  C   UNL     1      -0.275  -2.070  -5.796  0.00  0.00    +0.021 A 
ATOM      5  S   UNL     1      -0.785  -2.744  -4.241  0.00  0.00    -0.071 S 
ATOM      6  C   UNL     1      -0.359  -1.370  -3.202  0.00  0.00    +0.115 A 
ATOM      7  C   UNL     1       0.168  -0.425  -4.106  0.00  0.00    +0.051 A 
ATOM      8  C   UNL     1       0.598   0.802  -3.528  0.00  0.00    +0.129 A 
ATOM      9  N   UNL     1       0.477   0.980  -2.223  0.00  0.00    -0.207 NA
ATOM     10  C   UNL     1      -0.025   0.044  -1.427  0.00  0.00    +0.191 A 
ATOM     11  N   UNL     1      -0.442  -1.119  -1.910  0.00  0.00    -0.214 NA
ATOM     12  C   UNL     1      -0.339  -2.698  -7.154  0.00  0.00    +0.203 C 
ATOM     13  O   UNL     1       0.469  -1.912  -8.044  0.00  0.00    -0.368 OA
ATOM     14  C   UNL     1      -1.299  -0.268  -8.053  0.00  0.00    +0.042 C 
ENDROOT
BRANCH   8  15
ATOM     15  N   UNL     1       1.131   1.800  -4.323  0.00  0.00    -0.343 N 
ATOM     16  H   UNL     1       1.378   1.609  -5.241  0.00  0.00    +0.144 HD
ATOM     17  H   UNL     1       1.258   2.692  -3.962  0.00  0.00    +0.144 HD
ENDBRANCH   8  15
BRANCH   1  19
ATOM     18  C   UNL     1       0.301  -0.256 -10.445  0.00  0.00    +0.007 C 
ATOM     19  C   UNL     1       0.909   0.206  -9.119  0.00  0.00    +0.032 C 
ENDBRANCH   1  19
BRANCH  10  20
ATOM     20  S   UNL     1      -0.146   0.355   0.303  0.00  0.00    -0.077 S 
BRANCH  20  21
ATOM     21  C   UNL     1       0.545   2.027   0.371  0.00  0.00    +0.174 C 
BRANCH  21  22
ATOM     22  C   UNL     1       0.542   2.514   1.798  0.00  0.00    +0.234 C 
ATOM     23  O   UNL     1       0.124   1.797   2.682  0.00  0.00    -0.274 OA
ATOM     24  N   UNL     1       1.003   3.746   2.090  0.00  0.00    -0.240 N 
BRANCH  24  25
ATOM     25  C   UNL     1       1.103   4.158   3.425  0.00  0.00    +0.041 A 
ATOM     26  C   UNL     1      -0.046   4.368   4.176  0.00  0.00    +0.024 A 
ATOM     27  C   UNL     1       0.057   4.769   5.494  0.00  0.00    +0.002 A 
ATOM     28  C   UNL     1       1.301   4.972   6.061  0.00  0.00    +0.000 A 
ATOM     29  C   UNL     1       2.447   4.769   5.314  0.00  0.00    +0.002 A 
ATOM     30  C   UNL     1       2.351   4.362   3.998  0.00  0.00    +0.024 A 
ENDBRANCH  24  25
BRANCH  24  31
ATOM     31  C   UNL     1       1.381   4.615   1.059  0.00  0.00    +0.041 A 
ATOM     32  C   UNL     1       2.511   4.341   0.298  0.00  0.00    +0.024 A 
ATOM     33  C   UNL     1       2.878   5.197  -0.721  0.00  0.00    +0.002 A 
ATOM     34  C   UNL     1       2.130   6.331  -0.978  0.00  0.00    +0.000 A 
ATOM     35  C   UNL     1       1.008   6.609  -0.219  0.00  0.00    +0.002 A 
ATOM     36  C   UNL     1       0.631   5.754   0.798  0.00  0.00    +0.024 A 
ENDBRANCH  24  31
ENDBRANCH  21  22
ENDBRANCH  20  21
ENDBRANCH  10  20
TORSDOF 7
