REMARK  Name = ZINC54278072
REMARK  2 active torsions:
REMARK  status: ('A' for Active; 'I' for Inactive)
REMARK    1  A    between atoms: C_12  and  C_14
REMARK    2  A    between atoms: N_23  and  C_26
REMARK                            x       y       z     vdW  Elec       q    Type
REMARK                         _______ _______ _______ _____ _____    ______ ____
ROOT
ATOM      1  C   UNL     1      -0.240   1.300  -0.265  0.00  0.00    +0.033 C 
ATOM      2  C   UNL     1      -0.151  -0.036  -0.183  0.00  0.00    +0.031 C 
ATOM      3  C   UNL     1      -1.358  -0.877  -0.093  0.00  0.00    +0.090 C 
ATOM      4  C   UNL     1      -1.230  -2.215  -0.224  0.00  0.00    +0.249 C 
ATOM      5  O   UNL     1      -2.329  -3.005  -0.177  0.00  0.00    -0.270 OA
ATOM      6  N   UNL     1       0.015  -2.781  -0.406  0.00  0.00    -0.215 N 
ATOM      7  C   UNL     1       1.128  -1.998  -0.567  0.00  0.00    +0.199 C 
ATOM      8  N   UNL     1       1.096  -0.685  -0.185  0.00  0.00    -0.287 N 
ATOM      9  N   UNL     1       2.206  -2.503  -1.132  0.00  0.00    -0.186 NA
ATOM     10  C   UNL     1       2.215  -3.768  -1.587  0.00  0.00    +0.196 C 
ATOM     11  N   UNL     1       1.263  -4.614  -1.299  0.00  0.00    -0.335 N 
ATOM     12  C   UNL     1       0.174  -4.240  -0.393  0.00  0.00    +0.213 C 
ATOM     13  N   UNL     1       3.263  -4.185  -2.383  0.00  0.00    -0.298 N 
ATOM     14  C   UNL     1       3.887  -3.263  -3.342  0.00  0.00    +0.127 C 
ATOM     15  C   UNL     1       5.393  -3.207  -3.058  0.00  0.00    +0.124 C 
ATOM     16  N   UNL     1       5.904  -4.581  -2.962  0.00  0.00    -0.327 N 
ATOM     17  C   UNL     1       5.280  -5.503  -2.003  0.00  0.00    +0.124 C 
ATOM     18  C   UNL     1       3.778  -5.558  -2.283  0.00  0.00    +0.127 C 
ATOM     19  H   UNL     1       1.905  -0.219   0.077  0.00  0.00    +0.155 HD
ATOM     20  H   UNL     1       1.277  -5.501  -1.690  0.00  0.00    +0.164 HD
ENDROOT
BRANCH  12  21
ATOM     21  C   UNL     1       0.503  -4.698   1.005  0.00  0.00    +0.011 A 
ATOM     22  C   UNL     1       1.283  -5.826   1.209  0.00  0.00    +0.010 A 
ATOM     23  C   UNL     1       1.560  -6.210   2.512  0.00  0.00    +0.020 A 
ATOM     24  C   UNL     1       1.053  -5.461   3.557  0.00  0.00    +0.111 A 
ATOM     25  N   UNL     1       0.314  -4.394   3.325  0.00  0.00    -0.263 NA
ATOM     26  C   UNL     1       0.036  -3.995   2.099  0.00  0.00    +0.118 A 
ENDBRANCH  12  21
BRANCH  16  27
ATOM     27  C   UNL     1       6.965  -5.003  -3.767  0.00  0.00    +0.030 A 
ATOM     28  C   UNL     1       7.629  -4.091  -4.577  0.00  0.00    +0.023 A 
ATOM     29  C   UNL     1       8.678  -4.512  -5.372  0.00  0.00    +0.002 A 
ATOM     30  C   UNL     1       9.065  -5.839  -5.362  0.00  0.00    +0.000 A 
ATOM     31  C   UNL     1       8.406  -6.750  -4.557  0.00  0.00    +0.002 A 
ATOM     32  C   UNL     1       7.361  -6.335  -3.755  0.00  0.00    +0.023 A 
ENDBRANCH  16  27
TORSDOF 2
