REMARK  Name = ZINC59135278
REMARK  8 active torsions:
REMARK  status: ('A' for Active; 'I' for Inactive)
REMARK    1  A    between atoms: C_1  and  C_2
REMARK    2  A    between atoms: C_2  and  O_3
REMARK    3  A    between atoms: O_3  and  C_4
REMARK    4  A    between atoms: C_6  and  C_21
REMARK    5  A    between atoms: C_9  and  O_10
REMARK    6  A    between atoms: O_10  and  C_11
REMARK    7  A    between atoms: C_11  and  C_12
REMARK    8  A    between atoms: N_28  and  C_31
REMARK                            x       y       z     vdW  Elec       q    Type
REMARK                         _______ _______ _______ _____ _____    ______ ____
ROOT
ATOM      1  C   UNL     1      -2.233  -2.807   1.549  0.00  0.00    +0.162 A 
ATOM      2  C   UNL     1      -1.041  -3.336   1.100  0.00  0.00    +0.057 A 
ATOM      3  C   UNL     1      -0.859  -4.728   1.086  0.00  0.00    -0.020 A 
ATOM      4  C   UNL     1      -1.891  -5.570   1.528  0.00  0.00    +0.012 A 
ATOM      5  C   UNL     1      -3.067  -5.036   1.970  0.00  0.00    +0.050 A 
ATOM      6  C   UNL     1      -3.249  -3.658   1.991  0.00  0.00    +0.162 A 
ENDROOT
BRANCH   3   7
ATOM      7  C   UNL     1       0.401  -5.298   0.612  0.00  0.00    +0.026 C 
ATOM      8  C   UNL     1       0.390  -6.406  -0.220  0.00  0.00    +0.102 C 
ATOM      9  C   UNL     1       1.618  -7.162  -0.510  0.00  0.00    +0.276 C 
ATOM     10  O   UNL     1       2.799  -6.795   0.032  0.00  0.00    -0.268 OA
ATOM     11  N   UNL     1       1.539  -8.210  -1.312  0.00  0.00    -0.123 NA
ATOM     12  C   UNL     1       0.389  -8.595  -1.860  0.00  0.00    +0.340 C 
ATOM     13  O   UNL     1       0.397  -9.572  -2.589  0.00  0.00    -0.250 OA
ATOM     14  N   UNL     1      -0.779  -7.969  -1.653  0.00  0.00    -0.188 N 
ATOM     15  C   UNL     1      -0.856  -6.885  -0.852  0.00  0.00    +0.264 C 
ATOM     16  O   UNL     1      -1.916  -6.319  -0.660  0.00  0.00    -0.269 OA
BRANCH  14  17
ATOM     17  C   UNL     1      -1.939  -8.451  -2.275  0.00  0.00    +0.046 A 
ATOM     18  C   UNL     1      -2.370  -7.893  -3.471  0.00  0.00    +0.027 A 
ATOM     19  C   UNL     1      -3.513  -8.369  -4.082  0.00  0.00    +0.040 A 
ATOM     20  C   UNL     1      -4.230  -9.402  -3.502  0.00  0.00    +0.124 A 
ATOM     21  C   UNL     1      -3.802  -9.960  -2.310  0.00  0.00    +0.040 A 
ATOM     22  C   UNL     1      -2.656  -9.491  -1.698  0.00  0.00    +0.027 A 
ATOM     23  F   UNL     1      -5.349  -9.866  -4.101  0.00  0.00    -0.205 F 
ENDBRANCH  14  17
ENDBRANCH   3   7
BRANCH   1  24
ATOM     24  O   UNL     1      -2.418  -1.460   1.565  0.00  0.00    -0.489 OA
BRANCH  24  26
ATOM     25  C   UNL     1      -1.726   0.825   1.192  0.00  0.00    +0.048 C 
ATOM     26  C   UNL     1      -1.336  -0.651   1.098  0.00  0.00    +0.226 C 
ENDBRANCH  24  26
ENDBRANCH   1  24
BRANCH   6  27
ATOM     27  O   UNL     1      -4.420  -3.137   2.438  0.00  0.00    -0.484 OA
BRANCH  27  28
ATOM     28  C   UNL     1      -5.416  -4.062   2.876  0.00  0.00    +0.264 C 
BRANCH  28  29
ATOM     29  C   UNL     1      -6.637  -3.307   3.333  0.00  0.00    -0.007 A 
ATOM     30  C   UNL     1      -6.749  -2.909   4.652  0.00  0.00    +0.011 A 
ATOM     31  C   UNL     1      -7.867  -2.215   5.076  0.00  0.00    +0.050 A 
ATOM     32  C   UNL     1      -8.879  -1.917   4.178  0.00  0.00    +0.166 A 
ATOM     33  C   UNL     1      -8.767  -2.318   2.849  0.00  0.00    +0.167 A 
ATOM     34  C   UNL     1      -7.641  -3.008   2.430  0.00  0.00    +0.056 A 
ATOM     35  O   UNL     1      -9.881  -1.909   2.175  0.00  0.00    -0.453 OA
ATOM     36  C   UNL     1     -10.859  -1.614   3.190  0.00  0.00    +0.466 C 
ATOM     37  O   UNL     1     -10.064  -1.257   4.336  0.00  0.00    -0.453 OA
ENDBRANCH  28  29
ENDBRANCH  27  28
ENDBRANCH   6  27
TORSDOF 7
