REMARK  Name = ZINC39966335
REMARK  9 active torsions:
REMARK  status: ('A' for Active; 'I' for Inactive)
REMARK    1  A    between atoms: C_1  and  C_2
REMARK    2  A    between atoms: C_3  and  C_31
REMARK    3  A    between atoms: C_4  and  N_10
REMARK    4  A    between atoms: C_6  and  C_7
REMARK    5  A    between atoms: C_11  and  C_13
REMARK    6  A    between atoms: C_13  and  S_14
REMARK    7  A    between atoms: S_14  and  C_15
REMARK    8  A    between atoms: C_18  and  C_21
REMARK    9  A    between atoms: N_19  and  C_20
REMARK                            x       y       z     vdW  Elec       q    Type
REMARK                         _______ _______ _______ _____ _____    ______ ____
ROOT
ATOM      1  C   UNL     1       0.108  -5.368  -2.962  0.00  0.00    +0.173 C 
ENDROOT
BRANCH   1   3
ATOM      2  N   UNL     1       0.077  -3.042  -2.120  0.00  0.00    -0.278 N 
ATOM      3  C   UNL     1       0.194  -4.357  -1.848  0.00  0.00    +0.228 C 
ATOM      4  O   UNL     1       0.369  -4.726  -0.706  0.00  0.00    -0.275 OA
ATOM      5  H   UNL     1      -0.063  -2.747  -3.033  0.00  0.00    +0.155 HD
BRANCH   2   9
ATOM      6  C   UNL     1       0.078   1.508  -0.001  0.00  0.00    +0.046 C 
ATOM      7  C   UNL     1       0.169   0.004  -0.013  0.00  0.00    -0.012 A 
ATOM      8  C   UNL     1       0.058  -0.726  -1.187  0.00  0.00    +0.084 A 
ATOM      9  C   UNL     1       0.156  -2.115  -1.098  0.00  0.00    +0.090 A 
ATOM     10  S   UNL     1       0.391  -2.397   0.541  0.00  0.00    -0.067 S 
ATOM     11  C   UNL     1       0.372  -0.718   1.134  0.00  0.00    +0.080 A 
BRANCH  11  12
ATOM     12  C   UNL     1       0.531  -0.230   2.505  0.00  0.00    +0.248 C 
ATOM     13  O   UNL     1       0.489   0.965   2.735  0.00  0.00    -0.270 OA
ATOM     14  N   UNL     1       0.725  -1.104   3.513  0.00  0.00    -0.325 N 
ATOM     15  H   UNL     1       0.758  -2.056   3.330  0.00  0.00    +0.145 HD
ATOM     16  H   UNL     1       0.830  -0.781   4.421  0.00  0.00    +0.145 HD
ENDBRANCH  11  12
BRANCH   8  17
ATOM     17  C   UNL     1      -0.150  -0.077  -2.447  0.00  0.00    +0.102 C 
ATOM     18  N   UNL     1      -0.315   0.438  -3.446  0.00  0.00    -0.191 NA
ENDBRANCH   8  17
ENDBRANCH   2   9
ENDBRANCH   1   3
BRANCH   1  19
ATOM     19  S   UNL     1       0.301  -7.038  -2.280  0.00  0.00    -0.077 S 
BRANCH  19  20
ATOM     20  C   UNL     1       0.178  -8.090  -3.687  0.00  0.00    +0.192 A 
ATOM     21  N   UNL     1      -0.005  -7.710  -4.930  0.00  0.00    -0.122 NA
ATOM     22  N   UNL     1      -0.047  -8.735  -5.704  0.00  0.00    -0.128 NA
ATOM     23  C   UNL     1       0.107  -9.834  -5.003  0.00  0.00    +0.165 A 
ATOM     24  N   UNL     1       0.262  -9.455  -3.689  0.00  0.00    -0.305 N 
ATOM     25  C   UNL     1       0.470 -10.332  -2.534  0.00  0.00    +0.153 C 
BRANCH  23  26
ATOM     26  C   UNL     1       0.118 -11.217  -5.526  0.00  0.00    +0.030 A 
ATOM     27  C   UNL     1      -0.635 -12.183  -4.925  0.00  0.00    +0.057 A 
ATOM     28  S   UNL     1      -0.263 -13.613  -5.928  0.00  0.00    -0.101 S 
ATOM     29  C   UNL     1       0.851 -12.831  -7.067  0.00  0.00    -0.006 A 
ATOM     30  C   UNL     1       0.902 -11.542  -6.651  0.00  0.00    -0.026 A 
ATOM     31  C   UNL     1       1.774 -10.500  -7.348  0.00  0.00    +0.036 C 
ATOM     32  C   UNL     1       1.983 -10.889  -8.807  0.00  0.00    +0.005 C 
ATOM     33  C   UNL     1       3.220 -11.771  -8.959  0.00  0.00    +0.001 C 
ATOM     34  C   UNL     1       3.033 -13.075  -8.190  0.00  0.00    +0.005 C 
ATOM     35  C   UNL     1       1.554 -13.456  -8.228  0.00  0.00    +0.043 C 
ENDBRANCH  23  26
ENDBRANCH  19  20
ENDBRANCH   1  19
TORSDOF 7
