REMARK  Name = ZINC09824682
REMARK  9 active torsions:
REMARK  status: ('A' for Active; 'I' for Inactive)
REMARK    1  A    between atoms: C_1  and  C_2
REMARK    2  A    between atoms: C_6  and  N_9
REMARK    3  A    between atoms: C_7  and  C_8
REMARK    4  A    between atoms: N_9  and  C_10
REMARK    5  A    between atoms: C_11  and  S_25
REMARK    6  A    between atoms: C_12  and  N_24
REMARK    7  A    between atoms: C_13  and  C_15
REMARK    8  A    between atoms: C_15  and  C_17
REMARK    9  A    between atoms: S_25  and  C_28
REMARK                            x       y       z     vdW  Elec       q    Type
REMARK                         _______ _______ _______ _____ _____    ______ ____
ROOT
ATOM      1  C   UNL     1       3.219  -0.998  -1.948  0.00  0.00    +0.098 A 
ATOM      2  C   UNL     1       3.409   0.276  -1.449  0.00  0.00    +0.143 A 
ATOM      3  C   UNL     1       4.161   1.166  -2.174  0.00  0.00    +0.070 A 
ATOM      4  C   UNL     1       4.697   0.739  -3.395  0.00  0.00    +0.084 A 
ATOM      5  S   UNL     1       4.114  -0.946  -3.491  0.00  0.00    -0.066 S 
ENDROOT
BRANCH   3   6
ATOM      6  N   UNL     1       4.384   2.457  -1.709  0.00  0.00    -0.355 N 
ATOM      7  H   UNL     1       5.091   2.997  -2.097  0.00  0.00    +0.142 HD
ATOM      8  H   UNL     1       3.834   2.818  -0.997  0.00  0.00    +0.142 HD
ENDBRANCH   3   6
BRANCH   2   9
ATOM      9  S   UNL     1       2.704   0.748   0.095  0.00  0.00    +0.029 S 
ATOM     10  O   UNL     1       3.570   1.726   0.655  0.00  0.00    -0.164 OA
ATOM     11  O   UNL     1       2.372  -0.455   0.775  0.00  0.00    -0.164 OA
BRANCH   9  12
ATOM     12  C   UNL     1       1.183   1.565  -0.255  0.00  0.00    +0.094 A 
ATOM     13  C   UNL     1       0.010   0.837  -0.334  0.00  0.00    +0.027 A 
ATOM     14  C   UNL     1      -1.183   1.477  -0.614  0.00  0.00    +0.002 A 
ATOM     15  C   UNL     1      -1.205   2.846  -0.804  0.00  0.00    +0.000 A 
ATOM     16  C   UNL     1      -0.032   3.574  -0.724  0.00  0.00    +0.002 A 
ATOM     17  C   UNL     1       1.161   2.933  -0.449  0.00  0.00    +0.027 A 
ENDBRANCH   9  12
ENDBRANCH   2   9
BRANCH   1  18
ATOM     18  N   UNL     1       2.510  -2.049  -1.392  0.00  0.00    -0.307 N 
ATOM     19  H   UNL     1       2.170  -1.979  -0.487  0.00  0.00    +0.153 HD
BRANCH  18  25
ATOM     20  C   UNL     1       1.797  -6.910  -1.533  0.00  0.00    +0.044 C 
ATOM     21  C   UNL     1       1.935  -5.581  -2.230  0.00  0.00    -0.046 A 
ATOM     22  C   UNL     1       1.839  -5.510  -3.608  0.00  0.00    +0.004 A 
ATOM     23  C   UNL     1       1.966  -4.293  -4.252  0.00  0.00    +0.002 A 
ATOM     24  C   UNL     1       2.183  -3.142  -3.519  0.00  0.00    +0.023 A 
ATOM     25  C   UNL     1       2.285  -3.210  -2.136  0.00  0.00    +0.035 A 
ATOM     26  C   UNL     1       2.158  -4.435  -1.492  0.00  0.00    -0.026 A 
ATOM     27  C   UNL     1       2.262  -4.513   0.009  0.00  0.00    +0.046 C 
ENDBRANCH  18  25
ENDBRANCH   1  18
BRANCH   4  28
ATOM     28  C   UNL     1       5.492   1.452  -4.310  0.00  0.00    +0.202 C 
ATOM     29  O   UNL     1       5.699   2.642  -4.140  0.00  0.00    -0.286 OA
BRANCH  28  30
ATOM     30  C   UNL     1       6.076   0.760  -5.480  0.00  0.00    +0.023 A 
ATOM     31  C   UNL     1       6.263  -0.623  -5.454  0.00  0.00    +0.014 A 
ATOM     32  C   UNL     1       6.803  -1.264  -6.548  0.00  0.00    +0.039 A 
ATOM     33  C   UNL     1       7.171  -0.536  -7.669  0.00  0.00    +0.123 A 
ATOM     34  C   UNL     1       6.993   0.839  -7.698  0.00  0.00    +0.039 A 
ATOM     35  C   UNL     1       6.448   1.488  -6.611  0.00  0.00    +0.014 A 
ATOM     36  F   UNL     1       7.705  -1.168  -8.737  0.00  0.00    -0.205 F 
ENDBRANCH  28  30
ENDBRANCH   4  28
TORSDOF 7
