REMARK  Name = ZINC44018966
REMARK  7 active torsions:
REMARK  status: ('A' for Active; 'I' for Inactive)
REMARK    1  A    between atoms: C_1  and  C_2
REMARK    2  A    between atoms: N_4  and  C_5
REMARK    3  A    between atoms: C_7  and  O_28
REMARK    4  A    between atoms: C_15  and  C_18
REMARK    5  A    between atoms: C_25  and  O_27
REMARK    6  A    between atoms: O_28  and  C_29
REMARK    7  A    between atoms: C_29  and  C_31
REMARK                            x       y       z     vdW  Elec       q    Type
REMARK                         _______ _______ _______ _____ _____    ______ ____
ROOT
ATOM      1  C   UNL     1       0.255  -2.014  -1.292  0.00  0.00    +0.172 C 
ATOM      2  C   UNL     1       0.808  -2.578  -2.606  0.00  0.00    +0.233 C 
ATOM      3  C   UNL     1       0.670  -4.100  -2.576  0.00  0.00    +0.195 C 
ATOM      4  C   UNL     1      -0.810  -4.454  -2.382  0.00  0.00    +0.179 C 
ATOM      5  C   UNL     1      -0.949  -5.977  -2.395  0.00  0.00    +0.197 C 
ATOM      6  O   UNL     1      -0.385  -6.470  -3.617  0.00  0.00    -0.345 OA
ATOM      7  C   UNL     1       0.981  -6.108  -3.825  0.00  0.00    +0.282 C 
ATOM      8  O   UNL     1       1.121  -4.683  -3.798  0.00  0.00    -0.338 OA
ATOM      9  O   UNL     1      -1.258  -3.907  -1.144  0.00  0.00    -0.341 OA
ATOM     10  C   UNL     1      -1.191  -2.476  -1.102  0.00  0.00    +0.272 C 
ENDROOT
BRANCH   7  11
ATOM     11  C   UNL     1       1.830  -6.712  -2.736  0.00  0.00    +0.008 A 
ATOM     12  C   UNL     1       1.439  -7.890  -2.128  0.00  0.00    +0.008 A 
ATOM     13  C   UNL     1       2.218  -8.444  -1.130  0.00  0.00    +0.000 A 
ATOM     14  C   UNL     1       3.388  -7.820  -0.740  0.00  0.00    +0.000 A 
ATOM     15  C   UNL     1       3.780  -6.642  -1.348  0.00  0.00    +0.000 A 
ATOM     16  C   UNL     1       3.003  -6.090  -2.350  0.00  0.00    +0.008 A 
ENDBRANCH   7  11
BRANCH   1  20
ATOM     17  C   UNL     1       0.400   1.661  -0.228  0.00  0.00    +0.109 C 
ATOM     18  C   UNL     1       0.356   0.155  -0.186  0.00  0.00    +0.210 C 
ATOM     19  O   UNL     1       0.374  -0.422   0.881  0.00  0.00    -0.276 OA
ATOM     20  N   UNL     1       0.297  -0.550  -1.333  0.00  0.00    -0.304 N 
ATOM     21  H   UNL     1       0.283  -0.088  -2.186  0.00  0.00    +0.149 HD
ENDBRANCH   1  20
BRANCH  10  22
ATOM     22  O   UNL     1      -1.674  -2.017   0.162  0.00  0.00    -0.365 OA
ATOM     23  H   UNL     1      -2.587  -2.273   0.351  0.00  0.00    +0.213 HD
ENDBRANCH  10  22
BRANCH   2  24
ATOM     24  O   UNL     1       2.184  -2.219  -2.741  0.00  0.00    -0.453 OA
BRANCH  24  25
ATOM     25  C   UNL     1       2.455  -1.056  -3.366  0.00  0.00    +0.340 C 
ATOM     26  O   UNL     1       1.547  -0.366  -3.784  0.00  0.00    -0.245 OA
BRANCH  25  27
ATOM     27  C   UNL     1       3.856  -0.620  -3.541  0.00  0.00    +0.059 A 
ATOM     28  C   UNL     1       4.902  -1.414  -3.066  0.00  0.00    +0.015 A 
ATOM     29  C   UNL     1       6.207  -1.001  -3.234  0.00  0.00    +0.001 A 
ATOM     30  C   UNL     1       6.481   0.196  -3.871  0.00  0.00    +0.000 A 
ATOM     31  C   UNL     1       5.449   0.988  -4.343  0.00  0.00    +0.001 A 
ATOM     32  C   UNL     1       4.139   0.584  -4.188  0.00  0.00    +0.015 A 
ENDBRANCH  25  27
ENDBRANCH  24  25
ENDBRANCH   2  24
TORSDOF 6
