REMARK  Name = ZINC35842796
REMARK  4 active torsions:
REMARK  status: ('A' for Active; 'I' for Inactive)
REMARK    1  A    between atoms: C_1  and  C_2
REMARK    2  A    between atoms: C_7  and  N_8
REMARK    3  A    between atoms: N_11  and  C_12
REMARK    4  A    between atoms: C_25  and  C_27
REMARK                            x       y       z     vdW  Elec       q    Type
REMARK                         _______ _______ _______ _____ _____    ______ ____
ROOT
ATOM      1  C   UNL     1      -1.419  -1.186   5.244  0.00  0.00    +0.051 A 
ATOM      2  C   UNL     1      -1.135  -2.536   5.444  0.00  0.00    +0.028 A 
ATOM      3  C   UNL     1      -0.912  -2.978   6.735  0.00  0.00    +0.043 A 
ATOM      4  C   UNL     1      -0.979  -2.067   7.784  0.00  0.00    +0.099 A 
ATOM      5  N   UNL     1      -1.252  -0.793   7.558  0.00  0.00    -0.348 N 
ATOM      6  C   UNL     1      -1.464  -0.335   6.338  0.00  0.00    +0.107 A 
ATOM      7  N   UNL     1      -0.756  -2.502   9.088  0.00  0.00    -0.315 N 
ATOM      8  C   UNL     1      -0.977  -1.553  10.189  0.00  0.00    +0.108 C 
ATOM      9  C   UNL     1      -1.713  -2.186  11.373  0.00  0.00    +0.038 C 
ATOM     10  C   UNL     1      -2.825  -3.090  10.880  0.00  0.00    +0.109 C 
ATOM     11  N   UNL     1      -2.254  -4.413  10.629  0.00  0.00    -0.296 N 
ATOM     12  C   UNL     1      -1.567  -4.782   9.441  0.00  0.00    +0.127 C 
ATOM     13  C   UNL     1      -0.322  -3.873   9.294  0.00  0.00    +0.125 C 
ATOM     14  C   UNL     1      -2.389  -5.348  11.591  0.00  0.00    +0.247 C 
ATOM     15  O   UNL     1      -1.833  -6.423  11.477  0.00  0.00    -0.270 OA
ATOM     16  H   UNL     1      -1.293  -0.178   8.307  0.00  0.00    +0.167 HD
ENDROOT
BRANCH  14  17
ATOM     17  C   UNL     1      -3.213  -5.066  12.784  0.00  0.00    +0.037 A 
ATOM     18  C   UNL     1      -4.041  -6.058  13.315  0.00  0.00    +0.016 A 
ATOM     19  C   UNL     1      -4.808  -5.789  14.429  0.00  0.00    +0.039 A 
ATOM     20  C   UNL     1      -4.759  -4.536  15.021  0.00  0.00    +0.123 A 
ATOM     21  C   UNL     1      -3.939  -3.548  14.499  0.00  0.00    +0.039 A 
ATOM     22  C   UNL     1      -3.163  -3.808  13.389  0.00  0.00    +0.016 A 
ATOM     23  F   UNL     1      -5.513  -4.278  16.112  0.00  0.00    -0.205 F 
ENDBRANCH  14  17
BRANCH   1  27
ATOM     24  N   UNL     1      -2.261  -1.067   1.730  0.00  0.00    -0.269 N 
ATOM     25  C   UNL     1      -2.135  -1.511   2.996  0.00  0.00    +0.308 C 
ATOM     26  O   UNL     1      -2.458  -2.649   3.276  0.00  0.00    -0.252 OA
ATOM     27  N   UNL     1      -1.652  -0.693   3.952  0.00  0.00    -0.268 N 
ATOM     28  H   UNL     1      -1.943  -0.182   1.492  0.00  0.00    +0.156 HD
ATOM     29  H   UNL     1      -1.466   0.236   3.747  0.00  0.00    +0.156 HD
BRANCH  24  36
ATOM     30  C   UNL     1      -3.831   0.175  -0.293  0.00  0.00    +0.045 C 
ATOM     31  C   UNL     1      -3.625  -1.317  -0.247  0.00  0.00    -0.029 A 
ATOM     32  C   UNL     1      -4.202  -2.124  -1.209  0.00  0.00    +0.005 A 
ATOM     33  C   UNL     1      -4.013  -3.494  -1.168  0.00  0.00    +0.000 A 
ATOM     34  C   UNL     1      -3.248  -4.060  -0.165  0.00  0.00    +0.002 A 
ATOM     35  C   UNL     1      -2.669  -3.258   0.800  0.00  0.00    +0.023 A 
ATOM     36  C   UNL     1      -2.852  -1.882   0.758  0.00  0.00    +0.038 A 
ENDBRANCH  24  36
ENDBRANCH   1  27
TORSDOF 3
