REMARK  Name = ZINC39275509
REMARK  2 active torsions:
REMARK  status: ('A' for Active; 'I' for Inactive)
REMARK    1  A    between atoms: C_6  and  N_7
REMARK    2  A    between atoms: N_7  and  C_8
REMARK                            x       y       z     vdW  Elec       q    Type
REMARK                         _______ _______ _______ _____ _____    ______ ____
ROOT
ATOM      1  C   UNL     1      -1.180  -2.180  -0.108  0.00  0.00    +0.245 C 
ATOM      2  C   UNL     1      -2.167  -2.747   0.882  0.00  0.00    +0.129 C 
ATOM      3  N   UNL     1      -2.352  -2.710   2.162  0.00  0.00    -0.233 NA
ATOM      4  C   UNL     1      -3.442  -3.436   2.476  0.00  0.00    +0.224 C 
ATOM      5  N   UNL     1      -3.993  -3.963   1.411  0.00  0.00    -0.215 NA
ATOM      6  C   UNL     1      -3.263  -3.590   0.327  0.00  0.00    +0.183 C 
ATOM      7  N   UNL     1      -3.316  -3.796  -0.958  0.00  0.00    -0.194 NA
ATOM      8  C   UNL     1      -2.427  -3.286  -1.837  0.00  0.00    +0.212 C 
ATOM      9  N   UNL     1      -1.421  -2.532  -1.522  0.00  0.00    -0.223 NA
ATOM     10  N   UNL     1      -2.606  -3.588  -3.173  0.00  0.00    -0.328 N 
ATOM     11  H   UNL     1      -3.349  -4.147  -3.449  0.00  0.00    +0.145 HD
ATOM     12  H   UNL     1      -1.989  -3.240  -3.836  0.00  0.00    +0.145 HD
ENDROOT
BRANCH   1  13
ATOM     13  N   UNL     1      -1.198  -0.720   0.010  0.00  0.00    -0.318 N 
ATOM     14  H   UNL     1      -2.042  -0.243   0.002  0.00  0.00    +0.148 HD
BRANCH  13  20
ATOM     15  C   UNL     1       1.216  -0.672  -0.023  0.00  0.00    +0.024 A 
ATOM     16  C   UNL     1       2.400   0.028   0.100  0.00  0.00    +0.017 A 
ATOM     17  C   UNL     1       2.378   1.383   0.380  0.00  0.00    +0.018 A 
ATOM     18  C   UNL     1       1.171   2.040   0.538  0.00  0.00    +0.017 A 
ATOM     19  C   UNL     1      -0.017   1.345   0.416  0.00  0.00    +0.024 A 
ATOM     20  C   UNL     1       0.002  -0.015   0.135  0.00  0.00    +0.029 A 
ATOM     21 BR   UNL     1       4.001   2.338   0.549  0.00  0.00    -0.050 Br
ENDBRANCH  13  20
ENDBRANCH   1  13
TORSDOF 2
