REMARK  Name = ZINC62827303
REMARK  6 active torsions:
REMARK  status: ('A' for Active; 'I' for Inactive)
REMARK    1  A    between atoms: C_3  and  C_18
REMARK    2  A    between atoms: C_4  and  N_8
REMARK    3  A    between atoms: N_11  and  C_12
REMARK    4  A    between atoms: N_11  and  C_15
REMARK    5  A    between atoms: C_12  and  C_13
REMARK    6  A    between atoms: C_13  and  O_14
REMARK                            x       y       z     vdW  Elec       q    Type
REMARK                         _______ _______ _______ _____ _____    ______ ____
ROOT
ATOM      1  N   UNL     1       2.493  -2.624   0.491  0.00  0.00    -0.268 N 
ATOM      2  C   UNL     1       3.625  -1.938   0.238  0.00  0.00    +0.307 C 
ATOM      3  O   UNL     1       3.582  -0.735   0.069  0.00  0.00    -0.252 OA
ATOM      4  N   UNL     1       4.805  -2.586   0.172  0.00  0.00    -0.280 N 
ATOM      5  H   UNL     1       2.533  -3.576   0.671  0.00  0.00    +0.156 HD
ENDROOT
BRANCH   1   9
ATOM      6  C   UNL     1      -1.181  -0.650   0.495  0.00  0.00    +0.002 A 
ATOM      7  C   UNL     1      -0.874  -1.506   1.530  0.00  0.00    +0.017 A 
ATOM      8  C   UNL     1       0.355  -2.174   1.540  0.00  0.00    +0.085 A 
ATOM      9  C   UNL     1       1.266  -1.966   0.492  0.00  0.00    +0.063 A 
ATOM     10  C   UNL     1       0.938  -1.099  -0.542  0.00  0.00    +0.040 A 
ATOM     11  C   UNL     1      -0.280  -0.447  -0.537  0.00  0.00    +0.017 A 
ATOM     12 BR   UNL     1       2.158  -0.810  -1.957  0.00  0.00    -0.048 Br
BRANCH   8  13
ATOM     13  C   UNL     1       0.691  -3.089   2.643  0.00  0.00    +0.388 C 
ATOM     14  O   UNL     1      -0.065  -3.199   3.598  0.00  0.00    -0.241 OA
ATOM     15  O   UNL     1       1.726  -3.740   2.603  0.00  0.00    -0.241 OA
ENDBRANCH   8  13
ENDBRANCH   1   9
BRANCH   4  16
ATOM     16  C   UNL     1       6.024  -1.855  -0.183  0.00  0.00    +0.078 C 
ATOM     17  C   UNL     1       5.988  -0.329  -0.078  0.00  0.00    +0.024 C 
ATOM     18  C   UNL     1       5.990  -1.000  -1.452  0.00  0.00    +0.024 C 
ENDBRANCH   4  16
BRANCH   4  19
ATOM     19  C   UNL     1       4.869  -4.022   0.456  0.00  0.00    +0.137 C 
BRANCH  19  20
ATOM     20  C   UNL     1       4.657  -4.808  -0.839  0.00  0.00    +0.175 C 
BRANCH  20  21
ATOM     21  O   UNL     1       5.740  -4.551  -1.736  0.00  0.00    -0.393 OA
ATOM     22  H   UNL     1       5.671  -5.018  -2.580  0.00  0.00    +0.209 HD
ENDBRANCH  20  21
ENDBRANCH  19  20
ENDBRANCH   4  19
TORSDOF 6
