REMARK  Name = ZINC02889368
REMARK  10 active torsions:
REMARK  status: ('A' for Active; 'I' for Inactive)
REMARK    1  A    between atoms: C_1  and  C_2
REMARK    2  A    between atoms: C_4  and  C_30
REMARK    3  A    between atoms: C_5  and  C_29
REMARK    4  A    between atoms: C_6  and  S_9
REMARK    5  A    between atoms: C_7  and  C_8
REMARK    6  A    between atoms: S_9  and  N_12
REMARK    7  A    between atoms: N_12  and  C_13
REMARK    8  A    between atoms: C_13  and  C_14
REMARK    9  A    between atoms: N_16  and  C_17
REMARK   10  A    between atoms: C_18  and  C_26
REMARK                            x       y       z     vdW  Elec       q    Type
REMARK                         _______ _______ _______ _____ _____    ______ ____
ROOT
ATOM      1  C   UNL     1       3.785  -2.130   4.183  0.00  0.00    +0.233 C 
ATOM      2  O   UNL     1       3.866  -3.273   4.580  0.00  0.00    -0.274 OA
ATOM      3  N   UNL     1       4.800  -1.269   4.395  0.00  0.00    -0.278 N 
ATOM      4  H   UNL     1       4.736  -0.355   4.078  0.00  0.00    +0.155 HD
ENDROOT
BRANCH   3   5
ATOM      5  C   UNL     1       5.938  -1.691   5.067  0.00  0.00    +0.084 A 
ATOM      6  C   UNL     1       7.067  -0.951   5.378  0.00  0.00    +0.068 A 
ATOM      7  C   UNL     1       8.131  -1.633   6.095  0.00  0.00    -0.023 A 
ATOM      8  C   UNL     1       7.870  -2.929   6.369  0.00  0.00    -0.004 A 
ATOM      9  S   UNL     1       6.259  -3.214   5.698  0.00  0.00    -0.077 S 
ATOM     10  C   UNL     1       8.762  -3.893   7.088  0.00  0.00    +0.043 C 
ATOM     11  C   UNL     1      10.176  -3.296   7.139  0.00  0.00    +0.005 C 
ATOM     12  C   UNL     1      10.083  -1.842   7.609  0.00  0.00    +0.005 C 
ATOM     13  C   UNL     1       9.440  -0.982   6.519  0.00  0.00    +0.037 C 
BRANCH   6  14
ATOM     14  C   UNL     1       7.184   0.460   4.998  0.00  0.00    +0.244 C 
ATOM     15  O   UNL     1       6.796   1.329   5.758  0.00  0.00    -0.270 OA
ATOM     16  N   UNL     1       7.721   0.796   3.809  0.00  0.00    -0.325 N 
ATOM     17  H   UNL     1       8.031   0.104   3.204  0.00  0.00    +0.145 HD
ATOM     18  H   UNL     1       7.799   1.730   3.558  0.00  0.00    +0.145 HD
ENDBRANCH   6  14
ENDBRANCH   3   5
BRANCH   1  19
ATOM     19  C   UNL     1       2.549  -1.671   3.453  0.00  0.00    +0.201 C 
BRANCH  19  20
ATOM     20  N   UNL     1       1.601  -2.783   3.351  0.00  0.00    -0.181 NA
ATOM     21  H   UNL     1       1.897  -3.690   3.526  0.00  0.00    +0.149 HD
BRANCH  20  22
ATOM     22  S   UNL     1       0.024  -2.491   2.938  0.00  0.00    +0.059 S 
ATOM     23  O   UNL     1      -0.425  -1.431   3.771  0.00  0.00    -0.153 OA
ATOM     24  O   UNL     1      -0.626  -3.755   2.898  0.00  0.00    -0.153 OA
BRANCH  22  30
ATOM     25  C   UNL     1      -0.192  -3.212  -2.234  0.00  0.00    +0.044 C 
ATOM     26  C   UNL     1      -0.079  -2.260  -1.072  0.00  0.00    -0.045 A 
ATOM     27  C   UNL     1       0.023  -0.900  -1.300  0.00  0.00    +0.007 A 
ATOM     28  C   UNL     1       0.126  -0.027  -0.233  0.00  0.00    -0.045 A 
ATOM     29  C   UNL     1       0.126  -0.513   1.061  0.00  0.00    -0.021 A 
ATOM     30  C   UNL     1       0.023  -1.872   1.289  0.00  0.00    +0.112 A 
ATOM     31  C   UNL     1      -0.085  -2.745   0.223  0.00  0.00    -0.021 A 
ATOM     32  C   UNL     1      -0.202  -4.227   0.471  0.00  0.00    +0.046 C 
ATOM     33  C   UNL     1       0.240   0.440   2.223  0.00  0.00    +0.046 C 
ATOM     34  C   UNL     1       0.239   1.455  -0.482  0.00  0.00    +0.044 C 
ENDBRANCH  22  30
ENDBRANCH  20  22
ENDBRANCH  19  20
ENDBRANCH   1  19
TORSDOF 6
