REMARK  Name = ZINC26062032
REMARK  10 active torsions:
REMARK  status: ('A' for Active; 'I' for Inactive)
REMARK    1  A    between atoms: C_1  and  C_2
REMARK    2  A    between atoms: C_2  and  C_3
REMARK    3  A    between atoms: C_2  and  C_4
REMARK    4  A    between atoms: C_4  and  C_6
REMARK    5  A    between atoms: C_4  and  N_22
REMARK    6  A    between atoms: N_8  and  C_9
REMARK    7  A    between atoms: C_13  and  S_15
REMARK    8  A    between atoms: S_15  and  N_18
REMARK    9  A    between atoms: N_18  and  C_19
REMARK   10  A    between atoms: C_23  and  C_25
REMARK                            x       y       z     vdW  Elec       q    Type
REMARK                         _______ _______ _______ _____ _____    ______ ____
ROOT
ATOM      1  C   UNL     1      -1.729   7.388  -1.390  0.00  0.00    +0.162 C 
ENDROOT
BRANCH   1   2
ATOM      2  C   UNL     1      -2.889   7.943  -2.176  0.00  0.00    +0.238 C 
ATOM      3  O   UNL     1      -3.467   7.242  -2.979  0.00  0.00    -0.273 OA
ATOM      4  N   UNL     1      -3.284   9.217  -1.986  0.00  0.00    -0.284 N 
ATOM      5  H   UNL     1      -2.847   9.813  -1.171  0.00  0.00    +0.155 HD
BRANCH   4   6
ATOM      6  C   UNL     1      -4.249   9.783  -2.826  0.00  0.00    +0.035 A 
ATOM      7  C   UNL     1      -5.226   8.981  -3.402  0.00  0.00    +0.023 A 
ATOM      8  C   UNL     1      -6.178   9.543  -4.230  0.00  0.00    +0.004 A 
ATOM      9  C   UNL     1      -6.159  10.901  -4.486  0.00  0.00    +0.028 A 
ATOM     10  C   UNL     1      -5.188  11.702  -3.914  0.00  0.00    +0.107 A 
ATOM     11  C   UNL     1      -4.236  11.148  -3.081  0.00  0.00    +0.051 A 
BRANCH  10  12
ATOM     12  S   UNL     1      -5.168  13.433  -4.244  0.00  0.00    +0.059 S 
ATOM     13  O   UNL     1      -3.834  13.873  -4.026  0.00  0.00    -0.153 OA
ATOM     14  O   UNL     1      -5.838  13.618  -5.483  0.00  0.00    -0.153 OA
BRANCH  12  15
ATOM     15  N   UNL     1      -6.102  14.162  -3.087  0.00  0.00    -0.187 NA
ATOM     16  H   UNL     1      -7.104  14.527  -3.357  0.00  0.00    +0.148 HD
BRANCH  15  17
ATOM     17  C   UNL     1      -5.691  14.124  -1.682  0.00  0.00    +0.077 C 
ATOM     18  C   UNL     1      -6.794  14.058  -0.624  0.00  0.00    +0.022 C 
ATOM     19  C   UNL     1      -6.001  15.351  -0.822  0.00  0.00    +0.022 C 
ENDBRANCH  15  17
ENDBRANCH  12  15
ENDBRANCH  10  12
ENDBRANCH   4   6
ENDBRANCH   1   2
BRANCH   1  20
ATOM     20  N   UNL     1      -1.938   5.957  -1.154  0.00  0.00    -0.303 N 
ATOM     21  C   UNL     1      -1.353   5.355  -0.100  0.00  0.00    +0.220 C 
ATOM     22  O   UNL     1      -0.653   5.998   0.654  0.00  0.00    -0.275 OA
ATOM     23  H   UNL     1      -2.572   5.374  -1.838  0.00  0.00    +0.149 HD
BRANCH  21  24
ATOM     24  C   UNL     1      -1.568   3.884   0.142  0.00  0.00    +0.048 C 
ATOM     25  C   UNL     1      -1.063   3.089  -1.064  0.00  0.00    +0.019 C 
ATOM     26  C   UNL     1      -1.282   1.595  -0.818  0.00  0.00    -0.009 C 
ATOM     27  C   UNL     1      -0.512   1.166   0.433  0.00  0.00    +0.007 C 
ATOM     28  C   UNL     1      -1.017   1.960   1.639  0.00  0.00    -0.009 C 
ATOM     29  C   UNL     1      -0.799   3.455   1.393  0.00  0.00    +0.019 C 
ATOM     30  C   UNL     1      -2.510   1.690   1.840  0.00  0.00    +0.007 C 
ATOM     31  C   UNL     1      -3.279   2.118   0.589  0.00  0.00    -0.009 C 
ATOM     32  C   UNL     1      -2.774   1.324  -0.617  0.00  0.00    +0.007 C 
ATOM     33  C   UNL     1      -3.060   3.612   0.343  0.00  0.00    +0.019 C 
ENDBRANCH  21  24
ENDBRANCH   1  20
BRANCH   1  35
ATOM     34  C   UNL     1       0.762   7.218  -1.301  0.00  0.00    +0.009 C 
ATOM     35  C   UNL     1      -0.434   7.591  -2.179  0.00  0.00    +0.012 C 
ATOM     36  C   UNL     1      -0.450   6.701  -3.424  0.00  0.00    +0.009 C 
ENDBRANCH   1  35
TORSDOF 8
