REMARK  Name = ZINC43962371
REMARK  10 active torsions:
REMARK  status: ('A' for Active; 'I' for Inactive)
REMARK    1  A    between atoms: C_1  and  C_2
REMARK    2  A    between atoms: C_2  and  C_3
REMARK    3  A    between atoms: C_2  and  C_4
REMARK    4  A    between atoms: C_4  and  O_5
REMARK    5  A    between atoms: O_5  and  C_6
REMARK    6  A    between atoms: C_9  and  S_12
REMARK    7  A    between atoms: S_12  and  N_15
REMARK    8  A    between atoms: N_15  and  C_16
REMARK    9  A    between atoms: C_16  and  C_17
REMARK   10  A    between atoms: N_25  and  C_26
REMARK                            x       y       z     vdW  Elec       q    Type
REMARK                         _______ _______ _______ _____ _____    ______ ____
ROOT
ATOM      1  C   UNL     1      -5.368  -5.745  -3.041  0.00  0.00    +0.109 C 
ENDROOT
BRANCH   1   2
ATOM      2  C   UNL     1      -6.562  -6.076  -3.938  0.00  0.00    +0.007 C 
ATOM      3  C   UNL     1      -7.335  -7.255  -3.344  0.00  0.00    +0.024 C 
ATOM      4  C   UNL     1      -8.550  -7.560  -4.226  0.00  0.00    +0.109 C 
ATOM      5  N   UNL     1      -8.090  -7.774  -5.606  0.00  0.00    -0.285 N 
ATOM      6  C   UNL     1      -7.261  -6.741  -6.242  0.00  0.00    +0.109 C 
ATOM      7  C   UNL     1      -6.061  -6.445  -5.337  0.00  0.00    +0.024 C 
ATOM      8  C   UNL     1      -8.422  -8.897  -6.274  0.00  0.00    +0.306 C 
ATOM      9  O   UNL     1      -9.026  -9.786  -5.706  0.00  0.00    -0.252 OA
ATOM     10  N   UNL     1      -8.084  -9.033  -7.571  0.00  0.00    -0.269 N 
ATOM     11  H   UNL     1      -7.535  -8.360  -8.003  0.00  0.00    +0.156 HD
BRANCH  10  12
ATOM     12  C   UNL     1      -8.523 -10.148  -8.296  0.00  0.00    +0.035 A 
ATOM     13  C   UNL     1      -9.759 -10.716  -8.016  0.00  0.00    +0.026 A 
ATOM     14  C   UNL     1     -10.191 -11.815  -8.732  0.00  0.00    +0.040 A 
ATOM     15  C   UNL     1      -9.393 -12.351  -9.728  0.00  0.00    +0.124 A 
ATOM     16  C   UNL     1      -8.160 -11.787 -10.008  0.00  0.00    +0.040 A 
ATOM     17  C   UNL     1      -7.726 -10.684  -9.299  0.00  0.00    +0.026 A 
ATOM     18  F   UNL     1      -9.817 -13.426 -10.428  0.00  0.00    -0.205 F 
ENDBRANCH  10  12
ENDBRANCH   1   2
BRANCH   1  19
ATOM     19  N   UNL     1      -5.850  -5.277  -1.739  0.00  0.00    -0.190 NA
ATOM     20  H   UNL     1      -6.777  -5.012  -1.632  0.00  0.00    +0.148 HD
BRANCH  19  21
ATOM     21  S   UNL     1      -4.813  -5.201  -0.450  0.00  0.00    +0.058 S 
ATOM     22  O   UNL     1      -4.140  -6.451  -0.396  0.00  0.00    -0.153 OA
ATOM     23  O   UNL     1      -5.562  -4.691   0.644  0.00  0.00    -0.153 OA
BRANCH  21  27
ATOM     24  C   UNL     1      -1.678  -2.085  -1.437  0.00  0.00    +0.121 A 
ATOM     25  C   UNL     1      -2.845  -1.714  -0.784  0.00  0.00    +0.047 A 
ATOM     26  C   UNL     1      -3.800  -2.667  -0.484  0.00  0.00    +0.032 A 
ATOM     27  C   UNL     1      -3.593  -3.988  -0.834  0.00  0.00    +0.105 A 
ATOM     28  C   UNL     1      -2.431  -4.360  -1.485  0.00  0.00    +0.032 A 
ATOM     29  C   UNL     1      -1.476  -3.411  -1.792  0.00  0.00    +0.047 A 
BRANCH  24  30
ATOM     30  O   UNL     1      -0.738  -1.150  -1.733  0.00  0.00    -0.492 OA
BRANCH  30  31
ATOM     31  C   UNL     1      -1.013   0.195  -1.337  0.00  0.00    +0.232 C 
BRANCH  31  33
ATOM     32  C   UNL     1      -0.197   2.555  -1.441  0.00  0.00    +0.010 C 
ATOM     33  C   UNL     1       0.151   1.098  -1.752  0.00  0.00    +0.020 C 
ATOM     34  C   UNL     1       1.408   0.697  -0.978  0.00  0.00    +0.010 C 
ENDBRANCH  31  33
ENDBRANCH  30  31
ENDBRANCH  24  30
ENDBRANCH  21  27
ENDBRANCH  19  21
ENDBRANCH   1  19
TORSDOF 8
