REMARK  Name = ZINC06507101
REMARK  6 active torsions:
REMARK  status: ('A' for Active; 'I' for Inactive)
REMARK    1  A    between atoms: C_1  and  C_2
REMARK    2  A    between atoms: C_9  and  N_29
REMARK    3  A    between atoms: C_10  and  C_27
REMARK    4  A    between atoms: C_17  and  O_19
REMARK    5  A    between atoms: O_19  and  C_20
REMARK    6  A    between atoms: C_20  and  C_21
REMARK                            x       y       z     vdW  Elec       q    Type
REMARK                         _______ _______ _______ _____ _____    ______ ____
ROOT
ATOM      1  C   UNL     1      -0.018   1.503   0.010  0.00  0.00    +0.068 C 
ATOM      2  C   UNL     1       0.002  -0.004   0.002  0.00  0.00    +0.067 A 
ATOM      3  C   UNL     1       0.008  -0.813  -1.126  0.00  0.00    +0.048 A 
ATOM      4  C   UNL     1       0.028  -2.116  -0.713  0.00  0.00    +0.222 A 
ATOM      5  N   UNL     1       0.033  -2.116   0.630  0.00  0.00    -0.246 N 
ATOM      6  H   UNL     1       0.046  -2.900   1.201  0.00  0.00    +0.192 HD
ATOM      7  N   UNL     1       0.023  -0.780   1.060  0.00  0.00    -0.176 NA
ATOM      8  O   UNL     1       0.041  -3.159  -1.580  0.00  0.00    -0.423 OA
ATOM      9  C   UNL     1       0.307  -2.892  -2.875  0.00  0.00    +0.200 C 
ATOM     10  C   UNL     1       0.305  -1.648  -3.403  0.00  0.00    +0.097 C 
ATOM     11  C   UNL     1      -0.004  -0.423  -2.581  0.00  0.00    +0.045 C 
ATOM     12  C   UNL     1      -1.386   0.114  -2.959  0.00  0.00    +0.036 C 
ATOM     13  C   UNL     1      -1.402   0.470  -4.449  0.00  0.00    +0.112 C 
ATOM     14  N   UNL     1      -0.296   1.396  -4.726  0.00  0.00    -0.267 N 
ATOM     15  C   UNL     1       1.064   1.012  -4.324  0.00  0.00    +0.112 C 
ATOM     16  C   UNL     1       1.055   0.650  -2.836  0.00  0.00    +0.036 C 
ATOM     17  C   UNL     1      -0.524   2.576  -5.336  0.00  0.00    +0.403 C 
ATOM     18  O   UNL     1      -1.654   2.882  -5.664  0.00  0.00    -0.226 OA
ENDROOT
BRANCH   9  19
ATOM     19  N   UNL     1       0.599  -3.946  -3.705  0.00  0.00    -0.328 N 
ATOM     20  H   UNL     1       0.608  -4.851  -3.356  0.00  0.00    +0.145 HD
ATOM     21  H   UNL     1       0.794  -3.786  -4.642  0.00  0.00    +0.145 HD
ENDBRANCH   9  19
BRANCH  10  22
ATOM     22  C   UNL     1       0.608  -1.487  -4.793  0.00  0.00    +0.101 C 
ATOM     23  N   UNL     1       0.849  -1.360  -5.896  0.00  0.00    -0.191 NA
ENDBRANCH  10  22
BRANCH  17  24
ATOM     24  O   UNL     1       0.499   3.415  -5.584  0.00  0.00    -0.445 OA
BRANCH  24  25
ATOM     25  C   UNL     1       0.184   4.648  -6.235  0.00  0.00    +0.269 C 
BRANCH  25  26
ATOM     26  C   UNL     1       1.445   5.450  -6.427  0.00  0.00    -0.010 A 
ATOM     27  C   UNL     1       1.858   6.334  -5.447  0.00  0.00    +0.007 A 
ATOM     28  C   UNL     1       3.015   7.070  -5.624  0.00  0.00    +0.000 A 
ATOM     29  C   UNL     1       3.758   6.923  -6.780  0.00  0.00    +0.000 A 
ATOM     30  C   UNL     1       3.345   6.039  -7.759  0.00  0.00    +0.000 A 
ATOM     31  C   UNL     1       2.191   5.299  -7.581  0.00  0.00    +0.007 A 
ENDBRANCH  25  26
ENDBRANCH  24  25
ENDBRANCH  17  24
TORSDOF 5
