REMARK  Name = ZINC39592681
REMARK  7 active torsions:
REMARK  status: ('A' for Active; 'I' for Inactive)
REMARK    1  A    between atoms: C_6  and  C_7
REMARK    2  A    between atoms: C_9  and  C_13
REMARK    3  A    between atoms: C_17  and  S_21
REMARK    4  A    between atoms: N_19  and  N_20
REMARK    5  A    between atoms: S_21  and  C_22
REMARK    6  A    between atoms: C_22  and  C_23
REMARK    7  A    between atoms: N_25  and  C_26
REMARK                            x       y       z     vdW  Elec       q    Type
REMARK                         _______ _______ _______ _____ _____    ______ ____
ROOT
ATOM      1  C   UNL     1      -3.186  -3.189   1.188  0.00  0.00    +0.244 C 
ATOM      2  N   UNL     1      -2.959  -2.432   2.426  0.00  0.00    -0.167 NA
ATOM      3  N   UNL     1      -4.023  -2.024   2.901  0.00  0.00    -0.159 NA
ATOM      4  C   UNL     1      -5.165  -2.429   2.072  0.00  0.00    +0.272 C 
ATOM      5  N   UNL     1      -4.636  -3.510   1.198  0.00  0.00    -0.183 NA
ENDROOT
BRANCH   1   8
ATOM      6  C   UNL     1      -1.246  -0.732  -0.003  0.00  0.00    +0.091 C 
ATOM      7  C   UNL     1      -1.343  -2.072  -0.095  0.00  0.00    +0.035 C 
ATOM      8  C   UNL     1      -2.838  -2.333  -0.032  0.00  0.00    +0.195 C 
ATOM      9  N   UNL     1      -3.409  -0.983   0.097  0.00  0.00    -0.176 NA
ATOM     10  N   UNL     1      -2.479  -0.173   0.110  0.00  0.00    -0.154 NA
BRANCH   6  16
ATOM     11  C   UNL     1       0.016   1.417   0.088  0.00  0.00    +0.013 A 
ATOM     12  C   UNL     1       1.204   2.119   0.074  0.00  0.00    +0.039 A 
ATOM     13  C   UNL     1       2.408   1.444  -0.046  0.00  0.00    +0.123 A 
ATOM     14  C   UNL     1       2.426   0.062  -0.152  0.00  0.00    +0.039 A 
ATOM     15  C   UNL     1       1.243  -0.647  -0.139  0.00  0.00    +0.013 A 
ATOM     16  C   UNL     1       0.029   0.027  -0.018  0.00  0.00    +0.002 A 
ATOM     17  F   UNL     1       3.569   2.135  -0.059  0.00  0.00    -0.205 F 
ENDBRANCH   6  16
ENDBRANCH   1   8
BRANCH   5  18
ATOM     18  N   UNL     1      -4.876  -4.819   1.782  0.00  0.00    -0.263 NA
ATOM     19  H   UNL     1      -5.849  -5.076   1.706  0.00  0.00    +0.137 HD
ATOM     20  H   UNL     1      -4.283  -5.518   1.360  0.00  0.00    +0.137 HD
ENDBRANCH   5  18
BRANCH   4  21
ATOM     21  S   UNL     1      -6.510  -3.059   3.114  0.00  0.00    -0.107 S 
BRANCH  21  22
ATOM     22  C   UNL     1      -7.234  -1.565   3.846  0.00  0.00    +0.168 C 
BRANCH  22  23
ATOM     23  C   UNL     1      -8.297  -1.958   4.839  0.00  0.00    +0.227 C 
ATOM     24  O   UNL     1      -8.542  -3.129   5.035  0.00  0.00    -0.275 OA
ATOM     25  N   UNL     1      -8.976  -1.006   5.511  0.00  0.00    -0.283 N 
ATOM     26  H   UNL     1      -8.734  -0.073   5.407  0.00  0.00    +0.155 HD
BRANCH  25  27
ATOM     27  C   UNL     1     -10.032  -1.366   6.359  0.00  0.00    +0.069 A 
ATOM     28  C   UNL     1      -9.989  -2.568   7.051  0.00  0.00    +0.027 A 
ATOM     29  C   UNL     1     -11.031  -2.920   7.887  0.00  0.00    +0.017 A 
ATOM     30  C   UNL     1     -12.118  -2.076   8.034  0.00  0.00    +0.021 A 
ATOM     31  C   UNL     1     -12.165  -0.877   7.346  0.00  0.00    +0.055 A 
ATOM     32  C   UNL     1     -11.122  -0.516   6.512  0.00  0.00    +0.146 A 
ATOM     33  F   UNL     1     -11.165   0.657   5.844  0.00  0.00    -0.204 F 
ATOM     34 BR   UNL     1     -13.542  -2.564   9.179  0.00  0.00    -0.050 Br
ENDBRANCH  25  27
ENDBRANCH  22  23
ENDBRANCH  21  22
ENDBRANCH   4  21
TORSDOF 7
