REMARK  Name = ZINC20479786
REMARK  4 active torsions:
REMARK  status: ('A' for Active; 'I' for Inactive)
REMARK    1  A    between atoms: C_1  and  C_2
REMARK    2  A    between atoms: C_5  and  C_7
REMARK    3  A    between atoms: C_12  and  C_13
REMARK    4  A    between atoms: C_18  and  C_21
REMARK                            x       y       z     vdW  Elec       q    Type
REMARK                         _______ _______ _______ _____ _____    ______ ____
ROOT
ATOM      1  C   UNL     1       1.748   3.210   0.002  0.00  0.00    +0.043 A 
ATOM      2  C   UNL     1       2.470   3.725   1.093  0.00  0.00    -0.014 A 
ATOM      3  C   UNL     1       2.891   5.031   1.066  0.00  0.00    +0.047 A 
ATOM      4  N   UNL     1       2.617   5.809   0.023  0.00  0.00    -0.236 NA
ATOM      5  C   UNL     1       1.944   5.386  -1.031  0.00  0.00    +0.135 A 
ATOM      6  C   UNL     1       1.485   4.060  -1.094  0.00  0.00    +0.102 A 
ATOM      7  N   UNL     1       1.694   6.252  -2.081  0.00  0.00    -0.342 N 
ATOM      8  C   UNL     1       3.678   5.646   2.196  0.00  0.00    +0.056 C 
ATOM      9  C   UNL     1       3.537   4.812   3.467  0.00  0.00    +0.010 C 
ATOM     10  C   UNL     1       3.864   3.353   3.127  0.00  0.00    -0.009 C 
ATOM     11  C   UNL     1       2.741   2.801   2.251  0.00  0.00    +0.041 C 
ATOM     12  C   UNL     1       3.963   2.533   4.415  0.00  0.00    +0.008 C 
ATOM     13  H   UNL     1       1.134   5.903  -2.961  0.00  0.00    +0.144 HD
ATOM     14  H   UNL     1       2.056   7.290  -2.037  0.00  0.00    +0.144 HD
ENDROOT
BRANCH   1  19
ATOM     15  C   UNL     1       1.796  -1.804  -0.024  0.00  0.00    +0.086 C 
ATOM     16  C   UNL     1       1.297  -0.382  -0.012  0.00  0.00    +0.103 A 
ATOM     17  C   UNL     1       0.002  -0.004   0.002  0.00  0.00    +0.045 A 
ATOM     18  C   UNL     1      -0.017   1.403   0.010  0.00  0.00    +0.050 A 
ATOM     19  C   UNL     1       1.282   1.813  -0.000  0.00  0.00    +0.137 A 
ATOM     20  O   UNL     1       2.066   0.717  -0.014  0.00  0.00    -0.460 OA
ENDBRANCH   1  19
BRANCH   6  21
ATOM     21  C   UNL     1       0.764   3.584  -2.236  0.00  0.00    +0.103 C 
ATOM     22  N   UNL     1       0.193   3.207  -3.143  0.00  0.00    -0.191 NA
ENDBRANCH   6  21
TORSDOF 2
