REMARK  Name = ZINC33106832
REMARK  6 active torsions:
REMARK  status: ('A' for Active; 'I' for Inactive)
REMARK    1  A    between atoms: C_1  and  C_2
REMARK    2  A    between atoms: C_5  and  C_33
REMARK    3  A    between atoms: C_6  and  N_8
REMARK    4  A    between atoms: C_15  and  C_18
REMARK    5  A    between atoms: C_21  and  C_23
REMARK    6  A    between atoms: N_25  and  C_26
REMARK                            x       y       z     vdW  Elec       q    Type
REMARK                         _______ _______ _______ _____ _____    ______ ____
ROOT
ATOM      1  N   UNL     1      -4.602   2.536   1.215  0.00  0.00    -0.269 N 
ATOM      2  C   UNL     1      -3.930   2.155   0.110  0.00  0.00    +0.306 C 
ATOM      3  O   UNL     1      -4.353   2.451  -0.990  0.00  0.00    -0.252 OA
ATOM      4  N   UNL     1      -2.790   1.446   0.226  0.00  0.00    -0.285 N 
ATOM      5  C   UNL     1      -2.108   0.925  -0.967  0.00  0.00    +0.109 C 
ATOM      6  C   UNL     1      -0.649   1.391  -0.944  0.00  0.00    +0.020 C 
ATOM      7  C   UNL     1      -0.006   0.973   0.381  0.00  0.00    +0.013 C 
ATOM      8  C   UNL     1      -0.745   1.642   1.542  0.00  0.00    +0.064 C 
ATOM      9  C   UNL     1      -2.205   1.180   1.547  0.00  0.00    +0.119 C 
ATOM     10  H   UNL     1      -4.186   2.325   2.212  0.00  0.00    +0.156 HD
ENDROOT
BRANCH   1  16
ATOM     11  C   UNL     1      -7.640   5.370  -1.413  0.00  0.00    +0.044 C 
ATOM     12  C   UNL     1      -7.327   4.580  -0.169  0.00  0.00    -0.049 A 
ATOM     13  C   UNL     1      -8.253   4.510   0.856  0.00  0.00    +0.004 A 
ATOM     14  C   UNL     1      -7.970   3.787   2.000  0.00  0.00    +0.005 A 
ATOM     15  C   UNL     1      -6.762   3.126   2.119  0.00  0.00    -0.029 A 
ATOM     16  C   UNL     1      -5.828   3.199   1.095  0.00  0.00    +0.038 A 
ATOM     17  C   UNL     1      -6.116   3.927  -0.053  0.00  0.00    +0.027 A 
ATOM     18  C   UNL     1      -6.457   2.332   3.363  0.00  0.00    +0.045 C 
ENDBRANCH   1  16
BRANCH   8  19
ATOM     19  C   UNL     1      -0.091   1.256   2.844  0.00  0.00    +0.107 A 
ATOM     20  N   UNL     1       0.078   0.059   3.377  0.00  0.00    -0.145 NA
ATOM     21  N   UNL     1       0.653  -0.104   4.489  0.00  0.00    -0.136 NA
ATOM     22  C   UNL     1       1.112   0.945   5.166  0.00  0.00    +0.187 A 
ATOM     23  S   UNL     1       0.654   2.265   4.049  0.00  0.00    -0.046 S 
BRANCH  22  24
ATOM     24  C   UNL     1       1.806   1.002   6.464  0.00  0.00    +0.275 C 
ATOM     25  O   UNL     1       2.151   2.075   6.922  0.00  0.00    -0.268 OA
ATOM     26  N   UNL     1       2.059  -0.134   7.144  0.00  0.00    -0.280 N 
ATOM     27  H   UNL     1       1.681  -1.096   6.767  0.00  0.00    +0.155 HD
BRANCH  26  28
ATOM     28  C   UNL     1       2.801  -0.089   8.329  0.00  0.00    +0.034 A 
ATOM     29  C   UNL     1       3.660  -1.132   8.651  0.00  0.00    +0.026 A 
ATOM     30  C   UNL     1       4.396  -1.083   9.819  0.00  0.00    +0.040 A 
ATOM     31  C   UNL     1       4.270  -0.001  10.673  0.00  0.00    +0.124 A 
ATOM     32  C   UNL     1       3.410   1.037  10.357  0.00  0.00    +0.040 A 
ATOM     33  C   UNL     1       2.676   0.995   9.188  0.00  0.00    +0.026 A 
ATOM     34  F   UNL     1       4.987   0.042  11.817  0.00  0.00    -0.205 F 
ENDBRANCH  26  28
ENDBRANCH  22  24
ENDBRANCH   8  19
TORSDOF 4
