REMARK  Name = ZINC49429160
REMARK  7 active torsions:
REMARK  status: ('A' for Active; 'I' for Inactive)
REMARK    1  A    between atoms: C_1  and  C_2
REMARK    2  A    between atoms: C_6  and  N_8
REMARK    3  A    between atoms: N_8  and  S_9
REMARK    4  A    between atoms: S_9  and  C_12
REMARK    5  A    between atoms: C_15  and  N_18
REMARK    6  A    between atoms: C_19  and  C_21
REMARK    7  A    between atoms: N_30  and  C_31
REMARK                            x       y       z     vdW  Elec       q    Type
REMARK                         _______ _______ _______ _____ _____    ______ ____
ROOT
ATOM      1  N   UNL     1       0.122  -6.023   8.050  0.00  0.00    -0.285 N 
ATOM      2  C   UNL     1      -1.036  -6.133   8.730  0.00  0.00    +0.222 C 
ATOM      3  O   UNL     1      -2.094  -5.981   8.155  0.00  0.00    -0.275 OA
ATOM      4  H   UNL     1       0.964  -6.217   8.491  0.00  0.00    +0.155 HD
ENDROOT
BRANCH   2   5
ATOM      5  C   UNL     1      -1.018  -6.443  10.205  0.00  0.00    +0.093 C 
ATOM      6  C   UNL     1      -2.453  -6.513  10.730  0.00  0.00    +0.016 C 
ATOM      7  C   UNL     1      -2.435  -6.795  12.234  0.00  0.00    +0.020 C 
ATOM      8  C   UNL     1      -1.760  -8.147  12.487  0.00  0.00    +0.109 C 
ATOM      9  N   UNL     1      -0.432  -8.139  11.859  0.00  0.00    -0.285 N 
ATOM     10  C   UNL     1      -0.327  -7.790  10.435  0.00  0.00    +0.122 C 
ATOM     11  C   UNL     1       0.668  -8.444  12.574  0.00  0.00    +0.307 C 
ATOM     12  O   UNL     1       1.770  -8.341  12.069  0.00  0.00    -0.252 OA
ATOM     13  N   UNL     1       0.548  -8.864  13.849  0.00  0.00    -0.264 N 
ATOM     14  H   UNL     1      -0.323  -8.876  14.276  0.00  0.00    +0.157 HD
BRANCH  13  15
ATOM     15  C   UNL     1       1.679  -9.281  14.557  0.00  0.00    +0.073 A 
ATOM     16  C   UNL     1       1.769  -9.741  15.836  0.00  0.00    +0.031 A 
ATOM     17  C   UNL     1       3.010 -10.100  16.329  0.00  0.00    +0.009 A 
ATOM     18  C   UNL     1       4.096  -9.985  15.527  0.00  0.00    +0.047 A 
ATOM     19  S   UNL     1       3.379  -9.358  14.017  0.00  0.00    -0.082 S 
ENDBRANCH  13  15
ENDBRANCH   2   5
BRANCH   1  23
ATOM     20  C   UNL     1       0.088  -4.854   4.051  0.00  0.00    +0.111 A 
ATOM     21  C   UNL     1      -0.857  -4.349   4.926  0.00  0.00    +0.031 A 
ATOM     22  C   UNL     1      -0.849  -4.735   6.252  0.00  0.00    +0.025 A 
ATOM     23  C   UNL     1       0.110  -5.631   6.707  0.00  0.00    +0.034 A 
ATOM     24  C   UNL     1       1.058  -6.136   5.826  0.00  0.00    +0.025 A 
ATOM     25  C   UNL     1       1.040  -5.750   4.500  0.00  0.00    +0.031 A 
BRANCH  20  26
ATOM     26  S   UNL     1       0.073  -4.360   2.360  0.00  0.00    +0.094 S 
ATOM     27  O   UNL     1       1.392  -4.557   1.868  0.00  0.00    -0.148 OA
ATOM     28  O   UNL     1      -0.577  -3.097   2.312  0.00  0.00    -0.148 OA
BRANCH  26  29
ATOM     29  N   UNL     1      -0.900  -5.424   1.547  0.00  0.00    -0.058 NA
BRANCH  29  35
ATOM     30  C   UNL     1      -2.982  -7.012  -2.466  0.00  0.00    +0.066 C 
ATOM     31  C   UNL     1      -2.091  -6.029  -1.751  0.00  0.00    +0.043 A 
ATOM     32  C   UNL     1      -1.483  -4.997  -2.449  0.00  0.00    +0.043 A 
ATOM     33  C   UNL     1      -0.672  -4.115  -1.754  0.00  0.00    +0.116 A 
ATOM     34  N   UNL     1      -0.503  -4.282  -0.453  0.00  0.00    -0.220 NA
ATOM     35  C   UNL     1      -1.099  -5.279   0.185  0.00  0.00    +0.258 A 
ATOM     36  N   UNL     1      -1.885  -6.137  -0.449  0.00  0.00    -0.217 NA
ENDBRANCH  29  35
ENDBRANCH  26  29
ENDBRANCH  20  26
ENDBRANCH   1  23
TORSDOF 6
