REMARK  Name = ZINC08897694
REMARK  10 active torsions:
REMARK  status: ('A' for Active; 'I' for Inactive)
REMARK    1  A    between atoms: C_1  and  C_2
REMARK    2  A    between atoms: C_5  and  C_8
REMARK    3  A    between atoms: N_13  and  C_16
REMARK    4  A    between atoms: C_19  and  N_22
REMARK    5  A    between atoms: N_22  and  C_23
REMARK    6  A    between atoms: C_23  and  N_25
REMARK    7  A    between atoms: C_26  and  C_28
REMARK    8  A    between atoms: C_29  and  C_30
REMARK    9  A    between atoms: C_33  and  O_36
REMARK   10  A    between atoms: O_36  and  C_37
REMARK                            x       y       z     vdW  Elec       q    Type
REMARK                         _______ _______ _______ _____ _____    ______ ____
ROOT
ATOM      1  C   UNL     1       5.751  -4.719   1.417  0.00  0.00    +0.030 A 
ATOM      2  C   UNL     1       5.539  -5.992   1.929  0.00  0.00    +0.025 A 
ATOM      3  C   UNL     1       6.488  -6.576   2.744  0.00  0.00    +0.025 A 
ATOM      4  C   UNL     1       7.650  -5.885   3.062  0.00  0.00    +0.033 A 
ATOM      5  C   UNL     1       7.860  -4.609   2.554  0.00  0.00    +0.025 A 
ATOM      6  C   UNL     1       6.913  -4.028   1.734  0.00  0.00    +0.025 A 
ENDROOT
BRANCH   1  12
ATOM      7  C   UNL     1       1.073  -2.662  -0.202  0.00  0.00    +0.247 C 
ATOM      8  O   UNL     1       0.181  -3.456  -0.429  0.00  0.00    -0.270 OA
ATOM      9  N   UNL     1       2.360  -3.061  -0.255  0.00  0.00    -0.295 N 
ATOM     10  C   UNL     1       3.451  -2.138   0.093  0.00  0.00    +0.127 C 
ATOM     11  C   UNL     1       4.359  -2.831   1.121  0.00  0.00    +0.124 C 
ATOM     12  N   UNL     1       4.791  -4.130   0.587  0.00  0.00    -0.327 N 
ATOM     13  C   UNL     1       3.648  -5.029   0.383  0.00  0.00    +0.124 C 
ATOM     14  C   UNL     1       2.710  -4.428  -0.669  0.00  0.00    +0.127 C 
BRANCH   7  19
ATOM     15  C   UNL     1      -0.197   2.797   1.101  0.00  0.00    +0.044 C 
ATOM     16  C   UNL     1       0.136   1.367   0.760  0.00  0.00    -0.050 A 
ATOM     17  C   UNL     1      -0.689   0.345   1.196  0.00  0.00    +0.004 A 
ATOM     18  C   UNL     1      -0.390  -0.965   0.887  0.00  0.00    +0.013 A 
ATOM     19  C   UNL     1       0.747  -1.260   0.133  0.00  0.00    +0.037 A 
ATOM     20  C   UNL     1       1.574  -0.224  -0.304  0.00  0.00    +0.013 A 
ATOM     21  C   UNL     1       1.264   1.083   0.012  0.00  0.00    +0.004 A 
ENDBRANCH   7  19
ENDBRANCH   1  12
BRANCH   4  22
ATOM     22  N   UNL     1       8.611  -6.474   3.894  0.00  0.00    -0.297 N 
ATOM     23  H   UNL     1       8.882  -7.394   3.746  0.00  0.00    +0.154 HD
BRANCH  22  24
ATOM     24  C   UNL     1       9.160  -5.763   4.899  0.00  0.00    +0.141 C 
ATOM     25  S   UNL     1       8.764  -4.109   5.093  0.00  0.00    -0.018 S 
BRANCH  24  26
ATOM     26  N   UNL     1      10.020  -6.355   5.752  0.00  0.00    -0.264 N 
ATOM     27  C   UNL     1      10.568  -5.644   6.757  0.00  0.00    +0.242 C 
ATOM     28  O   UNL     1      10.287  -4.468   6.894  0.00  0.00    -0.270 OA
ATOM     29  H   UNL     1      10.244  -7.293   5.642  0.00  0.00    +0.157 HD
BRANCH  27  30
ATOM     30  C   UNL     1      11.500  -6.286   7.681  0.00  0.00    +0.068 C 
ATOM     31  C   UNL     1      12.050  -5.574   8.689  0.00  0.00    +0.013 C 
BRANCH  31  32
ATOM     32  C   UNL     1      12.988  -6.219   9.618  0.00  0.00    -0.025 A 
ATOM     33  C   UNL     1      13.308  -7.573   9.466  0.00  0.00    +0.011 A 
ATOM     34  C   UNL     1      14.192  -8.171  10.335  0.00  0.00    +0.046 A 
ATOM     35  C   UNL     1      14.756  -7.436  11.371  0.00  0.00    +0.120 A 
ATOM     36  C   UNL     1      14.436  -6.092  11.531  0.00  0.00    +0.046 A 
ATOM     37  C   UNL     1      13.559  -5.483  10.663  0.00  0.00    +0.011 A 
BRANCH  35  38
ATOM     38  O   UNL     1      15.622  -8.031  12.230  0.00  0.00    -0.495 OA
ATOM     39  C   UNL     1      15.907  -9.414  12.009  0.00  0.00    +0.277 C 
ENDBRANCH  35  38
ENDBRANCH  31  32
ENDBRANCH  27  30
ENDBRANCH  24  26
ENDBRANCH  22  24
ENDBRANCH   4  22
TORSDOF 8
