REMARK  Name = ZINC09142115
REMARK  5 active torsions:
REMARK  status: ('A' for Active; 'I' for Inactive)
REMARK    1  A    between atoms: C_1  and  C_2
REMARK    2  A    between atoms: C_5  and  C_9
REMARK    3  A    between atoms: N_11  and  C_12
REMARK    4  A    between atoms: C_13  and  C_23
REMARK    5  A    between atoms: C_18  and  C_22
REMARK                            x       y       z     vdW  Elec       q    Type
REMARK                         _______ _______ _______ _____ _____    ______ ____
ROOT
ATOM      1  C   UNL     1      -1.865  -1.129   1.201  0.00  0.00    +0.085 A 
ATOM      2  C   UNL     1      -1.258  -0.754   0.010  0.00  0.00    +0.068 A 
ATOM      3  C   UNL     1      -1.919  -1.129  -1.228  0.00  0.00    -0.023 A 
ATOM      4  C   UNL     1      -3.069  -1.821  -1.079  0.00  0.00    -0.004 A 
ATOM      5  S   UNL     1      -3.285  -1.969   0.672  0.00  0.00    -0.077 S 
ATOM      6  C   UNL     1      -3.960  -2.339  -2.166  0.00  0.00    +0.046 C 
ATOM      7  C   UNL     1      -3.566  -1.651  -3.482  0.00  0.00    -0.009 C 
ATOM      8  C   UNL     1      -2.044  -1.718  -3.637  0.00  0.00    +0.008 C 
ATOM      9  C   UNL     1      -1.376  -0.799  -2.613  0.00  0.00    +0.037 C 
ATOM     10  C   UNL     1      -4.236  -2.368  -4.655  0.00  0.00    +0.008 C 
ENDROOT
BRANCH   2  11
ATOM     11  C   UNL     1       0.002  -0.004   0.002  0.00  0.00    +0.244 C 
ATOM     12  O   UNL     1       1.064  -0.598  -0.011  0.00  0.00    -0.270 OA
ATOM     13  N   UNL     1      -0.016   1.344   0.009  0.00  0.00    -0.325 N 
ATOM     14  H   UNL     1       0.817   1.840   0.004  0.00  0.00    +0.145 HD
ATOM     15  H   UNL     1      -0.863   1.817   0.016  0.00  0.00    +0.145 HD
ENDBRANCH   2  11
BRANCH   1  18
ATOM     16  C   UNL     1      -2.168  -1.335   3.539  0.00  0.00    +0.249 C 
ATOM     17  O   UNL     1      -3.200  -1.946   3.342  0.00  0.00    -0.270 OA
ATOM     18  N   UNL     1      -1.438  -0.889   2.497  0.00  0.00    -0.275 N 
ATOM     19  H   UNL     1      -0.615  -0.401   2.654  0.00  0.00    +0.156 HD
BRANCH  16  24
ATOM     20  C   UNL     1      -0.394  -0.341   8.923  0.00  0.00    +0.045 C 
ATOM     21  C   UNL     1      -0.859  -0.601   7.513  0.00  0.00    -0.032 A 
ATOM     22  C   UNL     1      -0.108  -0.143   6.445  0.00  0.00    +0.005 A 
ATOM     23  C   UNL     1      -0.525  -0.382   5.152  0.00  0.00    +0.013 A 
ATOM     24  C   UNL     1      -1.713  -1.079   4.922  0.00  0.00    +0.038 A 
ATOM     25  C   UNL     1      -2.466  -1.539   6.004  0.00  0.00    +0.033 A 
ATOM     26  C   UNL     1      -2.035  -1.297   7.293  0.00  0.00    +0.045 A 
ATOM     27 CL   UNL     1      -2.970  -1.867   8.640  0.00  0.00    -0.083 Cl
ENDBRANCH  16  24
ENDBRANCH   1  18
TORSDOF 3
