REMARK  Name = ZINC40475512
REMARK  7 active torsions:
REMARK  status: ('A' for Active; 'I' for Inactive)
REMARK    1  A    between atoms: C_1  and  C_2
REMARK    2  A    between atoms: C_2  and  O_3
REMARK    3  A    between atoms: O_3  and  C_4
REMARK    4  A    between atoms: C_4  and  C_6
REMARK    5  A    between atoms: C_9  and  N_12
REMARK    6  A    between atoms: C_17  and  C_30
REMARK    7  A    between atoms: C_35  and  O_36
REMARK                            x       y       z     vdW  Elec       q    Type
REMARK                         _______ _______ _______ _____ _____    ______ ____
ROOT
ATOM      1  N   UNL     1      -6.683  -4.065   0.045  0.00  0.00    -0.209 N 
ATOM      2  C   UNL     1      -6.917  -5.403   0.051  0.00  0.00    +0.232 C 
ATOM      3  O   UNL     1      -6.109  -6.284   0.251  0.00  0.00    -0.274 OA
ATOM      4  C   UNL     1      -8.375  -5.570  -0.241  0.00  0.00    +0.110 C 
ATOM      5  C   UNL     1      -9.117  -6.732   0.375  0.00  0.00    +0.075 C 
ATOM      6  C   UNL     1     -10.570  -6.606   0.022  0.00  0.00    +0.032 A 
ATOM      7  C   UNL     1     -11.273  -5.511  -0.393  0.00  0.00    +0.110 A 
ATOM      8  N   UNL     1     -12.559  -5.737  -0.656  0.00  0.00    -0.225 NA
ATOM      9  C   UNL     1     -13.100  -6.926  -0.503  0.00  0.00    +0.147 A 
ATOM     10  S   UNL     1     -14.768  -7.414  -0.794  0.00  0.00    -0.023 SA
ATOM     11  S   UNL     1     -11.814  -7.870   0.036  0.00  0.00    -0.063 S 
ATOM     12  S   UNL     1     -10.481  -3.916  -0.537  0.00  0.00    -0.091 S 
ATOM     13  C   UNL     1      -8.942  -4.256   0.374  0.00  0.00    +0.152 C 
ATOM     14  C   UNL     1      -7.814  -3.314   0.055  0.00  0.00    +0.240 C 
ATOM     15  O   UNL     1      -7.899  -2.123  -0.153  0.00  0.00    -0.274 OA
ENDROOT
BRANCH   1  19
ATOM     16  C   UNL     1      -2.852  -2.419   0.016  0.00  0.00    +0.059 A 
ATOM     17  C   UNL     1      -3.973  -1.584   0.026  0.00  0.00    +0.017 A 
ATOM     18  C   UNL     1      -5.237  -2.132   0.035  0.00  0.00    +0.025 A 
ATOM     19  C   UNL     1      -5.398  -3.513   0.035  0.00  0.00    +0.044 A 
ATOM     20  C   UNL     1      -4.285  -4.347   0.025  0.00  0.00    +0.025 A 
ATOM     21  C   UNL     1      -3.019  -3.807   0.010  0.00  0.00    +0.017 A 
BRANCH  16  22
ATOM     22  C   UNL     1      -1.497  -1.837   0.006  0.00  0.00    +0.339 C 
ATOM     23  O   UNL     1      -0.523  -2.564  -0.007  0.00  0.00    -0.245 OA
BRANCH  22  24
ATOM     24  O   UNL     1      -1.339  -0.499   0.012  0.00  0.00    -0.461 OA
BRANCH  24  26
ATOM     25  C   UNL     1      -0.019   1.526   0.010  0.00  0.00    +0.048 C 
ATOM     26  C   UNL     1       0.002  -0.004   0.002  0.00  0.00    +0.229 C 
ENDBRANCH  24  26
ENDBRANCH  22  24
ENDBRANCH  16  22
ENDBRANCH   1  19
BRANCH   5  27
ATOM     27  C   UNL     1      -8.572  -8.027  -0.168  0.00  0.00    +0.003 A 
ATOM     28  C   UNL     1      -8.618  -8.282  -1.525  0.00  0.00    +0.008 A 
ATOM     29  C   UNL     1      -8.118  -9.471  -2.024  0.00  0.00    +0.001 A 
ATOM     30  C   UNL     1      -7.571 -10.407  -1.167  0.00  0.00    +0.004 A 
ATOM     31  C   UNL     1      -7.522 -10.157   0.191  0.00  0.00    +0.046 A 
ATOM     32  C   UNL     1      -8.018  -8.963   0.694  0.00  0.00    +0.121 A 
BRANCH  32  33
ATOM     33  O   UNL     1      -7.967  -8.712   2.028  0.00  0.00    -0.506 OA
ATOM     34  H   UNL     1      -8.745  -9.015   2.516  0.00  0.00    +0.292 HD
ENDBRANCH  32  33
ENDBRANCH   5  27
TORSDOF 6
