REMARK  Name = ZINC43553704
REMARK  11 active torsions:
REMARK  status: ('A' for Active; 'I' for Inactive)
REMARK    1  A    between atoms: C_1  and  C_2
REMARK    2  A    between atoms: C_2  and  C_3
REMARK    3  A    between atoms: C_2  and  N_4
REMARK    4  A    between atoms: C_5  and  C_7
REMARK    5  A    between atoms: C_7  and  C_8
REMARK    6  A    between atoms: N_15  and  C_16
REMARK    7  A    between atoms: C_25  and  C_35
REMARK    8  A    between atoms: C_28  and  O_34
REMARK    9  A    between atoms: C_30  and  C_31
REMARK   10  A    between atoms: C_30  and  C_32
REMARK   11  A    between atoms: C_32  and  O_33
REMARK                            x       y       z     vdW  Elec       q    Type
REMARK                         _______ _______ _______ _____ _____    ______ ____
ROOT
ATOM      1  C   UNL     1      -4.317  -0.975  -2.748  0.00  0.00    +0.054 C 
ATOM      2  C   UNL     1      -4.644   0.371  -3.361  0.00  0.00    +0.058 A 
ATOM      3  C   UNL     1      -5.632   0.434  -4.287  0.00  0.00    +0.015 A 
ATOM      4  S   UNL     1      -5.644   2.156  -4.707  0.00  0.00    -0.057 S 
ATOM      5  C   UNL     1      -4.405   2.645  -3.676  0.00  0.00    +0.163 A 
ATOM      6  N   UNL     1      -4.050   1.524  -3.083  0.00  0.00    -0.229 NA
ATOM      7  N   UNL     1      -3.884   3.917  -3.495  0.00  0.00    -0.293 N 
ATOM      8  C   UNL     1      -6.479  -0.674  -4.797  0.00  0.00    +0.049 C 
ATOM      9  C   UNL     1      -6.111  -2.033  -4.170  0.00  0.00    +0.011 C 
ATOM     10  C   UNL     1      -5.575  -1.852  -2.756  0.00  0.00    -0.019 C 
ATOM     11  C   UNL     1      -6.673  -1.268  -1.875  0.00  0.00    +0.010 C 
ATOM     12  C   UNL     1      -7.844  -2.250  -1.811  0.00  0.00    +0.032 C 
ATOM     13  C   UNL     1      -8.406  -2.549  -3.188  0.00  0.00    +0.123 C 
ATOM     14  C   UNL     1      -7.364  -2.906  -4.235  0.00  0.00    +0.021 C 
ATOM     15  C   UNL     1      -7.028  -4.401  -4.159  0.00  0.00    +0.016 C 
ATOM     16  C   UNL     1      -5.115  -3.188  -2.154  0.00  0.00    +0.012 C 
ATOM     17  H   UNL     1      -3.107   4.048  -2.929  0.00  0.00    +0.154 HD
ENDROOT
BRANCH   7  18
ATOM     18  C   UNL     1      -4.478   5.012  -4.129  0.00  0.00    +0.051 A 
ATOM     19  C   UNL     1      -5.856   5.051  -4.328  0.00  0.00    +0.026 A 
ATOM     20  C   UNL     1      -6.399   6.158  -4.960  0.00  0.00    +0.021 A 
ATOM     21  C   UNL     1      -5.562   7.180  -5.369  0.00  0.00    +0.111 A 
ATOM     22  N   UNL     1      -4.261   7.112  -5.166  0.00  0.00    -0.261 NA
ATOM     23  C   UNL     1      -3.704   6.081  -4.563  0.00  0.00    +0.134 A 
ENDBRANCH   7  18
BRANCH  13  24
ATOM     24  O   UNL     1      -9.202  -1.447  -3.638  0.00  0.00    -0.391 OA
ATOM     25  H   UNL     1      -9.953  -1.244  -3.063  0.00  0.00    +0.210 HD
ENDBRANCH  13  24
BRANCH   1  26
ATOM     26  C   UNL     1      -3.790  -0.805  -1.328  0.00  0.00    +0.106 C 
BRANCH  26  28
ATOM     27  N   UNL     1      -1.811   0.183  -0.219  0.00  0.00    -0.313 N 
ATOM     28  C   UNL     1      -2.469  -0.081  -1.366  0.00  0.00    +0.214 C 
ATOM     29  O   UNL     1      -1.997   0.265  -2.428  0.00  0.00    -0.276 OA
ATOM     30  H   UNL     1      -2.189  -0.093   0.631  0.00  0.00    +0.149 HD
BRANCH  27  32
ATOM     31  C   UNL     1      -0.774   2.397  -0.291  0.00  0.00    +0.027 C 
ATOM     32  C   UNL     1      -0.527   0.887  -0.256  0.00  0.00    +0.067 C 
ATOM     33  C   UNL     1       0.286   0.532   0.990  0.00  0.00    +0.027 C 
ENDBRANCH  27  32
ENDBRANCH  26  28
ENDBRANCH   1  26
BRANCH  14  34
ATOM     34  C   UNL     1      -8.022  -2.708  -5.626  0.00  0.00    +0.165 C 
BRANCH  34  35
ATOM     35  O   UNL     1      -9.198  -3.515  -5.715  0.00  0.00    -0.394 OA
ATOM     36  H   UNL     1      -9.662  -3.441  -6.560  0.00  0.00    +0.209 HD
ENDBRANCH  34  35
ENDBRANCH  14  34
TORSDOF 7
