REMARK  Name = ZINC32091766
REMARK  2 active torsions:
REMARK  status: ('A' for Active; 'I' for Inactive)
REMARK    1  A    between atoms: C_6  and  C_7
REMARK    2  A    between atoms: C_10  and  O_18
REMARK                            x       y       z     vdW  Elec       q    Type
REMARK                         _______ _______ _______ _____ _____    ______ ____
ROOT
ATOM      1  C   UNL     1      -1.293  -0.775   0.010  0.00  0.00    +0.068 C 
ATOM      2  C   UNL     1      -1.373  -1.675  -1.234  0.00  0.00    +0.109 C 
ATOM      3  C   UNL     1      -2.362  -2.784  -1.020  0.00  0.00    +0.190 C 
ATOM      4  N   UNL     1      -2.606  -3.340   0.118  0.00  0.00    -0.197 NA
ATOM      5  C   UNL     1      -1.970  -2.885   1.268  0.00  0.00    +0.169 A 
ATOM      6  C   UNL     1      -1.347  -1.659   1.207  0.00  0.00    +0.045 A 
ATOM      7  S   UNL     1      -0.690  -1.469   2.837  0.00  0.00    -0.055 S 
ATOM      8  C   UNL     1      -1.309  -3.014   3.496  0.00  0.00    +0.158 A 
ATOM      9  N   UNL     1      -1.929  -3.523   2.443  0.00  0.00    -0.206 NA
ATOM     10  N   UNL     1      -1.172  -3.540   4.770  0.00  0.00    -0.337 N 
ATOM     11  H   UNL     1      -0.681  -3.049   5.447  0.00  0.00    +0.144 HD
ATOM     12  H   UNL     1      -1.566  -4.400   4.985  0.00  0.00    +0.144 HD
ENDROOT
BRANCH   1  18
ATOM     13  C   UNL     1      -0.017   1.378   0.010  0.00  0.00    +0.005 A 
ATOM     14  C   UNL     1       1.171   2.086   0.002  0.00  0.00    +0.015 A 
ATOM     15  C   UNL     1       2.378   1.411  -0.013  0.00  0.00    +0.018 A 
ATOM     16  C   UNL     1       2.396   0.027  -0.021  0.00  0.00    +0.015 A 
ATOM     17  C   UNL     1       1.208  -0.679  -0.013  0.00  0.00    +0.005 A 
ATOM     18  C   UNL     1       0.002  -0.004   0.002  0.00  0.00    -0.039 A 
ATOM     19 BR   UNL     1       4.003   2.378  -0.024  0.00  0.00    -0.050 Br
ENDBRANCH   1  18
BRANCH   3  20
ATOM     20  O   UNL     1      -3.043  -3.232  -2.096  0.00  0.00    -0.495 OA
ATOM     21  H   UNL     1      -3.665  -3.946  -1.899  0.00  0.00    +0.293 HD
ENDBRANCH   3  20
TORSDOF 2
