REMARK  Name = ZINC44854971
REMARK  11 active torsions:
REMARK  status: ('A' for Active; 'I' for Inactive)
REMARK    1  A    between atoms: C_1  and  C_2
REMARK    2  A    between atoms: C_2  and  O_3
REMARK    3  A    between atoms: O_3  and  C_4
REMARK    4  A    between atoms: C_8  and  C_10
REMARK    5  A    between atoms: C_10  and  N_11
REMARK    6  A    between atoms: C_14  and  C_17
REMARK    7  A    between atoms: N_19  and  C_20
REMARK    8  A    between atoms: C_20  and  C_22
REMARK    9  A    between atoms: C_20  and  C_23
REMARK   10  A    between atoms: C_26  and  N_29
REMARK   11  A    between atoms: C_33  and  C_36
REMARK                            x       y       z     vdW  Elec       q    Type
REMARK                         _______ _______ _______ _____ _____    ______ ____
ROOT
ATOM      1  C   UNL     1      -1.149  -6.133  -7.997  0.00  0.00    +0.216 C 
ATOM      2  O   UNL     1      -2.305  -5.859  -7.752  0.00  0.00    -0.276 OA
ATOM      3  N   UNL     1      -0.791  -6.486  -9.248  0.00  0.00    -0.309 N 
ATOM      4  H   UNL     1       0.133  -6.705  -9.444  0.00  0.00    +0.149 HD
ENDROOT
BRANCH   1   8
ATOM      5  N   UNL     1       1.281  -4.520  -4.901  0.00  0.00    +0.382 N 
ATOM      6  C   UNL     1       0.291  -5.529  -4.503  0.00  0.00    -0.078 C 
ATOM      7  C   UNL     1      -0.778  -5.657  -5.590  0.00  0.00    -0.006 C 
ATOM      8  C   UNL     1      -0.114  -6.081  -6.903  0.00  0.00    +0.071 C 
ATOM      9  C   UNL     1       0.968  -5.061  -7.270  0.00  0.00    -0.006 C 
ATOM     10  C   UNL     1       1.972  -4.955  -6.120  0.00  0.00    -0.078 C 
ATOM     11  H   UNL     1       0.813  -3.643  -5.074  0.00  0.00    -0.081 HD
BRANCH   5  12
ATOM     12  C   UNL     1       2.261  -4.345  -3.820  0.00  0.00    -0.043 C 
BRANCH  12  17
ATOM     13  C   UNL     1       0.849  -1.896  -1.312  0.00  0.00    +0.121 A 
ATOM     14  C   UNL     1       0.306  -2.754  -0.367  0.00  0.00    +0.045 A 
ATOM     15  C   UNL     1       0.398  -4.121  -0.543  0.00  0.00    +0.004 A 
ATOM     16  C   UNL     1       1.030  -4.635  -1.661  0.00  0.00    +0.002 A 
ATOM     17  C   UNL     1       1.572  -3.782  -2.604  0.00  0.00    -0.060 A 
ATOM     18  C   UNL     1       1.478  -2.414  -2.435  0.00  0.00    +0.047 A 
BRANCH  13  19
ATOM     19  O   UNL     1       0.760  -0.551  -1.142  0.00  0.00    -0.492 OA
BRANCH  19  21
ATOM     20  C   UNL     1       0.097   1.441   0.056  0.00  0.00    +0.048 C 
ATOM     21  C   UNL     1       0.099  -0.089   0.038  0.00  0.00    +0.225 C 
ENDBRANCH  19  21
ENDBRANCH  13  19
ENDBRANCH  12  17
ENDBRANCH   5  12
ENDBRANCH   1   8
BRANCH   3  22
ATOM     22  C   UNL     1      -1.797  -6.536 -10.311  0.00  0.00    +0.100 C 
ATOM     23  C   UNL     1      -2.497  -7.897 -10.286  0.00  0.00    +0.033 C 
BRANCH  22  24
ATOM     24  C   UNL     1      -1.127  -6.341 -11.646  0.00  0.00    -0.027 A 
ATOM     25  C   UNL     1       0.092  -6.941 -11.901  0.00  0.00    +0.007 A 
ATOM     26  C   UNL     1       0.709  -6.764 -13.124  0.00  0.00    +0.023 A 
ATOM     27  C   UNL     1       0.103  -5.981 -14.099  0.00  0.00    +0.030 A 
ATOM     28  C   UNL     1      -1.122  -5.380 -13.840  0.00  0.00    +0.023 A 
ATOM     29  C   UNL     1      -1.736  -5.566 -12.617  0.00  0.00    +0.007 A 
BRANCH  27  30
ATOM     30  N   UNL     1       0.724  -5.800 -15.336  0.00  0.00    -0.330 N 
ATOM     31  C   UNL     1       0.042  -5.076 -16.418  0.00  0.00    +0.105 C 
ATOM     32  C   UNL     1       0.956  -3.951 -16.913  0.00  0.00    +0.019 C 
ATOM     33  C   UNL     1       2.313  -4.539 -17.308  0.00  0.00    +0.006 C 
ATOM     34  C   UNL     1       2.965  -5.190 -16.086  0.00  0.00    +0.003 C 
ATOM     35  C   UNL     1       2.075  -6.323 -15.580  0.00  0.00    +0.108 C 
ATOM     36  C   UNL     1       4.336  -5.748 -16.475  0.00  0.00    +0.009 C 
ENDBRANCH  27  30
ENDBRANCH  22  24
ENDBRANCH   3  22
TORSDOF 8
