REMARK  Name = ZINC28579274
REMARK  3 active torsions:
REMARK  status: ('A' for Active; 'I' for Inactive)
REMARK    1  A    between atoms: C_6  and  N_7
REMARK    2  A    between atoms: N_10  and  C_11
REMARK    3  A    between atoms: C_12  and  C_22
REMARK                            x       y       z     vdW  Elec       q    Type
REMARK                         _______ _______ _______ _____ _____    ______ ____
ROOT
ATOM      1  N   UNL     1      -1.192   2.002   0.019  0.00  0.00    -0.269 N 
ATOM      2  C   UNL     1      -0.022   1.357  -0.155  0.00  0.00    +0.308 C 
ATOM      3  O   UNL     1       1.004   1.991  -0.312  0.00  0.00    -0.252 OA
ATOM      4  N   UNL     1       0.012   0.009  -0.159  0.00  0.00    -0.263 N 
ATOM      5  H   UNL     1      -2.132   1.431   0.071  0.00  0.00    +0.156 HD
ATOM      6  H   UNL     1      -0.916  -0.564  -0.016  0.00  0.00    +0.157 HD
ENDROOT
BRANCH   4   7
ATOM      7  C   UNL     1       1.210  -0.651  -0.342  0.00  0.00    +0.083 C 
ATOM      8  C   UNL     1       1.407  -1.992  -0.365  0.00  0.00    +0.061 C 
ATOM      9  C   UNL     1       2.787  -2.528  -0.629  0.00  0.00    +0.045 C 
ATOM     10  C   UNL     1       2.709  -3.457  -1.825  0.00  0.00    +0.010 C 
ATOM     11  C   UNL     1       4.015  -3.546  -2.601  0.00  0.00    +0.001 C 
ATOM     12  C   UNL     1       4.386  -2.121  -3.045  0.00  0.00    +0.001 C 
ATOM     13  C   UNL     1       4.819  -1.383  -1.791  0.00  0.00    +0.015 C 
ATOM     14  C   UNL     1       3.823  -1.433  -0.683  0.00  0.00    +0.061 C 
ATOM     15  S   UNL     1       2.813   0.086  -0.588  0.00  0.00    -0.105 S 
BRANCH   8  16
ATOM     16  C   UNL     1       0.312  -2.889  -0.145  0.00  0.00    +0.097 C 
ATOM     17  N   UNL     1      -0.557  -3.599   0.029  0.00  0.00    -0.191 NA
ENDBRANCH   8  16
ENDBRANCH   4   7
BRANCH   1  23
ATOM     18  C   UNL     1      -0.157   4.061   0.742  0.00  0.00    +0.025 A 
ATOM     19  C   UNL     1      -0.178   5.438   0.848  0.00  0.00    +0.022 A 
ATOM     20  C   UNL     1      -1.255   6.154   0.357  0.00  0.00    +0.041 A 
ATOM     21  C   UNL     1      -2.311   5.495  -0.246  0.00  0.00    +0.022 A 
ATOM     22  C   UNL     1      -2.293   4.118  -0.360  0.00  0.00    +0.025 A 
ATOM     23  C   UNL     1      -1.213   3.397   0.132  0.00  0.00    +0.035 A 
ATOM     24 CL   UNL     1      -1.281   7.884   0.499  0.00  0.00    -0.084 Cl
ENDBRANCH   1  23
TORSDOF 3
