REMARK  Name = ZINC06911505
REMARK  5 active torsions:
REMARK  status: ('A' for Active; 'I' for Inactive)
REMARK    1  A    between atoms: C_1  and  C_2
REMARK    2  A    between atoms: C_2  and  C_4
REMARK    3  A    between atoms: C_2  and  N_11
REMARK    4  A    between atoms: N_9  and  C_10
REMARK    5  A    between atoms: N_11  and  C_12
REMARK                            x       y       z     vdW  Elec       q    Type
REMARK                         _______ _______ _______ _____ _____    ______ ____
ROOT
ATOM      1  C   UNL     1      -0.013   1.086   0.008  0.00  0.00    +0.038 C 
ATOM      2  C   UNL     1      -0.729   1.579   1.267  0.00  0.00    +0.154 C 
ENDROOT
BRANCH   2   3
ATOM      3  C   UNL     1      -2.143   1.058   1.278  0.00  0.00    +0.240 C 
ATOM      4  O   UNL     1      -2.521   0.350   2.187  0.00  0.00    -0.273 OA
ATOM      5  N   UNL     1      -2.986   1.377   0.276  0.00  0.00    -0.239 N 
ATOM      6  C   UNL     1      -4.251   0.911   0.286  0.00  0.00    +0.306 C 
ATOM      7  O   UNL     1      -4.630   0.202   1.197  0.00  0.00    -0.252 OA
ATOM      8  N   UNL     1      -5.095   1.230  -0.715  0.00  0.00    -0.302 N 
ATOM      9  C   UNL     1      -6.469   0.723  -0.705  0.00  0.00    +0.129 C 
ATOM     10  H   UNL     1      -2.684   1.943  -0.451  0.00  0.00    +0.159 HD
ATOM     11  H   UNL     1      -4.792   1.796  -1.442  0.00  0.00    +0.150 HD
ENDBRANCH   2   3
BRANCH   2  12
ATOM     12  N   UNL     1      -0.020   1.094   2.454  0.00  0.00    -0.333 N 
ATOM     13  H   UNL     1      -0.308   0.277   2.890  0.00  0.00    +0.147 HD
BRANCH  12  14
ATOM     14  C   UNL     1       1.071   1.808   2.957  0.00  0.00    +0.028 A 
ATOM     15  C   UNL     1       1.488   2.974   2.329  0.00  0.00    +0.024 A 
ATOM     16  C   UNL     1       2.563   3.680   2.831  0.00  0.00    +0.017 A 
ATOM     17  C   UNL     1       3.232   3.221   3.952  0.00  0.00    +0.018 A 
ATOM     18  C   UNL     1       2.821   2.056   4.577  0.00  0.00    +0.017 A 
ATOM     19  C   UNL     1       1.743   1.349   4.082  0.00  0.00    +0.024 A 
ATOM     20 BR   UNL     1       4.708   4.187   4.633  0.00  0.00    -0.050 Br
ENDBRANCH  12  14
ENDBRANCH   2  12
TORSDOF 3
