REMARK  Name = ZINC36210555
REMARK  12 active torsions:
REMARK  status: ('A' for Active; 'I' for Inactive)
REMARK    1  A    between atoms: C_1  and  C_2
REMARK    2  A    between atoms: C_2  and  C_4
REMARK    3  A    between atoms: C_2  and  N_7
REMARK    4  A    between atoms: C_4  and  C_5
REMARK    5  A    between atoms: C_4  and  C_6
REMARK    6  A    between atoms: C_8  and  C_10
REMARK    7  A    between atoms: C_10  and  C_12
REMARK    8  A    between atoms: C_10  and  N_27
REMARK    9  A    between atoms: C_18  and  C_20
REMARK   10  A    between atoms: C_28  and  C_30
REMARK   11  A    between atoms: C_33  and  O_36
REMARK   12  A    between atoms: O_36  and  C_37
REMARK                            x       y       z     vdW  Elec       q    Type
REMARK                         _______ _______ _______ _____ _____    ______ ____
ROOT
ATOM      1  C   UNL     1      -4.386  -1.181  -2.115  0.00  0.00    +0.162 C 
ENDROOT
BRANCH   1   2
ATOM      2  C   UNL     1      -4.080  -2.446  -1.311  0.00  0.00    +0.021 C 
ATOM      3  C   UNL     1      -3.195  -3.377  -2.143  0.00  0.00    +0.025 C 
ATOM      4  C   UNL     1      -2.863  -4.627  -1.322  0.00  0.00    +0.108 C 
ATOM      5  N   UNL     1      -4.117  -5.239  -0.863  0.00  0.00    -0.298 N 
ATOM      6  C   UNL     1      -5.082  -4.407  -0.131  0.00  0.00    +0.108 C 
ATOM      7  C   UNL     1      -5.390  -3.159  -0.965  0.00  0.00    +0.025 C 
ATOM      8  C   UNL     1      -4.378  -6.538  -1.109  0.00  0.00    +0.247 C 
ATOM      9  O   UNL     1      -5.387  -7.050  -0.664  0.00  0.00    -0.270 OA
BRANCH   8  10
ATOM     10  C   UNL     1      -3.437  -7.340  -1.919  0.00  0.00    +0.037 A 
ATOM     11  C   UNL     1      -2.076  -7.351  -1.606  0.00  0.00    +0.014 A 
ATOM     12  C   UNL     1      -1.204  -8.102  -2.365  0.00  0.00    +0.021 A 
ATOM     13  C   UNL     1      -1.675  -8.844  -3.436  0.00  0.00    +0.041 A 
ATOM     14  C   UNL     1      -3.023  -8.838  -3.750  0.00  0.00    +0.021 A 
ATOM     15  C   UNL     1      -3.907  -8.095  -2.995  0.00  0.00    +0.014 A 
ATOM     16 CL   UNL     1      -0.570  -9.786  -4.387  0.00  0.00    -0.084 Cl
ENDBRANCH   8  10
ENDBRANCH   1   2
BRANCH   1  18
ATOM     17  N   UNL     1      -2.282  -0.050  -1.471  0.00  0.00    -0.311 N 
ATOM     18  C   UNL     1      -3.097  -0.479  -2.455  0.00  0.00    +0.234 C 
ATOM     19  O   UNL     1      -2.792  -0.299  -3.616  0.00  0.00    -0.274 OA
ATOM     20  H   UNL     1      -2.526  -0.194  -0.543  0.00  0.00    +0.149 HD
BRANCH  17  22
ATOM     21  C   UNL     1      -1.302   2.121  -2.024  0.00  0.00    +0.028 C 
ATOM     22  C   UNL     1      -1.029   0.632  -1.802  0.00  0.00    +0.072 C 
BRANCH  22  23
ATOM     23  C   UNL     1      -0.036   0.462  -0.651  0.00  0.00    +0.003 C 
ATOM     24  C   UNL     1       0.238  -1.027  -0.430  0.00  0.00    +0.009 C 
ATOM     25  C   UNL     1       1.273   1.175  -0.997  0.00  0.00    +0.009 C 
ENDBRANCH  22  23
ENDBRANCH  17  22
ENDBRANCH   1  18
BRANCH   1  26
ATOM     26  N   UNL     1      -5.086  -1.544  -3.350  0.00  0.00    -0.300 N 
ATOM     27  C   UNL     1      -5.886  -0.647  -3.959  0.00  0.00    +0.245 C 
ATOM     28  O   UNL     1      -6.027   0.464  -3.484  0.00  0.00    -0.270 OA
ATOM     29  H   UNL     1      -4.973  -2.429  -3.729  0.00  0.00    +0.150 HD
BRANCH  27  30
ATOM     30  C   UNL     1      -6.591  -1.012  -5.203  0.00  0.00    +0.037 A 
ATOM     31  C   UNL     1      -6.434  -2.289  -5.748  0.00  0.00    +0.016 A 
ATOM     32  C   UNL     1      -7.094  -2.627  -6.908  0.00  0.00    +0.046 A 
ATOM     33  C   UNL     1      -7.915  -1.698  -7.539  0.00  0.00    +0.120 A 
ATOM     34  C   UNL     1      -8.073  -0.427  -7.000  0.00  0.00    +0.046 A 
ATOM     35  C   UNL     1      -7.421  -0.084  -5.837  0.00  0.00    +0.016 A 
BRANCH  33  36
ATOM     36  O   UNL     1      -8.562  -2.034  -8.683  0.00  0.00    -0.495 OA
ATOM     37  C   UNL     1      -9.389  -1.032  -9.278  0.00  0.00    +0.277 C 
ENDBRANCH  33  36
ENDBRANCH  27  30
ENDBRANCH   1  26
TORSDOF 8
