REMARK  Name = ZINC44441715
REMARK  3 active torsions:
REMARK  status: ('A' for Active; 'I' for Inactive)
REMARK    1  A    between atoms: C_9  and  N_11
REMARK    2  A    between atoms: C_12  and  C_14
REMARK    3  A    between atoms: C_25  and  C_27
REMARK                            x       y       z     vdW  Elec       q    Type
REMARK                         _______ _______ _______ _____ _____    ______ ____
ROOT
ATOM      1  C   UNL     1       0.074  -4.273   0.192  0.00  0.00    +0.125 C 
ATOM      2  C   UNL     1      -1.358  -4.799   0.312  0.00  0.00    +0.019 C 
ATOM      3  C   UNL     1      -1.344  -6.300   0.612  0.00  0.00    +0.006 C 
ATOM      4  C   UNL     1      -0.830  -6.515   2.045  0.00  0.00    +0.044 C 
ATOM      5  C   UNL     1       0.402  -5.694   2.225  0.00  0.00    +0.015 A 
ATOM      6  C   UNL     1       0.855  -4.688   1.431  0.00  0.00    +0.066 A 
ATOM      7  N   UNL     1       1.993  -4.126   1.828  0.00  0.00    -0.229 NA
ATOM      8  C   UNL     1       2.625  -4.526   2.910  0.00  0.00    +0.165 A 
ATOM      9  S   UNL     1       1.636  -5.769   3.493  0.00  0.00    -0.057 S 
ATOM     10  N   UNL     1       3.811  -4.041   3.447  0.00  0.00    -0.261 N 
ATOM     11  C   UNL     1       4.311  -4.581   4.575  0.00  0.00    +0.250 C 
ATOM     12  O   UNL     1       3.723  -5.494   5.125  0.00  0.00    -0.270 OA
ATOM     13  H   UNL     1       4.279  -3.313   3.008  0.00  0.00    +0.157 HD
ENDROOT
BRANCH  11  14
ATOM     14  C   UNL     1       5.571  -4.066   5.145  0.00  0.00    +0.041 A 
ATOM     15  C   UNL     1       6.244  -3.014   4.519  0.00  0.00    +0.017 A 
ATOM     16  C   UNL     1       7.420  -2.534   5.052  0.00  0.00    +0.050 A 
ATOM     17  C   UNL     1       7.941  -3.093   6.212  0.00  0.00    +0.166 A 
ATOM     18  C   UNL     1       7.273  -4.144   6.842  0.00  0.00    +0.167 A 
ATOM     19  C   UNL     1       6.091  -4.625   6.315  0.00  0.00    +0.062 A 
ATOM     20  O   UNL     1       7.984  -4.510   7.949  0.00  0.00    -0.453 OA
ATOM     21  C   UNL     1       9.298  -3.950   7.763  0.00  0.00    +0.466 C 
ATOM     22  O   UNL     1       9.066  -2.803   6.925  0.00  0.00    -0.453 OA
ENDBRANCH  11  14
BRANCH   1  24
ATOM     23  N   UNL     1       1.210  -2.086  -0.022  0.00  0.00    -0.284 N 
ATOM     24  C   UNL     1       0.053  -2.770   0.087  0.00  0.00    +0.226 C 
ATOM     25  O   UNL     1      -1.004  -2.175   0.101  0.00  0.00    -0.275 OA
ATOM     26  H   UNL     1       2.049  -2.563  -0.113  0.00  0.00    +0.155 HD
BRANCH  23  35
ATOM     27  C   UNL     1       0.153   1.380   0.637  0.00  0.00    +0.004 A 
ATOM     28  C   UNL     1       1.147   2.107   0.054  0.00  0.00    +0.028 A 
ATOM     29  C   UNL     1       2.215   1.454  -0.585  0.00  0.00    +0.073 A 
ATOM     30  C   UNL     1       2.241   0.037  -0.613  0.00  0.00    +0.022 A 
ATOM     31  C   UNL     1       3.310  -0.613  -1.253  0.00  0.00    +0.013 A 
ATOM     32  C   UNL     1       4.285   0.157  -1.824  0.00  0.00    +0.020 A 
ATOM     33  C   UNL     1       4.199   1.546  -1.760  0.00  0.00    +0.111 A 
ATOM     34  N   UNL     1       3.200   2.149  -1.163  0.00  0.00    -0.255 NA
ATOM     35  C   UNL     1       1.199  -0.691  -0.003  0.00  0.00    +0.043 A 
ATOM     36  C   UNL     1       0.170  -0.010   0.614  0.00  0.00    +0.024 A 
ENDBRANCH  23  35
ENDBRANCH   1  24
TORSDOF 3
