REMARK  Name = ZINC15867893
REMARK  3 active torsions:
REMARK  status: ('A' for Active; 'I' for Inactive)
REMARK    1  A    between atoms: C_1  and  C_2
REMARK    2  A    between atoms: C_2  and  C_15
REMARK    3  A    between atoms: N_6  and  C_8
REMARK                            x       y       z     vdW  Elec       q    Type
REMARK                         _______ _______ _______ _____ _____    ______ ____
ROOT
ATOM      1  C   UNL     1      -0.285   1.375   0.203  0.00  0.00    +0.051 C 
ATOM      2  C   UNL     1      -0.069  -0.125  -0.013  0.00  0.00    +0.103 C 
ATOM      3  N   UNL     1       0.865  -0.355  -1.127  0.00  0.00    -0.279 N 
ATOM      4  C   UNL     1       1.927  -1.006  -0.618  0.00  0.00    +0.322 C 
ATOM      5  O   UNL     1       2.892  -1.353  -1.271  0.00  0.00    -0.251 OA
ATOM      6  N   UNL     1       1.790  -1.223   0.697  0.00  0.00    -0.187 N 
ATOM      7  N   UNL     1       0.606  -0.722   1.157  0.00  0.00    -0.209 NA
ATOM      8  H   UNL     1       0.738  -0.090  -2.051  0.00  0.00    +0.152 HD
ATOM      9  H   UNL     1       0.041  -1.450   1.567  0.00  0.00    +0.147 HD
ENDROOT
BRANCH   6  10
ATOM     10  C   UNL     1       2.737  -1.877   1.494  0.00  0.00    +0.054 A 
ATOM     11  C   UNL     1       3.114  -1.333   2.714  0.00  0.00    +0.026 A 
ATOM     12  C   UNL     1       4.048  -1.980   3.499  0.00  0.00    +0.017 A 
ATOM     13  C   UNL     1       4.607  -3.171   3.070  0.00  0.00    +0.018 A 
ATOM     14  C   UNL     1       4.233  -3.716   1.855  0.00  0.00    +0.017 A 
ATOM     15  C   UNL     1       3.295  -3.076   1.069  0.00  0.00    +0.026 A 
ATOM     16 BR   UNL     1       5.886  -4.055   4.147  0.00  0.00    -0.050 Br
ENDBRANCH   6  10
BRANCH   2  17
ATOM     17  C   UNL     1      -1.404  -0.824  -0.276  0.00  0.00    +0.028 C 
ATOM     18  C   UNL     1      -1.470  -1.800  -1.452  0.00  0.00    +0.007 C 
ATOM     19  C   UNL     1      -2.164  -0.440  -1.547  0.00  0.00    +0.007 C 
ENDBRANCH   2  17
TORSDOF 2
