REMARK  Name = ZINC39671054
REMARK  5 active torsions:
REMARK  status: ('A' for Active; 'I' for Inactive)
REMARK    1  A    between atoms: C_3  and  C_6
REMARK    2  A    between atoms: C_6  and  C_7
REMARK    3  A    between atoms: C_7  and  N_8
REMARK    4  A    between atoms: C_9  and  C_11
REMARK    5  A    between atoms: C_22  and  C_24
REMARK                            x       y       z     vdW  Elec       q    Type
REMARK                         _______ _______ _______ _____ _____    ______ ____
ROOT
ATOM      1  C   UNL     1       8.397   1.130   2.105  0.00  0.00    +0.100 C 
ATOM      2  C   UNL     1       8.513  -0.396   1.888  0.00  0.00    +0.121 C 
ATOM      3  N   UNL     1       9.688  -0.800   2.695  0.00  0.00    -0.300 N 
ATOM      4  C   UNL     1       9.583   0.011   3.931  0.00  0.00    +0.115 C 
ATOM      5  C   UNL     1       9.100   1.392   3.447  0.00  0.00    -0.004 C 
ATOM      6  C   UNL     1       8.117   1.988   4.451  0.00  0.00    -0.010 C 
ATOM      7  C   UNL     1       8.852   2.295   5.758  0.00  0.00    -0.082 C 
ATOM      8  N   UNL     1       9.947   3.237   5.497  0.00  0.00    +0.379 N 
ATOM      9  C   UNL     1      10.935   2.620   4.604  0.00  0.00    -0.082 C 
ATOM     10  C   UNL     1      10.288   2.328   3.248  0.00  0.00    -0.010 C 
ATOM     11  C   UNL     1      10.638  -1.702   2.376  0.00  0.00    +0.219 C 
ATOM     12  O   UNL     1      10.631  -2.231   1.285  0.00  0.00    -0.275 OA
ATOM     13  H   UNL     1       9.576   4.069   5.063  0.00  0.00    -0.086 HD
ATOM     14  H   UNL     1      10.391   3.484   6.369  0.00  0.00    -0.086 HD
ENDROOT
BRANCH  11  15
ATOM     15  C   UNL     1      11.709  -2.053   3.377  0.00  0.00    +0.079 C 
ATOM     16  C   UNL     1      12.959  -2.551   2.640  0.00  0.00    +0.017 C 
ATOM     17  C   UNL     1      14.084  -2.729   3.662  0.00  0.00    +0.027 C 
ATOM     18  C   UNL     1      13.594  -3.523   4.837  0.00  0.00    -0.031 C 
ATOM     19  C   UNL     1      12.344  -3.712   5.115  0.00  0.00    -0.030 C 
ATOM     20  C   UNL     1      11.208  -3.167   4.297  0.00  0.00    +0.039 C 
ENDBRANCH  11  15
BRANCH   1  22
ATOM     21  N   UNL     1       6.580   2.783   1.811  0.00  0.00    -0.315 N 
ATOM     22  C   UNL     1       6.949   1.540   2.181  0.00  0.00    +0.218 C 
ATOM     23  O   UNL     1       6.115   0.753   2.576  0.00  0.00    -0.275 OA
ATOM     24  H   UNL     1       7.247   3.413   1.495  0.00  0.00    +0.149 HD
BRANCH  21  25
ATOM     25  C   UNL     1       5.173   3.182   1.885  0.00  0.00    +0.112 C 
BRANCH  25  26
ATOM     26  C   UNL     1       5.027   4.629   1.411  0.00  0.00    +0.093 C 
BRANCH  26  29
ATOM     27  C   UNL     1       1.628   5.822   2.187  0.00  0.00    +0.041 A 
ATOM     28  C   UNL     1       2.977   5.604   2.550  0.00  0.00    +0.044 A 
ATOM     29  C   UNL     1       3.579   5.040   1.488  0.00  0.00    +0.106 A 
ATOM     30  O   UNL     1       2.672   4.905   0.507  0.00  0.00    -0.468 OA
ATOM     31  C   UNL     1       1.486   5.377   0.926  0.00  0.00    +0.195 A 
ENDBRANCH  26  29
ENDBRANCH  25  26
ENDBRANCH  21  25
ENDBRANCH   1  22
TORSDOF 5
