REMARK  Name = ZINC14078445
REMARK  3 active torsions:
REMARK  status: ('A' for Active; 'I' for Inactive)
REMARK    1  A    between atoms: C_3  and  C_9
REMARK    2  A    between atoms: C_9  and  S_10
REMARK    3  A    between atoms: S_10  and  C_11
REMARK                            x       y       z     vdW  Elec       q    Type
REMARK                         _______ _______ _______ _____ _____    ______ ____
ROOT
ATOM      1  S   UNL     1       4.207   2.486   1.686  0.00  0.00    -0.080 S 
ENDROOT
BRANCH   1   2
ATOM      2  C   UNL     1       5.711   3.386   1.508  0.00  0.00    +0.210 A 
ATOM      3  N   UNL     1       6.478   3.826   2.513  0.00  0.00    -0.188 NA
ATOM      4  C   UNL     1       7.525   4.458   2.027  0.00  0.00    +0.209 A 
ATOM      5  N   UNL     1       7.441   4.430   0.681  0.00  0.00    -0.246 N 
ATOM      6  H   UNL     1       8.071   4.815   0.051  0.00  0.00    +0.192 HD
ATOM      7  N   UNL     1       6.265   3.729   0.369  0.00  0.00    -0.144 NA
ATOM      8  N   UNL     1       8.534   5.048   2.767  0.00  0.00    -0.328 N 
ATOM      9  H   UNL     1       8.507   5.016   3.736  0.00  0.00    +0.145 HD
ATOM     10  H   UNL     1       9.268   5.493   2.316  0.00  0.00    +0.145 HD
ENDBRANCH   1   2
BRANCH   1  11
ATOM     11  C   UNL     1       3.671   2.186  -0.021  0.00  0.00    +0.113 C 
BRANCH  11  14
ATOM     12  C   UNL     1      -0.017   1.380   0.010  0.00  0.00    +0.039 A 
ATOM     13  C   UNL     1       1.171   2.087   0.002  0.00  0.00    +0.008 A 
ATOM     14  C   UNL     1       2.377   1.413  -0.013  0.00  0.00    -0.023 A 
ATOM     15  C   UNL     1       2.398   0.030  -0.021  0.00  0.00    +0.025 A 
ATOM     16  C   UNL     1       1.211  -0.679  -0.014  0.00  0.00    +0.054 A 
ATOM     17  C   UNL     1       0.002  -0.004   0.002  0.00  0.00    +0.124 A 
ATOM     18  F   UNL     1      -1.158  -0.696   0.009  0.00  0.00    -0.205 F 
ATOM     19 BR   UNL     1       4.049  -0.891  -0.043  0.00  0.00    -0.050 Br
ENDBRANCH  11  14
ENDBRANCH   1  11
TORSDOF 3
