REMARK  Name = ZINC04709680
REMARK  5 active torsions:
REMARK  status: ('A' for Active; 'I' for Inactive)
REMARK    1  A    between atoms: C_3  and  N_8
REMARK    2  A    between atoms: C_11  and  C_18
REMARK    3  A    between atoms: C_13  and  C_16
REMARK    4  A    between atoms: C_14  and  N_15
REMARK    5  A    between atoms: C_21  and  N_23
REMARK                            x       y       z     vdW  Elec       q    Type
REMARK                         _______ _______ _______ _____ _____    ______ ____
ROOT
ATOM      1  N   UNL     1       0.002   0.035  -0.243  0.00  0.00    -0.260 N 
ATOM      2  C   UNL     1      -0.225   1.224   0.399  0.00  0.00    +0.024 C 
ATOM      3  C   UNL     1       0.797   2.062   0.675  0.00  0.00    +0.026 C 
ATOM      4  C   UNL     1       2.210   1.720   0.273  0.00  0.00    +0.104 C 
ATOM      5  C   UNL     1       2.350   0.255  -0.019  0.00  0.00    +0.077 C 
ATOM      6  C   UNL     1       1.262  -0.519  -0.266  0.00  0.00    +0.107 C 
ATOM      7  C   UNL     1       0.577   3.277   1.348  0.00  0.00    +0.162 C 
ATOM      8  O   UNL     1       1.517   4.012   1.574  0.00  0.00    -0.292 OA
ATOM      9  C   UNL     1      -0.801   3.683   1.794  0.00  0.00    +0.080 C 
ATOM     10  C   UNL     1      -1.633   2.423   2.056  0.00  0.00    +0.014 C 
ATOM     11  C   UNL     1      -1.642   1.575   0.781  0.00  0.00    +0.052 C 
ENDROOT
BRANCH   1  14
ATOM     12  C   UNL     1      -2.421  -0.965  -2.823  0.00  0.00    +0.005 A 
ATOM     13  C   UNL     1      -1.376  -0.315  -2.196  0.00  0.00    +0.024 A 
ATOM     14  C   UNL     1      -1.057  -0.623  -0.880  0.00  0.00    +0.042 A 
ATOM     15  C   UNL     1      -1.787  -1.588  -0.199  0.00  0.00    +0.062 A 
ATOM     16  C   UNL     1      -2.835  -2.233  -0.830  0.00  0.00    +0.125 A 
ATOM     17  C   UNL     1      -3.150  -1.922  -2.143  0.00  0.00    +0.038 A 
ATOM     18  F   UNL     1      -3.550  -3.169  -0.167  0.00  0.00    -0.205 F 
ENDBRANCH   1  14
BRANCH   4  19
ATOM     19  C   UNL     1       2.578   2.507  -0.958  0.00  0.00    +0.005 A 
ATOM     20  C   UNL     1       3.554   3.434  -1.119  0.00  0.00    +0.014 A 
ATOM     21  C   UNL     1       3.714   4.032  -2.354  0.00  0.00    +0.041 A 
ATOM     22  C   UNL     1       2.882   3.682  -3.366  0.00  0.00    +0.164 A 
ATOM     23  S   UNL     1       1.836   2.467  -2.581  0.00  0.00    -0.068 S 
BRANCH  22  24
ATOM     24  N   UNL     1       2.850   4.179  -4.760  0.00  0.00    +0.063 N 
ATOM     25  O   UNL     1       3.651   5.021  -5.125  0.00  0.00    -0.126 OA
ATOM     26  O   UNL     1       2.022   3.747  -5.542  0.00  0.00    -0.126 OA
ENDBRANCH  22  24
ENDBRANCH   4  19
BRANCH   6  27
ATOM     27  N   UNL     1       1.419  -1.856  -0.539  0.00  0.00    -0.345 N 
ATOM     28  H   UNL     1       0.640  -2.429  -0.624  0.00  0.00    +0.144 HD
ATOM     29  H   UNL     1       2.308  -2.228  -0.646  0.00  0.00    +0.144 HD
ENDBRANCH   6  27
BRANCH   5  30
ATOM     30  C   UNL     1       3.654  -0.337  -0.038  0.00  0.00    +0.099 C 
ATOM     31  N   UNL     1       4.688  -0.807  -0.054  0.00  0.00    -0.191 NA
ENDBRANCH   5  30
TORSDOF 5
