REMARK  Name = ZINC39608845
REMARK  6 active torsions:
REMARK  status: ('A' for Active; 'I' for Inactive)
REMARK    1  A    between atoms: C_4  and  C_7
REMARK    2  A    between atoms: C_7  and  O_8
REMARK    3  A    between atoms: O_8  and  C_9
REMARK    4  A    between atoms: C_14  and  N_16
REMARK    5  A    between atoms: C_17  and  C_19
REMARK    6  A    between atoms: C_30  and  C_32
REMARK                            x       y       z     vdW  Elec       q    Type
REMARK                         _______ _______ _______ _____ _____    ______ ____
ROOT
ATOM      1  C   UNL     1       9.955   0.865   2.543  0.00  0.00    +0.100 C 
ATOM      2  C   UNL     1       9.545   1.626   1.262  0.00  0.00    +0.121 C 
ATOM      3  N   UNL     1       9.268   3.008   1.720  0.00  0.00    -0.296 N 
ATOM      4  C   UNL     1      10.320   3.279   2.729  0.00  0.00    +0.115 C 
ATOM      5  C   UNL     1      10.467   1.953   3.502  0.00  0.00    -0.004 C 
ATOM      6  C   UNL     1      11.931   1.705   3.850  0.00  0.00    -0.010 C 
ATOM      7  C   UNL     1      12.400   2.765   4.850  0.00  0.00    -0.082 C 
ATOM      8  N   UNL     1      11.571   2.702   6.059  0.00  0.00    +0.379 N 
ATOM      9  C   UNL     1      10.180   3.034   5.730  0.00  0.00    -0.082 C 
ATOM     10  C   UNL     1       9.616   1.984   4.768  0.00  0.00    -0.010 C 
ATOM     11  C   UNL     1       8.283   3.832   1.311  0.00  0.00    +0.247 C 
ATOM     12  O   UNL     1       7.418   3.420   0.563  0.00  0.00    -0.270 OA
ATOM     13  H   UNL     1      11.611   1.770   6.444  0.00  0.00    -0.086 HD
ATOM     14  H   UNL     1      11.920   3.359   6.740  0.00  0.00    -0.086 HD
ENDROOT
BRANCH  11  15
ATOM     15  C   UNL     1       8.256   5.236   1.771  0.00  0.00    +0.038 A 
ATOM     16  C   UNL     1       9.421   5.840   2.248  0.00  0.00    +0.014 A 
ATOM     17  C   UNL     1       9.389   7.150   2.677  0.00  0.00    +0.022 A 
ATOM     18  C   UNL     1       8.205   7.868   2.635  0.00  0.00    +0.059 A 
ATOM     19  C   UNL     1       7.045   7.274   2.163  0.00  0.00    +0.060 A 
ATOM     20  C   UNL     1       7.066   5.965   1.726  0.00  0.00    +0.034 A 
ATOM     21 CL   UNL     1       5.566   8.181   2.115  0.00  0.00    -0.082 Cl
ATOM     22 CL   UNL     1       8.174   9.516   3.178  0.00  0.00    -0.082 Cl
ENDBRANCH  11  15
BRANCH   1  24
ATOM     23  N   UNL     1       8.946  -0.913   3.935  0.00  0.00    -0.310 N 
ATOM     24  C   UNL     1       8.764   0.159   3.138  0.00  0.00    +0.218 C 
ATOM     25  O   UNL     1       7.643   0.555   2.900  0.00  0.00    -0.275 OA
ATOM     26  H   UNL     1       9.843  -1.230   4.125  0.00  0.00    +0.149 HD
BRANCH  23  31
ATOM     27  C   UNL     1       8.147  -3.062   4.830  0.00  0.00    +0.139 C 
ATOM     28  C   UNL     1       7.964  -3.243   6.351  0.00  0.00    +0.033 C 
ATOM     29  C   UNL     1       8.108  -1.811   6.923  0.00  0.00    +0.004 C 
ATOM     30  C   UNL     1       7.399  -0.943   5.855  0.00  0.00    +0.025 C 
ATOM     31  C   UNL     1       7.788  -1.599   4.513  0.00  0.00    +0.102 C 
BRANCH  27  32
ATOM     32  O   UNL     1       7.272  -3.944   4.123  0.00  0.00    -0.370 OA
BRANCH  32  33
ATOM     33  C   UNL     1       7.859  -5.206   3.796  0.00  0.00    +0.195 C 
BRANCH  33  37
ATOM     34  C   UNL     1       5.010  -7.603   1.701  0.00  0.00    +0.000 A 
ATOM     35  C   UNL     1       5.857  -6.765   1.000  0.00  0.00    +0.000 A 
ATOM     36  C   UNL     1       6.779  -5.989   1.678  0.00  0.00    +0.006 A 
ATOM     37  C   UNL     1       6.853  -6.051   3.057  0.00  0.00    -0.022 A 
ATOM     38  C   UNL     1       6.005  -6.888   3.758  0.00  0.00    +0.006 A 
ATOM     39  C   UNL     1       5.085  -7.665   3.080  0.00  0.00    +0.000 A 
ENDBRANCH  33  37
ENDBRANCH  32  33
ENDBRANCH  27  32
ENDBRANCH  23  31
ENDBRANCH   1  24
TORSDOF 6
