REMARK  Name = ZINC38745962
REMARK  8 active torsions:
REMARK  status: ('A' for Active; 'I' for Inactive)
REMARK    1  A    between atoms: C_1  and  O_2
REMARK    2  A    between atoms: O_2  and  C_3
REMARK    3  A    between atoms: C_6  and  C_9
REMARK    4  A    between atoms: C_11  and  C_15
REMARK    5  A    between atoms: C_19  and  C_24
REMARK    6  A    between atoms: C_24  and  C_25
REMARK    7  A    between atoms: C_24  and  C_31
REMARK    8  A    between atoms: C_24  and  O_37
REMARK                            x       y       z     vdW  Elec       q    Type
REMARK                         _______ _______ _______ _____ _____    ______ ____
ROOT
ATOM      1  C   UNL     1       4.670  -4.702  -5.639  0.00  0.00    +0.182 C 
ATOM      2  N   UNL     1       5.424  -4.848  -6.913  0.00  0.00    -0.265 N 
ATOM      3  N   UNL     1       6.106  -6.020  -7.047  0.00  0.00    -0.221 N 
ATOM      4  C   UNL     1       7.167  -6.498  -7.796  0.00  0.00    +0.192 A 
ATOM      5  N   UNL     1       7.330  -7.755  -7.504  0.00  0.00    -0.128 NA
ATOM      6  N   UNL     1       6.471  -8.118  -6.617  0.00  0.00    -0.121 NA
ATOM      7  C   UNL     1       5.727  -7.105  -6.298  0.00  0.00    +0.211 A 
ATOM      8  S   UNL     1       4.408  -6.491  -5.271  0.00  0.00    -0.058 S 
ATOM      9  H   UNL     1       4.824  -4.685  -7.708  0.00  0.00    +0.168 HD
ENDROOT
BRANCH   1  12
ATOM     10  C   UNL     1       2.496  -2.494  -4.366  0.00  0.00    +0.091 C 
ATOM     11  C   UNL     1       2.595  -3.827  -4.537  0.00  0.00    +0.034 C 
ATOM     12  C   UNL     1       3.343  -3.970  -5.850  0.00  0.00    +0.185 C 
ATOM     13  N   UNL     1       3.575  -2.575  -6.259  0.00  0.00    -0.177 NA
ATOM     14  N   UNL     1       3.080  -1.838  -5.403  0.00  0.00    -0.154 NA
BRANCH  10  18
ATOM     15  C   UNL     1       0.606  -0.607  -1.056  0.00  0.00    +0.120 A 
ATOM     16  C   UNL     1       1.173   0.164  -2.062  0.00  0.00    +0.046 A 
ATOM     17  C   UNL     1       1.786  -0.445  -3.136  0.00  0.00    +0.013 A 
ATOM     18  C   UNL     1       1.837  -1.836  -3.211  0.00  0.00    +0.002 A 
ATOM     19  C   UNL     1       1.267  -2.607  -2.199  0.00  0.00    +0.013 A 
ATOM     20  C   UNL     1       0.659  -1.993  -1.125  0.00  0.00    +0.046 A 
BRANCH  15  22
ATOM     21  C   UNL     1      -0.017   1.425   0.010  0.00  0.00    +0.277 C 
ATOM     22  O   UNL     1       0.002  -0.004   0.002  0.00  0.00    -0.495 OA
ENDBRANCH  15  22
ENDBRANCH  10  18
ENDBRANCH   1  12
BRANCH   4  23
ATOM     23  C   UNL     1       7.988  -5.703  -8.778  0.00  0.00    +0.177 C 
BRANCH  23  24
ATOM     24  C   UNL     1       9.046  -6.590  -9.383  0.00  0.00    -0.004 A 
ATOM     25  C   UNL     1       8.809  -7.943  -9.535  0.00  0.00    +0.007 A 
ATOM     26  C   UNL     1       9.779  -8.757 -10.089  0.00  0.00    +0.000 A 
ATOM     27  C   UNL     1      10.986  -8.217 -10.493  0.00  0.00    +0.000 A 
ATOM     28  C   UNL     1      11.223  -6.863 -10.341  0.00  0.00    +0.000 A 
ATOM     29  C   UNL     1      10.251  -6.049  -9.790  0.00  0.00    +0.007 A 
ENDBRANCH  23  24
BRANCH  23  30
ATOM     30  C   UNL     1       7.093  -5.173  -9.868  0.00  0.00    -0.004 A 
ATOM     31  C   UNL     1       5.960  -5.875 -10.234  0.00  0.00    +0.007 A 
ATOM     32  C   UNL     1       5.139  -5.389 -11.234  0.00  0.00    +0.000 A 
ATOM     33  C   UNL     1       5.451  -4.201 -11.868  0.00  0.00    +0.000 A 
ATOM     34  C   UNL     1       6.584  -3.499 -11.502  0.00  0.00    +0.000 A 
ATOM     35  C   UNL     1       7.403  -3.982 -10.499  0.00  0.00    +0.007 A 
ENDBRANCH  23  30
BRANCH  23  36
ATOM     36  O   UNL     1       8.613  -4.610  -8.101  0.00  0.00    -0.372 OA
ATOM     37  H   UNL     1       7.991  -3.997  -7.686  0.00  0.00    +0.212 HD
ENDBRANCH  23  36
ENDBRANCH   4  23
TORSDOF 7
