REMARK  Name = ZINC59218814
REMARK  8 active torsions:
REMARK  status: ('A' for Active; 'I' for Inactive)
REMARK    1  A    between atoms: C_1  and  C_2
REMARK    2  A    between atoms: C_5  and  C_8
REMARK    3  A    between atoms: C_11  and  S_13
REMARK    4  A    between atoms: S_13  and  C_14
REMARK    5  A    between atoms: C_14  and  C_15
REMARK    6  A    between atoms: N_17  and  C_18
REMARK    7  A    between atoms: C_23  and  N_24
REMARK    8  A    between atoms: N_27  and  C_30
REMARK                            x       y       z     vdW  Elec       q    Type
REMARK                         _______ _______ _______ _____ _____    ______ ____
ROOT
ATOM      1  C   UNL     1       0.070 -12.339  -3.590  0.00  0.00    +0.055 A 
ATOM      2  C   UNL     1       0.077 -12.005  -4.936  0.00  0.00    +0.025 A 
ATOM      3  C   UNL     1      -0.001 -12.997  -5.895  0.00  0.00    +0.002 A 
ATOM      4  C   UNL     1      -0.085 -14.325  -5.517  0.00  0.00    +0.002 A 
ATOM      5  C   UNL     1      -0.092 -14.667  -4.178  0.00  0.00    +0.025 A 
ATOM      6  C   UNL     1      -0.008 -13.678  -3.209  0.00  0.00    +0.051 A 
ENDROOT
BRANCH   6   7
ATOM      7  N   UNL     1      -0.009 -14.023  -1.853  0.00  0.00    -0.332 N 
ATOM      8  C   UNL     1      -1.270 -14.136  -1.103  0.00  0.00    +0.086 C 
ATOM      9  C   UNL     1      -1.278 -15.480  -0.368  0.00  0.00    -0.059 C 
ATOM     10  N   UNL     1      -0.069 -15.594   0.458  0.00  0.00    +0.384 N 
ATOM     11  C   UNL     1       1.122 -15.621  -0.401  0.00  0.00    -0.059 C 
ATOM     12  C   UNL     1       1.249 -14.289  -1.139  0.00  0.00    +0.086 C 
ATOM     13  H   UNL     1      -0.014 -14.803   1.082  0.00  0.00    -0.081 HD
BRANCH  10  14
ATOM     14  C   UNL     1      -0.131 -16.832   1.246  0.00  0.00    -0.068 C 
ATOM     15  C   UNL     1      -1.365 -16.801   2.149  0.00  0.00    -0.015 C 
ATOM     16  C   UNL     1      -1.429 -18.090   2.970  0.00  0.00    -0.002 C 
ATOM     17  C   UNL     1      -0.170 -18.210   3.831  0.00  0.00    -0.000 C 
ATOM     18  C   UNL     1       1.065 -18.242   2.927  0.00  0.00    -0.002 C 
ATOM     19  C   UNL     1       1.129 -16.952   2.106  0.00  0.00    -0.015 C 
ENDBRANCH  10  14
ENDBRANCH   6   7
BRANCH   1  22
ATOM     20  C   UNL     1      -0.440 -10.141  -2.830  0.00  0.00    +0.227 C 
ATOM     21  O   UNL     1      -0.967  -9.908  -3.897  0.00  0.00    -0.275 OA
ATOM     22  N   UNL     1       0.149 -11.335  -2.616  0.00  0.00    -0.283 N 
ATOM     23  H   UNL     1       0.626 -11.498  -1.788  0.00  0.00    +0.155 HD
BRANCH  20  24
ATOM     24  C   UNL     1      -0.442  -9.097  -1.744  0.00  0.00    +0.172 C 
BRANCH  24  25
ATOM     25  S   UNL     1      -1.303  -7.613  -2.334  0.00  0.00    -0.089 S 
BRANCH  25  29
ATOM     26  C   UNL     1      -1.541  -4.571   0.258  0.00  0.00    +0.079 A 
ATOM     27  C   UNL     1      -0.880  -5.133   1.313  0.00  0.00    +0.076 A 
ATOM     28  S   UNL     1      -0.476  -6.739   0.638  0.00  0.00    -0.069 S 
ATOM     29  C   UNL     1      -1.222  -6.502  -0.969  0.00  0.00    +0.136 A 
ATOM     30  N   UNL     1      -1.701  -5.276  -0.860  0.00  0.00    -0.233 NA
BRANCH  26  35
ATOM     31  C   UNL     1      -3.635   0.779   0.652  0.00  0.00    +0.044 C 
ATOM     32  C   UNL     1      -3.087  -0.621   0.549  0.00  0.00    -0.050 A 
ATOM     33  C   UNL     1      -3.257  -1.344  -0.619  0.00  0.00    +0.004 A 
ATOM     34  C   UNL     1      -2.758  -2.626  -0.719  0.00  0.00    +0.010 A 
ATOM     35  C   UNL     1      -2.079  -3.193   0.359  0.00  0.00    +0.001 A 
ATOM     36  C   UNL     1      -1.910  -2.460   1.533  0.00  0.00    +0.010 A 
ATOM     37  C   UNL     1      -2.410  -1.177   1.619  0.00  0.00    +0.004 A 
ENDBRANCH  26  35
ENDBRANCH  25  29
ENDBRANCH  24  25
ENDBRANCH  20  24
ENDBRANCH   1  22
TORSDOF 7
