REMARK  Name = ZINC40723049
REMARK  5 active torsions:
REMARK  status: ('A' for Active; 'I' for Inactive)
REMARK    1  A    between atoms: C_6  and  S_7
REMARK    2  A    between atoms: S_7  and  C_8
REMARK    3  A    between atoms: C_9  and  N_23
REMARK    4  A    between atoms: C_10  and  N_14
REMARK    5  A    between atoms: N_14  and  C_15
REMARK                            x       y       z     vdW  Elec       q    Type
REMARK                         _______ _______ _______ _____ _____    ______ ____
ROOT
ATOM      1  C   UNL     1      -1.008  -2.591  -0.116  0.00  0.00    +0.127 A 
ATOM      2  C   UNL     1      -1.956  -3.606  -0.264  0.00  0.00    +0.098 A 
ATOM      3  C   UNL     1      -1.499  -4.917  -0.410  0.00  0.00    +0.148 A 
ATOM      4  N   UNL     1      -0.188  -5.148  -0.402  0.00  0.00    -0.219 NA
ATOM      5  C   UNL     1       0.673  -4.161  -0.260  0.00  0.00    +0.224 A 
ATOM      6  N   UNL     1       0.285  -2.909  -0.125  0.00  0.00    -0.227 NA
ENDROOT
BRANCH   2   7
ATOM      7  N   UNL     1      -3.329  -3.316  -0.265  0.00  0.00    -0.353 N 
ATOM      8  H   UNL     1      -3.631  -2.400  -0.162  0.00  0.00    +0.142 HD
ATOM      9  H   UNL     1      -3.975  -4.032  -0.369  0.00  0.00    +0.142 HD
ENDBRANCH   2   7
BRANCH   3  10
ATOM     10  N   UNL     1      -2.400  -5.966  -0.560  0.00  0.00    -0.297 N 
ATOM     11  H   UNL     1      -3.348  -5.781  -0.651  0.00  0.00    +0.154 HD
BRANCH  10  12
ATOM     12  C   UNL     1      -1.939  -7.286  -0.580  0.00  0.00    +0.051 A 
ATOM     13  C   UNL     1      -0.737  -7.613   0.036  0.00  0.00    +0.026 A 
ATOM     14  C   UNL     1      -0.285  -8.918   0.015  0.00  0.00    +0.022 A 
ATOM     15  C   UNL     1      -1.026  -9.899  -0.619  0.00  0.00    +0.042 A 
ATOM     16  C   UNL     1      -2.224  -9.577  -1.233  0.00  0.00    +0.041 A 
ATOM     17  C   UNL     1      -2.685  -8.275  -1.210  0.00  0.00    +0.063 A 
ATOM     18 CL   UNL     1      -4.192  -7.873  -1.973  0.00  0.00    -0.082 Cl
ATOM     19 CL   UNL     1      -0.453 -11.538  -0.643  0.00  0.00    -0.083 Cl
ENDBRANCH  10  12
ENDBRANCH   3  10
BRANCH   1  20
ATOM     20  S   UNL     1      -1.515  -0.914   0.073  0.00  0.00    -0.068 S 
BRANCH  20  26
ATOM     21  C   UNL     1       0.574   0.373  -1.138  0.00  0.00    +0.016 A 
ATOM     22  C   UNL     1       1.758   1.083  -1.140  0.00  0.00    +0.021 A 
ATOM     23  C   UNL     1       2.370   1.415   0.057  0.00  0.00    +0.041 A 
ATOM     24  C   UNL     1       1.796   1.037   1.258  0.00  0.00    +0.021 A 
ATOM     25  C   UNL     1       0.612   0.327   1.266  0.00  0.00    +0.016 A 
ATOM     26  C   UNL     1      -0.004  -0.008   0.067  0.00  0.00    +0.014 A 
ATOM     27 CL   UNL     1       3.858   2.308   0.051  0.00  0.00    -0.084 Cl
ENDBRANCH  20  26
ENDBRANCH   1  20
TORSDOF 5
