REMARK  Name = ZINC14276621
REMARK  10 active torsions:
REMARK  status: ('A' for Active; 'I' for Inactive)
REMARK    1  A    between atoms: C_1  and  C_2
REMARK    2  A    between atoms: C_2  and  C_3
REMARK    3  A    between atoms: C_2  and  O_4
REMARK    4  A    between atoms: O_4  and  C_5
REMARK    5  A    between atoms: C_8  and  C_11
REMARK    6  A    between atoms: N_13  and  C_14
REMARK    7  A    between atoms: C_14  and  N_16
REMARK    8  A    between atoms: N_16  and  C_17
REMARK    9  A    between atoms: C_20  and  N_23
REMARK   10  A    between atoms: C_29  and  C_31
REMARK                            x       y       z     vdW  Elec       q    Type
REMARK                         _______ _______ _______ _____ _____    ______ ____
ROOT
ATOM      1  C   UNL     1       1.496  -6.224  -1.944  0.00  0.00    +0.033 A 
ATOM      2  C   UNL     1       0.630  -7.229  -1.532  0.00  0.00    +0.025 A 
ATOM      3  C   UNL     1       1.125  -8.477  -1.211  0.00  0.00    +0.025 A 
ATOM      4  C   UNL     1       2.489  -8.725  -1.291  0.00  0.00    +0.030 A 
ATOM      5  C   UNL     1       3.355  -7.719  -1.698  0.00  0.00    +0.025 A 
ATOM      6  C   UNL     1       2.860  -6.472  -2.023  0.00  0.00    +0.025 A 
ENDROOT
BRANCH   4   7
ATOM      7  N   UNL     1       2.991  -9.989  -0.962  0.00  0.00    -0.327 N 
ATOM      8  C   UNL     1       3.773 -10.551  -2.071  0.00  0.00    +0.124 C 
ATOM      9  C   UNL     1       4.452 -11.845  -1.610  0.00  0.00    +0.127 C 
ATOM     10  N   UNL     1       3.424 -12.740  -1.057  0.00  0.00    -0.295 N 
ATOM     11  C   UNL     1       2.510 -12.205  -0.036  0.00  0.00    +0.127 C 
ATOM     12  C   UNL     1       1.908 -10.897  -0.560  0.00  0.00    +0.124 C 
ATOM     13  C   UNL     1       3.322 -14.018  -1.476  0.00  0.00    +0.247 C 
ATOM     14  O   UNL     1       2.401 -14.711  -1.091  0.00  0.00    -0.270 OA
BRANCH  13  15
ATOM     15  C   UNL     1       4.331 -14.575  -2.402  0.00  0.00    +0.037 A 
ATOM     16  C   UNL     1       5.629 -14.063  -2.415  0.00  0.00    +0.013 A 
ATOM     17  C   UNL     1       6.567 -14.591  -3.278  0.00  0.00    +0.001 A 
ATOM     18  C   UNL     1       6.219 -15.617  -4.138  0.00  0.00    +0.000 A 
ATOM     19  C   UNL     1       4.932 -16.125  -4.135  0.00  0.00    +0.001 A 
ATOM     20  C   UNL     1       3.987 -15.610  -3.272  0.00  0.00    +0.013 A 
ENDBRANCH  13  15
ENDBRANCH   4   7
BRANCH   1  21
ATOM     21  N   UNL     1       0.994  -4.958  -2.274  0.00  0.00    -0.297 N 
ATOM     22  H   UNL     1       0.287  -4.562  -1.740  0.00  0.00    +0.154 HD
BRANCH  21  23
ATOM     23  C   UNL     1       1.492  -4.290  -3.333  0.00  0.00    +0.141 C 
ATOM     24  S   UNL     1       2.645  -5.041  -4.353  0.00  0.00    -0.018 S 
BRANCH  23  27
ATOM     25  C   UNL     1       1.581  -2.365  -4.649  0.00  0.00    +0.250 C 
ATOM     26  O   UNL     1       2.400  -2.897  -5.373  0.00  0.00    -0.270 OA
ATOM     27  N   UNL     1       1.083  -3.032  -3.590  0.00  0.00    -0.264 N 
ATOM     28  H   UNL     1       0.430  -2.607  -3.012  0.00  0.00    +0.157 HD
BRANCH  25  32
ATOM     29  C   UNL     1       0.291   1.599  -5.459  0.00  0.00    +0.121 A 
ATOM     30  C   UNL     1       1.228   0.992  -6.288  0.00  0.00    +0.046 A 
ATOM     31  C   UNL     1       1.649  -0.293  -6.029  0.00  0.00    +0.016 A 
ATOM     32  C   UNL     1       1.133  -0.987  -4.930  0.00  0.00    +0.037 A 
ATOM     33  C   UNL     1       0.192  -0.373  -4.099  0.00  0.00    +0.016 A 
ATOM     34  C   UNL     1      -0.224   0.912  -4.365  0.00  0.00    +0.046 A 
BRANCH  29  35
ATOM     35  O   UNL     1      -0.121   2.866  -5.718  0.00  0.00    -0.489 OA
BRANCH  35  37
ATOM     36  C   UNL     1      -1.035   4.943  -4.887  0.00  0.00    +0.051 C 
ATOM     37  C   UNL     1      -1.113   3.415  -4.849  0.00  0.00    +0.167 C 
ATOM     38  C   UNL     1      -2.501   2.964  -5.309  0.00  0.00    +0.051 C 
ENDBRANCH  35  37
ENDBRANCH  29  35
ENDBRANCH  25  32
ENDBRANCH  23  27
ENDBRANCH  21  23
ENDBRANCH   1  21
TORSDOF 8
