REMARK  Name = ZINC64774493
REMARK  12 active torsions:
REMARK  status: ('A' for Active; 'I' for Inactive)
REMARK    1  A    between atoms: C_1  and  C_2
REMARK    2  A    between atoms: C_4  and  C_33
REMARK    3  A    between atoms: C_5  and  N_29
REMARK    4  A    between atoms: C_6  and  C_8
REMARK    5  A    between atoms: C_12  and  S_15
REMARK    6  A    between atoms: S_15  and  C_16
REMARK    7  A    between atoms: C_16  and  C_17
REMARK    8  A    between atoms: N_19  and  C_20
REMARK    9  A    between atoms: C_23  and  C_26
REMARK   10  A    between atoms: C_26  and  C_27
REMARK   11  A    between atoms: C_26  and  C_28
REMARK   12  A    between atoms: C_30  and  C_32
REMARK                            x       y       z     vdW  Elec       q    Type
REMARK                         _______ _______ _______ _____ _____    ______ ____
ROOT
ATOM      1  C   UNL     1       0.564  -3.296   1.850  0.00  0.00    +0.161 A 
ATOM      2  C   UNL     1       0.887  -2.955   3.176  0.00  0.00    +0.300 A 
ATOM      3  O   UNL     1       0.892  -1.661   3.577  0.00  0.00    -0.263 OA
ATOM      4  N   UNL     1       1.187  -3.928   4.027  0.00  0.00    -0.180 NA
ATOM      5  C   UNL     1       1.173  -5.189   3.607  0.00  0.00    +0.213 A 
ATOM      6  N   UNL     1       0.866  -5.489   2.351  0.00  0.00    -0.122 NA
ATOM      7  N   UNL     1       0.564  -4.576   1.496  0.00  0.00    -0.141 NA
ENDROOT
BRANCH   1  13
ATOM      8  C   UNL     1       1.531   1.125  -0.255  0.00  0.00    +0.044 C 
ATOM      9  C   UNL     1       0.683  -0.117  -0.151  0.00  0.00    -0.049 A 
ATOM     10  C   UNL     1      -0.416  -0.271  -0.978  0.00  0.00    +0.008 A 
ATOM     11  C   UNL     1      -1.201  -1.405  -0.891  0.00  0.00    -0.028 A 
ATOM     12  C   UNL     1      -0.889  -2.397   0.028  0.00  0.00    +0.046 A 
ATOM     13  C   UNL     1       0.223  -2.243   0.865  0.00  0.00    +0.029 A 
ATOM     14  C   UNL     1       1.009  -1.097   0.764  0.00  0.00    +0.015 A 
ATOM     15  C   UNL     1      -2.396  -1.565  -1.794  0.00  0.00    +0.046 C 
BRANCH  12  16
ATOM     16  N   UNL     1      -1.682  -3.544   0.118  0.00  0.00    -0.285 N 
ATOM     17  C   UNL     1      -2.026  -4.032   1.326  0.00  0.00    +0.214 C 
ATOM     18  O   UNL     1      -1.695  -3.445   2.334  0.00  0.00    -0.276 OA
ATOM     19  C   UNL     1      -2.821  -5.308   1.425  0.00  0.00    +0.109 C 
ATOM     20  H   UNL     1      -1.985  -3.989  -0.689  0.00  0.00    +0.155 HD
ENDBRANCH  12  16
ENDBRANCH   1  13
BRANCH   5  21
ATOM     21  S   UNL     1       1.571  -6.483   4.735  0.00  0.00    -0.075 S 
BRANCH  21  22
ATOM     22  C   UNL     1       1.426  -7.993   3.740  0.00  0.00    +0.173 C 
BRANCH  22  23
ATOM     23  C   UNL     1       1.744  -9.191   4.597  0.00  0.00    +0.227 C 
ATOM     24  O   UNL     1       2.041  -9.041   5.763  0.00  0.00    -0.275 OA
ATOM     25  N   UNL     1       1.700 -10.429   4.066  0.00  0.00    -0.285 N 
ATOM     26  H   UNL     1       1.398 -10.555   3.153  0.00  0.00    +0.155 HD
BRANCH  25  27
ATOM     27  C   UNL     1       2.091 -11.533   4.832  0.00  0.00    +0.033 A 
ATOM     28  C   UNL     1       2.749 -12.599   4.233  0.00  0.00    +0.023 A 
ATOM     29  C   UNL     1       3.133 -13.687   4.992  0.00  0.00    +0.006 A 
ATOM     30  C   UNL     1       2.862 -13.716   6.348  0.00  0.00    -0.045 A 
ATOM     31  C   UNL     1       2.207 -12.657   6.948  0.00  0.00    +0.006 A 
ATOM     32  C   UNL     1       1.825 -11.563   6.195  0.00  0.00    +0.023 A 
BRANCH  30  33
ATOM     33  C   UNL     1       3.283 -14.905   7.173  0.00  0.00    +0.013 C 
ATOM     34  C   UNL     1       4.245 -14.448   8.272  0.00  0.00    +0.012 C 
ATOM     35  C   UNL     1       2.048 -15.546   7.810  0.00  0.00    +0.012 C 
ENDBRANCH  30  33
ENDBRANCH  25  27
ENDBRANCH  22  23
ENDBRANCH  21  22
ENDBRANCH   5  21
TORSDOF 7
