REMARK  Name = ZINC02315326
REMARK  7 active torsions:
REMARK  status: ('A' for Active; 'I' for Inactive)
REMARK    1  A    between atoms: C_1  and  O_2
REMARK    2  A    between atoms: O_2  and  C_3
REMARK    3  A    between atoms: C_3  and  C_5
REMARK    4  A    between atoms: C_9  and  N_10
REMARK    5  A    between atoms: C_11  and  C_13
REMARK    6  A    between atoms: N_24  and  C_27
REMARK    7  A    between atoms: C_25  and  N_26
REMARK                            x       y       z     vdW  Elec       q    Type
REMARK                         _______ _______ _______ _____ _____    ______ ____
ROOT
ATOM      1  C   UNL     1       1.155  -0.782  -0.013  0.00  0.00    +0.104 A 
ATOM      2  C   UNL     1       0.712  -2.186  -0.016  0.00  0.00    +0.123 A 
ATOM      3  C   UNL     1      -0.752  -2.132  -0.003  0.00  0.00    +0.166 A 
ATOM      4  N   UNL     1      -1.441  -3.253  -0.004  0.00  0.00    -0.225 NA
ATOM      5  C   UNL     1      -0.801  -4.430  -0.016  0.00  0.00    +0.092 A 
ATOM      6  C   UNL     1      -1.529  -5.633  -0.016  0.00  0.00    +0.030 A 
ATOM      7  C   UNL     1      -0.871  -6.824  -0.029  0.00  0.00    +0.002 A 
ATOM      8  C   UNL     1       0.522  -6.872  -0.042  0.00  0.00    +0.002 A 
ATOM      9  C   UNL     1       1.261  -5.730  -0.042  0.00  0.00    +0.030 A 
ATOM     10  C   UNL     1       0.616  -4.479  -0.029  0.00  0.00    +0.090 A 
ATOM     11  N   UNL     1       1.333  -3.349  -0.029  0.00  0.00    -0.241 NA
ATOM     12  N   UNL     1      -1.107  -0.797   0.014  0.00  0.00    -0.280 N 
ATOM     13  C   UNL     1       0.002  -0.004   0.002  0.00  0.00    +0.117 A 
ENDROOT
BRANCH  12  14
ATOM     14  C   UNL     1      -2.425  -0.323   0.036  0.00  0.00    +0.050 A 
ATOM     15  C   UNL     1      -3.237  -0.576   1.133  0.00  0.00    +0.026 A 
ATOM     16  C   UNL     1      -4.534  -0.102   1.155  0.00  0.00    +0.002 A 
ATOM     17  C   UNL     1      -5.028   0.614   0.080  0.00  0.00    +0.000 A 
ATOM     18  C   UNL     1      -4.224   0.863  -1.017  0.00  0.00    +0.002 A 
ATOM     19  C   UNL     1      -2.924   0.396  -1.042  0.00  0.00    +0.026 A 
ENDBRANCH  12  14
BRANCH   1  21
ATOM     20  N   UNL     1       3.119  -0.086  -1.195  0.00  0.00    -0.275 N 
ATOM     21  C   UNL     1       2.494  -0.315  -0.023  0.00  0.00    +0.254 C 
ATOM     22  O   UNL     1       3.079  -0.119   1.027  0.00  0.00    -0.270 OA
ATOM     23  H   UNL     1       2.653  -0.242  -2.032  0.00  0.00    +0.156 HD
BRANCH  20  28
ATOM     24  C   UNL     1       5.232   0.655  -2.300  0.00  0.00    +0.091 A 
ATOM     25  C   UNL     1       6.581   1.129  -2.034  0.00  0.00    -0.021 A 
ATOM     26  C   UNL     1       6.908   1.231  -0.728  0.00  0.00    -0.004 A 
ATOM     27  S   UNL     1       5.456   0.718   0.144  0.00  0.00    -0.077 S 
ATOM     28  C   UNL     1       4.426   0.370  -1.205  0.00  0.00    +0.087 A 
ATOM     29  C   UNL     1       8.217   1.682  -0.158  0.00  0.00    +0.043 C 
ATOM     30  C   UNL     1       9.268   1.657  -1.278  0.00  0.00    +0.005 C 
ATOM     31  C   UNL     1       8.688   2.351  -2.513  0.00  0.00    +0.005 C 
ATOM     32  C   UNL     1       7.583   1.488  -3.125  0.00  0.00    +0.037 C 
BRANCH  24  33
ATOM     33  C   UNL     1       4.742   0.489  -3.669  0.00  0.00    +0.342 C 
ATOM     34  O   UNL     1       4.191   1.415  -4.234  0.00  0.00    -0.245 OA
BRANCH  33  36
ATOM     35  C   UNL     1       4.388  -0.784  -5.659  0.00  0.00    +0.280 C 
ATOM     36  O   UNL     1       4.900  -0.691  -4.303  0.00  0.00    -0.464 OA
ENDBRANCH  33  36
ENDBRANCH  24  33
ENDBRANCH  20  28
ENDBRANCH   1  21
BRANCH  13  37
ATOM     37  N   UNL     1      -0.017   1.366   0.010  0.00  0.00    -0.343 N 
ATOM     38  H   UNL     1       0.817   1.863   0.004  0.00  0.00    +0.144 HD
ATOM     39  H   UNL     1      -0.863   1.840   0.016  0.00  0.00    +0.144 HD
ENDBRANCH  13  37
TORSDOF 6
