REMARK  Name = ZINC39531942
REMARK  11 active torsions:
REMARK  status: ('A' for Active; 'I' for Inactive)
REMARK    1  A    between atoms: C_1  and  C_2
REMARK    2  A    between atoms: C_7  and  C_12
REMARK    3  A    between atoms: C_17  and  C_20
REMARK    4  A    between atoms: C_20  and  C_22
REMARK    5  A    between atoms: C_20  and  N_29
REMARK    6  A    between atoms: C_22  and  C_23
REMARK    7  A    between atoms: N_29  and  C_30
REMARK    8  A    between atoms: N_29  and  C_31
REMARK    9  A    between atoms: C_31  and  C_32
REMARK   10  A    between atoms: N_34  and  C_39
REMARK   11  A    between atoms: C_36  and  C_38
REMARK                            x       y       z     vdW  Elec       q    Type
REMARK                         _______ _______ _______ _____ _____    ______ ____
ROOT
ATOM      1  C   UNL     1      -5.867   1.521  -4.739  0.00  0.00    -0.061 C 
ENDROOT
BRANCH   1   7
ATOM      2  C   UNL     1      -2.486   0.373  -0.619  0.00  0.00    +0.263 C 
ATOM      3  O   UNL     1      -2.119  -0.773  -0.442  0.00  0.00    -0.268 OA
ATOM      4  N   UNL     1      -2.824   0.789  -1.855  0.00  0.00    -0.296 N 
ATOM      5  C   UNL     1      -3.136   2.202  -2.110  0.00  0.00    +0.108 C 
ATOM      6  C   UNL     1      -4.507   2.290  -2.788  0.00  0.00    +0.021 C 
ATOM      7  C   UNL     1      -4.510   1.409  -4.040  0.00  0.00    -0.021 C 
ATOM      8  C   UNL     1      -4.260  -0.047  -3.642  0.00  0.00    +0.021 C 
ATOM      9  C   UNL     1      -2.880  -0.160  -2.975  0.00  0.00    +0.108 C 
BRANCH   2  16
ATOM     10  C   UNL     1      -3.243   3.970   5.856  0.00  0.00    +0.044 C 
ATOM     11  C   UNL     1      -2.974   3.687   4.401  0.00  0.00    -0.050 A 
ATOM     12  C   UNL     1      -2.592   4.722   3.558  0.00  0.00    +0.005 A 
ATOM     13  C   UNL     1      -2.341   4.485   2.224  0.00  0.00    +0.026 A 
ATOM     14  C   UNL     1      -2.471   3.197   1.714  0.00  0.00    +0.047 A 
ATOM     15  N   UNL     1      -2.294   2.659   0.461  0.00  0.00    -0.351 N 
ATOM     16  C   UNL     1      -2.562   1.304   0.517  0.00  0.00    +0.103 A 
ATOM     17  H   UNL     1      -2.026   3.149  -0.331  0.00  0.00    +0.166 HD
ATOM     18  C   UNL     1      -2.907   0.970   1.788  0.00  0.00    +0.040 A 
ATOM     19  C   UNL     1      -2.859   2.148   2.572  0.00  0.00    +0.001 A 
ATOM     20  C   UNL     1      -3.103   2.414   3.925  0.00  0.00    +0.013 A 
ENDBRANCH   2  16
ENDBRANCH   1   7
BRANCH   1  21
ATOM     21  N   UNL     1      -5.946   0.525  -5.815  0.00  0.00    +0.383 N 
ATOM     22  C   UNL     1      -6.710  -0.640  -5.349  0.00  0.00    -0.095 C 
ATOM     23  H   UNL     1      -5.015   0.235  -6.075  0.00  0.00    -0.081 HD
BRANCH  21  24
ATOM     24  C   UNL     1      -6.617   1.117  -6.981  0.00  0.00    -0.045 C 
BRANCH  24  25
ATOM     25  C   UNL     1      -6.598   0.135  -8.124  0.00  0.00    -0.053 C 
ATOM     26  C   UNL     1      -7.554  -0.711  -8.449  0.00  0.00    +0.086 C 
ATOM     27  N   UNL     1      -7.213  -1.468  -9.552  0.00  0.00    -0.277 N 
ATOM     28  N   UNL     1      -5.971  -1.135 -10.012  0.00  0.00    -0.234 NA
ATOM     29  C   UNL     1      -5.478  -0.065  -9.123  0.00  0.00    +0.095 C 
ATOM     30  C   UNL     1      -4.199  -0.510  -8.411  0.00  0.00    +0.030 C 
ATOM     31  C   UNL     1      -8.071  -2.494 -10.150  0.00  0.00    +0.149 C 
ATOM     32  H   UNL     1      -6.013  -0.816 -10.968  0.00  0.00    +0.145 HD
ENDBRANCH  24  25
ENDBRANCH  21  24
ENDBRANCH   1  21
BRANCH   1  33
ATOM     33  C   UNL     1      -6.022   2.924  -5.329  0.00  0.00    +0.020 C 
BRANCH  33  34
ATOM     34  C   UNL     1      -6.294   3.908  -4.220  0.00  0.00    -0.049 A 
ATOM     35  C   UNL     1      -5.333   4.838  -3.870  0.00  0.00    +0.003 A 
ATOM     36  C   UNL     1      -5.582   5.741  -2.853  0.00  0.00    +0.000 A 
ATOM     37  C   UNL     1      -6.793   5.714  -2.187  0.00  0.00    +0.000 A 
ATOM     38  C   UNL     1      -7.755   4.785  -2.537  0.00  0.00    +0.000 A 
ATOM     39  C   UNL     1      -7.507   3.885  -3.557  0.00  0.00    +0.003 A 
ENDBRANCH  33  34
ENDBRANCH   1  33
TORSDOF 7
