REMARK  Name = ZINC62049521
REMARK  6 active torsions:
REMARK  status: ('A' for Active; 'I' for Inactive)
REMARK    1  A    between atoms: C_1  and  C_2
REMARK    2  A    between atoms: C_3  and  C_18
REMARK    3  A    between atoms: C_8  and  C_10
REMARK    4  A    between atoms: C_13  and  O_16
REMARK    5  A    between atoms: O_16  and  C_17
REMARK    6  A    between atoms: C_24  and  C_26
REMARK                            x       y       z     vdW  Elec       q    Type
REMARK                         _______ _______ _______ _____ _____    ______ ____
ROOT
ATOM      1  C   UNL     1      -0.018   1.503   0.010  0.00  0.00    +0.067 C 
ATOM      2  C   UNL     1       0.002  -0.004   0.002  0.00  0.00    +0.057 A 
ATOM      3  C   UNL     1       0.005  -0.687  -1.185  0.00  0.00    +0.062 A 
ATOM      4  S   UNL     1       0.031  -2.374  -0.593  0.00  0.00    -0.050 S 
ATOM      5  C   UNL     1       0.035  -1.995   1.154  0.00  0.00    +0.165 A 
ATOM      6  N   UNL     1       0.022  -0.672   1.134  0.00  0.00    -0.229 NA
ATOM      7  N   UNL     1       0.051  -2.858   2.242  0.00  0.00    -0.261 N 
ATOM      8  C   UNL     1       0.051  -2.362   3.495  0.00  0.00    +0.250 C 
ATOM      9  O   UNL     1       0.037  -1.160   3.674  0.00  0.00    -0.270 OA
ATOM     10  H   UNL     1       0.063  -3.817   2.099  0.00  0.00    +0.157 HD
ENDROOT
BRANCH   3  11
ATOM     11  C   UNL     1      -0.009  -0.172  -2.571  0.00  0.00    +0.089 A 
ATOM     12  C   UNL     1      -0.008  -1.039  -3.630  0.00  0.00    +0.077 A 
ATOM     13  S   UNL     1      -0.028   0.111  -4.999  0.00  0.00    -0.060 S 
ATOM     14  C   UNL     1      -0.036   1.613  -4.030  0.00  0.00    +0.165 A 
ATOM     15  N   UNL     1      -0.029   1.133  -2.800  0.00  0.00    -0.224 NA
ATOM     16  N   UNL     1      -0.052   2.935  -4.457  0.00  0.00    -0.264 N 
ATOM     17  C   UNL     1      -0.064   3.217  -5.775  0.00  0.00    +0.222 C 
ATOM     18  O   UNL     1      -0.061   2.317  -6.588  0.00  0.00    -0.275 OA
ATOM     19  H   UNL     1      -0.054   3.655  -3.808  0.00  0.00    +0.157 HD
BRANCH  17  20
ATOM     20  C   UNL     1      -0.080   4.651  -6.239  0.00  0.00    +0.075 C 
ATOM     21  C   UNL     1      -1.332   5.346  -5.701  0.00  0.00    +0.013 C 
ATOM     22  C   UNL     1      -1.349   6.802  -6.172  0.00  0.00    +0.001 C 
ATOM     23  C   UNL     1      -1.360   6.843  -7.701  0.00  0.00    +0.000 C 
ATOM     24  C   UNL     1      -0.108   6.147  -8.239  0.00  0.00    +0.001 C 
ATOM     25  C   UNL     1      -0.091   4.692  -7.769  0.00  0.00    +0.013 C 
ENDBRANCH  17  20
ENDBRANCH   3  11
BRANCH   8  26
ATOM     26  C   UNL     1       0.069  -3.280   4.651  0.00  0.00    +0.037 A 
ATOM     27  C   UNL     1       0.092  -4.662   4.448  0.00  0.00    +0.016 A 
ATOM     28  C   UNL     1       0.108  -5.515   5.529  0.00  0.00    +0.046 A 
ATOM     29  C   UNL     1       0.102  -5.002   6.821  0.00  0.00    +0.120 A 
ATOM     30  C   UNL     1       0.079  -3.627   7.027  0.00  0.00    +0.046 A 
ATOM     31  C   UNL     1       0.069  -2.768   5.951  0.00  0.00    +0.016 A 
BRANCH  29  32
ATOM     32  O   UNL     1       0.119  -5.845   7.884  0.00  0.00    -0.495 OA
ATOM     33  C   UNL     1       0.111  -5.251   9.184  0.00  0.00    +0.277 C 
ENDBRANCH  29  32
ENDBRANCH   8  26
TORSDOF 4
