REMARK  Name = ZINC22018784
REMARK  3 active torsions:
REMARK  status: ('A' for Active; 'I' for Inactive)
REMARK    1  A    between atoms: C_6  and  C_7
REMARK    2  A    between atoms: C_10  and  C_12
REMARK    3  A    between atoms: N_14  and  C_15
REMARK                            x       y       z     vdW  Elec       q    Type
REMARK                         _______ _______ _______ _____ _____    ______ ____
ROOT
ATOM      1  C   UNL     1      -2.994  -2.001   1.574  0.00  0.00    +0.221 C 
ATOM      2  O   UNL     1      -3.914  -1.504   0.961  0.00  0.00    -0.275 OA
ATOM      3  N   UNL     1      -3.233  -2.694   2.705  0.00  0.00    -0.285 N 
ATOM      4  H   UNL     1      -2.508  -3.156   3.154  0.00  0.00    +0.155 HD
ENDROOT
BRANCH   3   5
ATOM      5  C   UNL     1      -4.530  -2.748   3.232  0.00  0.00    +0.035 A 
ATOM      6  C   UNL     1      -4.963  -3.890   3.895  0.00  0.00    +0.025 A 
ATOM      7  C   UNL     1      -6.240  -3.949   4.416  0.00  0.00    +0.029 A 
ATOM      8  C   UNL     1      -7.094  -2.866   4.279  0.00  0.00    +0.067 A 
ATOM      9  C   UNL     1      -6.662  -1.716   3.613  0.00  0.00    +0.069 A 
ATOM     10  C   UNL     1      -5.378  -1.658   3.096  0.00  0.00    +0.051 A 
ATOM     11  N   UNL     1      -7.724  -0.815   3.636  0.00  0.00    -0.306 N 
ATOM     12  H   UNL     1      -7.722   0.075   3.249  0.00  0.00    +0.170 HD
ATOM     13  C   UNL     1      -8.755  -1.389   4.285  0.00  0.00    +0.325 A 
ATOM     14  O   UNL     1      -9.837  -0.868   4.480  0.00  0.00    -0.247 OA
ATOM     15  N   UNL     1      -8.407  -2.626   4.685  0.00  0.00    -0.306 N 
ATOM     16  H   UNL     1      -8.972  -3.245   5.173  0.00  0.00    +0.170 HD
ENDBRANCH   3   5
BRANCH   1  19
ATOM     17  C   UNL     1      -1.375  -1.046  -0.217  0.00  0.00    +0.032 C 
ATOM     18  C   UNL     1      -1.208  -2.567  -0.225  0.00  0.00    +0.022 C 
ATOM     19  C   UNL     1      -1.581  -1.843   1.072  0.00  0.00    +0.083 C 
BRANCH  17  25
ATOM     20  C   UNL     1      -0.226   1.159  -0.505  0.00  0.00    +0.007 A 
ATOM     21  C   UNL     1       0.918   1.928  -0.603  0.00  0.00    +0.038 A 
ATOM     22  C   UNL     1       2.164   1.329  -0.521  0.00  0.00    +0.123 A 
ATOM     23  C   UNL     1       2.262  -0.040  -0.341  0.00  0.00    +0.038 A 
ATOM     24  C   UNL     1       1.117  -0.807  -0.243  0.00  0.00    +0.007 A 
ATOM     25  C   UNL     1      -0.127  -0.208  -0.325  0.00  0.00    -0.043 A 
ATOM     26  F   UNL     1       3.283   2.080  -0.618  0.00  0.00    -0.205 F 
ENDBRANCH  17  25
ENDBRANCH   1  19
TORSDOF 3
