REMARK  Name = ZINC35886246
REMARK  9 active torsions:
REMARK  status: ('A' for Active; 'I' for Inactive)
REMARK    1  A    between atoms: C_1  and  C_2
REMARK    2  A    between atoms: N_6  and  C_28
REMARK    3  A    between atoms: C_10  and  N_15
REMARK    4  A    between atoms: N_18  and  C_19
REMARK    5  A    between atoms: C_22  and  C_25
REMARK    6  A    between atoms: C_25  and  C_26
REMARK    7  A    between atoms: C_25  and  C_27
REMARK    8  A    between atoms: C_28  and  C_29
REMARK    9  A    between atoms: C_33  and  C_35
REMARK                            x       y       z     vdW  Elec       q    Type
REMARK                         _______ _______ _______ _____ _____    ______ ____
ROOT
ATOM      1  C   UNL     1       0.093   2.332   0.036  0.00  0.00    +0.062 C 
ATOM      2  C   UNL     1      -0.170   0.838   0.240  0.00  0.00    +0.256 C 
ATOM      3  C   UNL     1       0.368   0.077  -0.933  0.00  0.00    +0.257 C 
ATOM      4  O   UNL     1      -0.491  -0.305  -1.698  0.00  0.00    -0.272 OA
ATOM      5  N   UNL     1       1.544  -0.248  -1.286  0.00  0.00    -0.290 N 
ATOM      6  C   UNL     1       2.799  -0.236  -0.612  0.00  0.00    +0.147 C 
ATOM      7  C   UNL     1       2.847   0.173   0.828  0.00  0.00    +0.013 A 
ATOM      8  C   UNL     1       4.153   0.204   1.343  0.00  0.00    +0.032 A 
ATOM      9  C   UNL     1       4.406   0.610   2.637  0.00  0.00    +0.035 A 
ATOM     10  C   UNL     1       3.340   1.004   3.436  0.00  0.00    +0.027 A 
ATOM     11  C   UNL     1       2.068   0.952   2.931  0.00  0.00    +0.048 A 
ATOM     12  C   UNL     1       1.805   0.500   1.614  0.00  0.00    +0.126 A 
ATOM     13  O   UNL     1       0.453   0.415   1.435  0.00  0.00    -0.480 OA
ENDROOT
BRANCH   9  14
ATOM     14  N   UNL     1       5.715   0.624   3.137  0.00  0.00    -0.269 N 
ATOM     15  C   UNL     1       5.940   0.388   4.444  0.00  0.00    +0.308 C 
ATOM     16  O   UNL     1       5.019   0.070   5.172  0.00  0.00    -0.252 OA
ATOM     17  N   UNL     1       7.186   0.504   4.946  0.00  0.00    -0.269 N 
ATOM     18  H   UNL     1       6.460   0.804   2.541  0.00  0.00    +0.156 HD
ATOM     19  H   UNL     1       7.906   0.830   4.384  0.00  0.00    +0.156 HD
BRANCH  17  20
ATOM     20  C   UNL     1       7.439   0.154   6.277  0.00  0.00    +0.035 A 
ATOM     21  C   UNL     1       6.739  -0.889   6.868  0.00  0.00    +0.023 A 
ATOM     22  C   UNL     1       6.992  -1.231   8.182  0.00  0.00    +0.006 A 
ATOM     23  C   UNL     1       7.941  -0.536   8.909  0.00  0.00    -0.045 A 
ATOM     24  C   UNL     1       8.640   0.503   8.323  0.00  0.00    +0.006 A 
ATOM     25  C   UNL     1       8.396   0.847   7.008  0.00  0.00    +0.023 A 
BRANCH  23  26
ATOM     26  C   UNL     1       8.214  -0.912  10.342  0.00  0.00    +0.013 C 
ATOM     27  C   UNL     1       9.680  -1.322  10.492  0.00  0.00    +0.012 C 
ATOM     28  C   UNL     1       7.925   0.287  11.248  0.00  0.00    +0.012 C 
ENDBRANCH  23  26
ENDBRANCH  17  20
ENDBRANCH   9  14
BRANCH   5  29
ATOM     29  C   UNL     1       1.627  -0.735  -2.666  0.00  0.00    +0.143 C 
BRANCH  29  30
ATOM     30  C   UNL     1       1.885   0.425  -3.592  0.00  0.00    -0.030 A 
ATOM     31  C   UNL     1       0.825   1.122  -4.140  0.00  0.00    +0.005 A 
ATOM     32  C   UNL     1       1.062   2.186  -4.990  0.00  0.00    +0.001 A 
ATOM     33  C   UNL     1       2.360   2.553  -5.292  0.00  0.00    +0.012 A 
ATOM     34  C   UNL     1       3.421   1.857  -4.744  0.00  0.00    +0.055 A 
ATOM     35  C   UNL     1       3.183   0.795  -3.890  0.00  0.00    +0.017 A 
BRANCH  34  36
ATOM     36  C   UNL     1       4.836   2.256  -5.074  0.00  0.00    +0.417 C 
ATOM     37  F   UNL     1       4.820   3.350  -5.947  0.00  0.00    -0.166 F 
ATOM     38  F   UNL     1       5.507   2.608  -3.898  0.00  0.00    -0.166 F 
ATOM     39  F   UNL     1       5.494   1.183  -5.683  0.00  0.00    -0.166 F 
ENDBRANCH  34  36
ENDBRANCH  29  30
ENDBRANCH   5  29
TORSDOF 6
