REMARK  Name = ZINC04235451
REMARK  6 active torsions:
REMARK  status: ('A' for Active; 'I' for Inactive)
REMARK    1  A    between atoms: C_1  and  S_2
REMARK    2  A    between atoms: S_2  and  N_5
REMARK    3  A    between atoms: N_5  and  C_6
REMARK    4  A    between atoms: C_16  and  O_18
REMARK    5  A    between atoms: O_18  and  C_19
REMARK    6  A    between atoms: N_21  and  C_22
REMARK                            x       y       z     vdW  Elec       q    Type
REMARK                         _______ _______ _______ _____ _____    ______ ____
ROOT
ATOM      1  O   UNL     1       2.634   3.000  -3.107  0.00  0.00    -0.442 OA
ENDROOT
BRANCH   1   9
ATOM      2  C   UNL     1       0.008   1.046   0.002  0.00  0.00    +0.133 C 
ATOM      3  C   UNL     1      -0.630   1.582  -1.293  0.00  0.00    +0.183 C 
ATOM      4  O   UNL     1       0.381   2.318  -1.997  0.00  0.00    -0.369 OA
ATOM      5  C   UNL     1       1.332   2.791  -1.026  0.00  0.00    +0.191 C 
ATOM      6  C   UNL     1       1.445   1.614  -0.008  0.00  0.00    +0.171 C 
ATOM      7  O   UNL     1       2.311   0.671  -0.665  0.00  0.00    -0.368 OA
ATOM      8  C   UNL     1       3.323   1.419  -1.357  0.00  0.00    +0.207 C 
ATOM      9  C   UNL     1       2.736   2.807  -1.671  0.00  0.00    +0.235 C 
BRANCH   2  10
ATOM     10  N   UNL     1      -0.725   1.531   1.174  0.00  0.00    -0.187 NA
ATOM     11  H   UNL     1      -0.547   2.418   1.524  0.00  0.00    +0.148 HD
BRANCH  10  13
ATOM     12  C   UNL     1      -0.914  -0.839   2.561  0.00  0.00    +0.214 C 
ATOM     13  S   UNL     1      -1.855   0.565   1.902  0.00  0.00    +0.027 S 
ATOM     14  O   UNL     1      -2.372   1.351   2.967  0.00  0.00    -0.158 OA
ATOM     15  O   UNL     1      -2.700   0.134   0.844  0.00  0.00    -0.158 OA
ENDBRANCH  10  13
ENDBRANCH   2  10
ENDBRANCH   1   9
BRANCH   1  16
ATOM     16  C   UNL     1       3.685   3.574  -3.722  0.00  0.00    +0.405 C 
ATOM     17  O   UNL     1       4.661   3.904  -3.078  0.00  0.00    -0.226 OA
ATOM     18  N   UNL     1       3.655   3.782  -5.053  0.00  0.00    -0.251 N 
ATOM     19  H   UNL     1       2.905   3.460  -5.578  0.00  0.00    +0.158 HD
BRANCH  18  20
ATOM     20  C   UNL     1       4.703   4.461  -5.678  0.00  0.00    +0.044 A 
ATOM     21  C   UNL     1       5.996   4.311  -5.226  0.00  0.00    +0.024 A 
ATOM     22  C   UNL     1       7.048   4.979  -5.844  0.00  0.00    +0.002 A 
ATOM     23  C   UNL     1       6.830   5.807  -6.903  0.00  0.00    +0.008 A 
ATOM     24  C   UNL     1       5.525   5.992  -7.391  0.00  0.00    -0.016 A 
ATOM     25  C   UNL     1       4.447   5.312  -6.774  0.00  0.00    +0.003 A 
ATOM     26  C   UNL     1       3.144   5.498  -7.263  0.00  0.00    +0.010 A 
ATOM     27  C   UNL     1       2.934   6.327  -8.322  0.00  0.00    +0.001 A 
ATOM     28  C   UNL     1       3.994   6.996  -8.931  0.00  0.00    +0.001 A 
ATOM     29  C   UNL     1       5.270   6.840  -8.483  0.00  0.00    +0.008 A 
ENDBRANCH  18  20
ENDBRANCH   1  16
TORSDOF 5
