REMARK  Name = ZINC66385436
REMARK  7 active torsions:
REMARK  status: ('A' for Active; 'I' for Inactive)
REMARK    1  A    between atoms: C_1  and  C_2
REMARK    2  A    between atoms: C_2  and  C_4
REMARK    3  A    between atoms: C_2  and  N_9
REMARK    4  A    between atoms: N_9  and  C_10
REMARK    5  A    between atoms: N_13  and  N_14
REMARK    6  A    between atoms: C_15  and  C_17
REMARK    7  A    between atoms: C_20  and  C_22
REMARK                            x       y       z     vdW  Elec       q    Type
REMARK                         _______ _______ _______ _____ _____    ______ ____
ROOT
ATOM      1  N   UNL     1       1.709  -0.942   3.823  0.00  0.00    -0.225 N 
ATOM      2  C   UNL     1       2.280  -1.333   4.979  0.00  0.00    +0.317 C 
ATOM      3  O   UNL     1       1.710  -2.131   5.699  0.00  0.00    -0.263 OA
ATOM      4  H   UNL     1       2.163  -0.305   3.249  0.00  0.00    +0.173 HD
ENDROOT
BRANCH   1   9
ATOM      5  N   UNL     1      -1.307  -1.552   1.927  0.00  0.00    -0.280 N 
ATOM      6  C   UNL     1      -2.047  -2.429   2.839  0.00  0.00    +0.134 C 
ATOM      7  C   UNL     1      -0.064  -1.143   2.247  0.00  0.00    +0.319 C 
ATOM      8  O   UNL     1       0.586  -0.493   1.450  0.00  0.00    -0.251 OA
ATOM      9  N   UNL     1       0.461  -1.455   3.449  0.00  0.00    -0.218 N 
ATOM     10  H   UNL     1      -0.027  -2.034   4.055  0.00  0.00    +0.174 HD
BRANCH   5  12
ATOM     11  C   UNL     1      -2.373  -2.346  -0.126  0.00  0.00    +0.034 C 
ATOM     12  C   UNL     1      -1.920  -1.120   0.669  0.00  0.00    +0.111 C 
BRANCH  12  13
ATOM     13  C   UNL     1      -3.111  -0.245   0.965  0.00  0.00    +0.010 A 
ATOM     14  C   UNL     1      -3.470   0.930   0.393  0.00  0.00    +0.013 A 
ATOM     15  C   UNL     1      -4.618   1.565   0.829  0.00  0.00    +0.008 A 
ATOM     16  C   UNL     1      -5.352   0.992   1.814  0.00  0.00    +0.045 A 
ATOM     17  S   UNL     1      -4.420  -0.493   2.153  0.00  0.00    -0.100 S 
ENDBRANCH  12  13
ENDBRANCH   5  12
ENDBRANCH   1   9
BRANCH   2  18
ATOM     18  C   UNL     1       3.592  -0.793   5.372  0.00  0.00    +0.305 A 
ATOM     19  N   UNL     1       4.311   0.075   4.696  0.00  0.00    -0.102 NA
ATOM     20  N   UNL     1       5.399   0.320   5.337  0.00  0.00    -0.107 NA
ATOM     21  C   UNL     1       5.417  -0.385   6.451  0.00  0.00    +0.249 A 
ATOM     22  O   UNL     1       4.276  -1.096   6.497  0.00  0.00    -0.412 OA
BRANCH  21  23
ATOM     23  C   UNL     1       6.490  -0.389   7.465  0.00  0.00    +0.038 A 
ATOM     24  C   UNL     1       6.379  -1.194   8.601  0.00  0.00    +0.013 A 
ATOM     25  C   UNL     1       7.386  -1.193   9.544  0.00  0.00    +0.001 A 
ATOM     26  C   UNL     1       8.503  -0.396   9.368  0.00  0.00    +0.000 A 
ATOM     27  C   UNL     1       8.619   0.404   8.245  0.00  0.00    +0.001 A 
ATOM     28  C   UNL     1       7.624   0.408   7.290  0.00  0.00    +0.013 A 
ENDBRANCH  21  23
ENDBRANCH   2  18
TORSDOF 5
