REMARK  Name = ZINC43657839
REMARK  8 active torsions:
REMARK  status: ('A' for Active; 'I' for Inactive)
REMARK    1  A    between atoms: C_1  and  C_2
REMARK    2  A    between atoms: C_2  and  C_4
REMARK    3  A    between atoms: C_2  and  N_10
REMARK    4  A    between atoms: N_13  and  C_14
REMARK    5  A    between atoms: C_17  and  C_20
REMARK    6  A    between atoms: N_22  and  C_23
REMARK    7  A    between atoms: C_28  and  O_29
REMARK    8  A    between atoms: O_29  and  C_30
REMARK                            x       y       z     vdW  Elec       q    Type
REMARK                         _______ _______ _______ _____ _____    ______ ____
ROOT
ATOM      1  C   UNL     1       0.082  -1.200   4.690  0.00  0.00    +0.035 A 
ATOM      2  C   UNL     1      -1.272  -0.906   4.819  0.00  0.00    +0.024 A 
ATOM      3  C   UNL     1      -1.879  -0.974   6.053  0.00  0.00    +0.015 A 
ATOM      4  C   UNL     1      -1.133  -1.339   7.177  0.00  0.00    +0.037 A 
ATOM      5  C   UNL     1       0.227  -1.634   7.044  0.00  0.00    +0.015 A 
ATOM      6  C   UNL     1       0.826  -1.570   5.807  0.00  0.00    +0.024 A 
ENDROOT
BRANCH   1  10
ATOM      7  N   UNL     1       0.966  -0.058   1.383  0.00  0.00    -0.293 N 
ATOM      8  C   UNL     1       0.311  -0.188   2.554  0.00  0.00    +0.304 C 
ATOM      9  O   UNL     1      -0.623   0.545   2.813  0.00  0.00    -0.252 OA
ATOM     10  N   UNL     1       0.693  -1.130   3.439  0.00  0.00    -0.269 N 
ATOM     11  H   UNL     1       1.712  -0.643   1.177  0.00  0.00    +0.151 HD
ATOM     12  H   UNL     1       1.393  -1.760   3.205  0.00  0.00    +0.156 HD
BRANCH   7  14
ATOM     13  C   UNL     1       1.219   2.297   0.774  0.00  0.00    +0.033 C 
ATOM     14  C   UNL     1       0.551   0.966   0.422  0.00  0.00    +0.102 C 
BRANCH  14  15
ATOM     15  C   UNL     1       0.964   0.549  -0.966  0.00  0.00    -0.027 A 
ATOM     16  C   UNL     1       2.189  -0.058  -1.170  0.00  0.00    +0.005 A 
ATOM     17  C   UNL     1       2.568  -0.441  -2.443  0.00  0.00    +0.000 A 
ATOM     18  C   UNL     1       1.722  -0.217  -3.512  0.00  0.00    +0.000 A 
ATOM     19  C   UNL     1       0.496   0.389  -3.309  0.00  0.00    +0.000 A 
ATOM     20  C   UNL     1       0.115   0.768  -2.035  0.00  0.00    +0.005 A 
ENDBRANCH  14  15
ENDBRANCH   7  14
ENDBRANCH   1  10
BRANCH   4  21
ATOM     21  C   UNL     1      -1.780  -1.413   8.501  0.00  0.00    +0.248 C 
ATOM     22  O   UNL     1      -2.963  -1.155   8.615  0.00  0.00    -0.270 OA
ATOM     23  N   UNL     1      -1.059  -1.765   9.585  0.00  0.00    -0.279 N 
ATOM     24  H   UNL     1      -0.101  -1.892   9.509  0.00  0.00    +0.155 HD
BRANCH  23  25
ATOM     25  C   UNL     1      -1.695  -1.948  10.819  0.00  0.00    +0.076 A 
ATOM     26  C   UNL     1      -3.041  -2.279  10.866  0.00  0.00    +0.027 A 
ATOM     27  C   UNL     1      -3.666  -2.460  12.085  0.00  0.00    +0.002 A 
ATOM     28  C   UNL     1      -2.953  -2.312  13.260  0.00  0.00    +0.004 A 
ATOM     29  C   UNL     1      -1.611  -1.983  13.222  0.00  0.00    +0.047 A 
ATOM     30  C   UNL     1      -0.975  -1.805  12.003  0.00  0.00    +0.141 A 
BRANCH  30  31
ATOM     31  O   UNL     1       0.346  -1.487  11.964  0.00  0.00    -0.493 OA
ATOM     32  C   UNL     1       1.020  -1.356  13.217  0.00  0.00    +0.277 C 
ENDBRANCH  30  31
ENDBRANCH  23  25
ENDBRANCH   4  21
TORSDOF 6
