REMARK  Name = ZINC02863578
REMARK  7 active torsions:
REMARK  status: ('A' for Active; 'I' for Inactive)
REMARK    1  A    between atoms: C_1  and  O_2
REMARK    2  A    between atoms: O_2  and  C_3
REMARK    3  A    between atoms: C_3  and  C_5
REMARK    4  A    between atoms: C_9  and  N_10
REMARK    5  A    between atoms: N_10  and  C_11
REMARK    6  A    between atoms: C_11  and  C_22
REMARK    7  A    between atoms: C_15  and  C_16
REMARK                            x       y       z     vdW  Elec       q    Type
REMARK                         _______ _______ _______ _____ _____    ______ ____
ROOT
ATOM      1  C   UNL     1      -0.643  -2.149   0.019  0.00  0.00    +0.280 C 
ATOM      2  C   UNL     1      -0.791  -3.073   1.212  0.00  0.00    +0.272 C 
ATOM      3  O   UNL     1      -1.820  -3.490   1.699  0.00  0.00    -0.271 OA
ATOM      4  N   UNL     1       0.471  -3.332   1.615  0.00  0.00    -0.268 N 
ATOM      5  C   UNL     1       1.379  -2.678   0.813  0.00  0.00    +0.108 C 
ATOM      6  H   UNL     1       0.706  -3.900   2.365  0.00  0.00    +0.156 HD
ATOM      7  N   UNL     1       0.806  -1.984  -0.110  0.00  0.00    -0.337 N 
ATOM      8  H   UNL     1       1.284  -1.412  -0.816  0.00  0.00    +0.164 HD
ENDROOT
BRANCH   5   9
ATOM      9  C   UNL     1       2.845  -2.762   0.999  0.00  0.00    +0.013 A 
ATOM     10  C   UNL     1       3.700  -2.072   0.139  0.00  0.00    +0.011 A 
ATOM     11  C   UNL     1       5.066  -2.150   0.320  0.00  0.00    +0.001 A 
ATOM     12  C   UNL     1       5.588  -2.918   1.345  0.00  0.00    +0.000 A 
ATOM     13  C   UNL     1       4.745  -3.609   2.198  0.00  0.00    +0.001 A 
ATOM     14  C   UNL     1       3.378  -3.535   2.030  0.00  0.00    +0.011 A 
ENDBRANCH   5   9
BRANCH   1  15
ATOM     15  C   UNL     1      -1.317  -0.803   0.297  0.00  0.00    +0.438 C 
ATOM     16  F   UNL     1      -0.675  -0.172   1.368  0.00  0.00    -0.166 F 
ATOM     17  F   UNL     1      -1.229   0.005  -0.842  0.00  0.00    -0.166 F 
ATOM     18  F   UNL     1      -2.662  -1.013   0.617  0.00  0.00    -0.166 F 
ENDBRANCH   1  15
BRANCH   1  19
ATOM     19  N   UNL     1      -1.208  -2.767  -1.182  0.00  0.00    -0.301 N 
ATOM     20  H   UNL     1      -1.867  -2.289  -1.710  0.00  0.00    +0.149 HD
BRANCH  19  25
ATOM     21  C   UNL     1      -1.160  -4.746  -2.700  0.00  0.00    +0.091 A 
ATOM     22  C   UNL     1      -0.580  -6.072  -2.875  0.00  0.00    -0.021 A 
ATOM     23  C   UNL     1       0.243  -6.469  -1.883  0.00  0.00    -0.004 A 
ATOM     24  S   UNL     1       0.269  -5.113  -0.741  0.00  0.00    -0.078 S 
ATOM     25  C   UNL     1      -0.803  -4.031  -1.565  0.00  0.00    +0.082 A 
ATOM     26  C   UNL     1       0.965  -7.774  -1.759  0.00  0.00    +0.043 C 
ATOM     27  C   UNL     1       1.681  -8.084  -3.081  0.00  0.00    +0.005 C 
ATOM     28  C   UNL     1       0.723  -8.867  -3.975  0.00  0.00    +0.001 C 
ATOM     29  C   UNL     1      -0.715  -8.415  -3.727  0.00  0.00    +0.005 C 
ATOM     30  C   UNL     1      -0.880  -6.943  -4.089  0.00  0.00    +0.037 C 
BRANCH  21  31
ATOM     31  C   UNL     1      -2.083  -4.186  -3.688  0.00  0.00    +0.342 C 
ATOM     32  O   UNL     1      -1.653  -3.533  -4.620  0.00  0.00    -0.245 OA
BRANCH  31  34
ATOM     33  C   UNL     1      -4.252  -3.820  -4.566  0.00  0.00    +0.280 C 
ATOM     34  O   UNL     1      -3.410  -4.396  -3.565  0.00  0.00    -0.464 OA
ENDBRANCH  31  34
ENDBRANCH  21  31
ENDBRANCH  19  25
ENDBRANCH   1  19
TORSDOF 6
