REMARK  Name = ZINC39686648
REMARK  10 active torsions:
REMARK  status: ('A' for Active; 'I' for Inactive)
REMARK    1  A    between atoms: C_1  and  C_2
REMARK    2  A    between atoms: C_5  and  C_9
REMARK    3  A    between atoms: C_7  and  C_8
REMARK    4  A    between atoms: C_13  and  C_22
REMARK    5  A    between atoms: N_24  and  C_25
REMARK    6  A    between atoms: C_25  and  C_27
REMARK    7  A    between atoms: C_25  and  C_28
REMARK    8  A    between atoms: C_28  and  C_29
REMARK    9  A    between atoms: C_34  and  O_35
REMARK   10  A    between atoms: O_35  and  C_36
REMARK                            x       y       z     vdW  Elec       q    Type
REMARK                         _______ _______ _______ _____ _____    ______ ____
ROOT
ATOM      1  C   UNL     1       0.613  -4.737   0.108  0.00  0.00    +0.247 C 
ATOM      2  O   UNL     1       0.675  -5.419   1.113  0.00  0.00    -0.270 OA
ATOM      3  N   UNL     1       0.378  -5.317  -1.086  0.00  0.00    -0.296 N 
ATOM      4  C   UNL     1       0.391  -4.680  -2.423  0.00  0.00    +0.121 C 
ATOM      5  C   UNL     1       1.053  -5.726  -3.348  0.00  0.00    +0.100 C 
ATOM      6  C   UNL     1       0.823  -7.074  -2.644  0.00  0.00    -0.004 C 
ATOM      7  C   UNL     1       0.054  -6.738  -1.358  0.00  0.00    +0.115 C 
ATOM      8  C   UNL     1       2.159  -7.724  -2.298  0.00  0.00    -0.010 C 
ATOM      9  C   UNL     1       1.905  -9.088  -1.650  0.00  0.00    -0.082 C 
ATOM     10  N   UNL     1       1.149  -9.939  -2.578  0.00  0.00    +0.379 N 
ATOM     11  C   UNL     1      -0.172  -9.352  -2.833  0.00  0.00    -0.082 C 
ATOM     12  C   UNL     1      -0.005  -7.998  -3.530  0.00  0.00    -0.010 C 
ATOM     13  H   UNL     1       1.655 -10.017  -3.448  0.00  0.00    -0.086 HD
ATOM     14  H   UNL     1       1.036 -10.856  -2.174  0.00  0.00    -0.086 HD
ENDROOT
BRANCH   1  19
ATOM     15  C   UNL     1       1.321   0.963   0.449  0.00  0.00    +0.044 C 
ATOM     16  C   UNL     1       1.135  -0.530   0.360  0.00  0.00    -0.047 A 
ATOM     17  C   UNL     1       0.543  -1.084  -0.761  0.00  0.00    +0.004 A 
ATOM     18  C   UNL     1       0.370  -2.450  -0.849  0.00  0.00    +0.013 A 
ATOM     19  C   UNL     1       0.795  -3.273   0.196  0.00  0.00    +0.037 A 
ATOM     20  C   UNL     1       1.392  -2.707   1.323  0.00  0.00    +0.016 A 
ATOM     21  C   UNL     1       1.563  -1.340   1.396  0.00  0.00    -0.047 A 
ATOM     22  C   UNL     1       2.213  -0.727   2.610  0.00  0.00    +0.044 C 
ENDBRANCH   1  19
BRANCH   5  23
ATOM     23  C   UNL     1       0.395  -5.720  -4.703  0.00  0.00    +0.218 C 
ATOM     24  O   UNL     1      -0.759  -5.363  -4.815  0.00  0.00    -0.275 OA
ATOM     25  N   UNL     1       1.087  -6.112  -5.791  0.00  0.00    -0.312 N 
ATOM     26  H   UNL     1       2.028  -6.336  -5.712  0.00  0.00    +0.149 HD
BRANCH  25  27
ATOM     27  C   UNL     1       0.420  -6.199  -7.092  0.00  0.00    +0.074 C 
ATOM     28  C   UNL     1      -0.277  -7.555  -7.218  0.00  0.00    +0.028 C 
BRANCH  27  29
ATOM     29  C   UNL     1       1.457  -6.053  -8.208  0.00  0.00    +0.060 C 
BRANCH  29  30
ATOM     30  C   UNL     1       2.038  -4.662  -8.175  0.00  0.00    -0.004 A 
ATOM     31  C   UNL     1       1.472  -3.659  -8.938  0.00  0.00    +0.007 A 
ATOM     32  C   UNL     1       2.005  -2.383  -8.908  0.00  0.00    +0.000 A 
ATOM     33  C   UNL     1       3.104  -2.108  -8.116  0.00  0.00    +0.004 A 
ATOM     34  C   UNL     1       3.673  -3.108  -7.351  0.00  0.00    +0.046 A 
ATOM     35  C   UNL     1       3.137  -4.388  -7.375  0.00  0.00    +0.123 A 
BRANCH  35  36
ATOM     36  O   UNL     1       3.691  -5.372  -6.619  0.00  0.00    -0.495 OA
ATOM     37  C   UNL     1       4.755  -4.995  -5.742  0.00  0.00    +0.277 C 
ENDBRANCH  35  36
ENDBRANCH  29  30
ENDBRANCH  27  29
ENDBRANCH  25  27
ENDBRANCH   5  23
TORSDOF 6
