REMARK  Name = ZINC54600177
REMARK  7 active torsions:
REMARK  status: ('A' for Active; 'I' for Inactive)
REMARK    1  A    between atoms: C_1  and  C_2
REMARK    2  A    between atoms: C_2  and  C_3
REMARK    3  A    between atoms: C_2  and  C_4
REMARK    4  A    between atoms: C_2  and  C_5
REMARK    5  A    between atoms: C_7  and  N_19
REMARK    6  A    between atoms: N_8  and  C_10
REMARK    7  A    between atoms: C_16  and  O_18
REMARK                            x       y       z     vdW  Elec       q    Type
REMARK                         _______ _______ _______ _____ _____    ______ ____
ROOT
ATOM      1  C   UNL     1       0.707  -0.490  -1.238  0.00  0.00    +0.070 A 
ATOM      2  C   UNL     1       2.088  -0.471  -1.454  0.00  0.00    +0.068 A 
ATOM      3  C   UNL     1       2.323  -0.994  -2.689  0.00  0.00    +0.115 A 
ATOM      4  N   UNL     1       1.127  -1.328  -3.226  0.00  0.00    -0.245 N 
ATOM      5  N   UNL     1       0.133  -1.007  -2.293  0.00  0.00    -0.174 NA
ENDROOT
BRANCH   4   6
ATOM      6  C   UNL     1       0.911  -1.924  -4.546  0.00  0.00    +0.138 C 
ATOM      7  C   UNL     1       0.030  -0.997  -5.386  0.00  0.00    +0.029 C 
ATOM      8  C   UNL     1      -1.317  -0.802  -4.688  0.00  0.00    +0.002 C 
ATOM      9  C   UNL     1      -2.009  -2.157  -4.529  0.00  0.00    +0.003 C 
ATOM     10  C   UNL     1      -1.129  -3.084  -3.688  0.00  0.00    +0.033 C 
ATOM     11  C   UNL     1       0.218  -3.279  -4.387  0.00  0.00    +0.139 C 
BRANCH  11  12
ATOM     12  O   UNL     1       1.041  -4.145  -3.602  0.00  0.00    -0.390 OA
ATOM     13  H   UNL     1       0.664  -5.024  -3.460  0.00  0.00    +0.210 HD
ENDBRANCH  11  12
ENDBRANCH   4   6
BRANCH   1  15
ATOM     14  C   UNL     1      -0.019   1.526   0.010  0.00  0.00    +0.017 C 
ATOM     15  C   UNL     1       0.002  -0.004   0.002  0.00  0.00    +0.006 C 
ATOM     16  C   UNL     1       0.742  -0.511   1.242  0.00  0.00    +0.017 C 
ATOM     17  C   UNL     1      -1.433  -0.534   0.013  0.00  0.00    +0.017 C 
ENDBRANCH   1  15
BRANCH   3  18
ATOM     18  N   UNL     1       3.568  -1.155  -3.291  0.00  0.00    -0.343 N 
ATOM     19  H   UNL     1       4.372  -0.883  -2.822  0.00  0.00    +0.144 HD
ATOM     20  H   UNL     1       3.631  -1.539  -4.180  0.00  0.00    +0.144 HD
ENDBRANCH   3  18
TORSDOF 4
