REMARK  Name = ZINC09324800
REMARK  12 active torsions:
REMARK  status: ('A' for Active; 'I' for Inactive)
REMARK    1  A    between atoms: C_1  and  O_2
REMARK    2  A    between atoms: O_2  and  C_3
REMARK    3  A    between atoms: C_6  and  N_11
REMARK    4  A    between atoms: C_8  and  O_9
REMARK    5  A    between atoms: O_9  and  C_10
REMARK    6  A    between atoms: C_18  and  S_20
REMARK    7  A    between atoms: S_20  and  C_21
REMARK    8  A    between atoms: C_21  and  C_22
REMARK    9  A    between atoms: N_24  and  C_25
REMARK   10  A    between atoms: C_28  and  C_31
REMARK   11  A    between atoms: C_31  and  O_33
REMARK   12  A    between atoms: O_33  and  C_34
REMARK                            x       y       z     vdW  Elec       q    Type
REMARK                         _______ _______ _______ _____ _____    ______ ____
ROOT
ATOM      1  N   UNL     1      -2.460   3.810   0.061  0.00  0.00    -0.269 N 
ATOM      2  C   UNL     1      -3.616   3.123  -0.035  0.00  0.00    +0.310 C 
ATOM      3  O   UNL     1      -3.604   1.907  -0.024  0.00  0.00    -0.252 OA
ATOM      4  N   UNL     1      -4.785   3.784  -0.145  0.00  0.00    -0.247 N 
ATOM      5  C   UNL     1      -5.980   3.075  -0.244  0.00  0.00    +0.190 A 
ATOM      6  N   UNL     1      -6.179   1.772  -0.250  0.00  0.00    -0.125 NA
ATOM      7  N   UNL     1      -7.458   1.275  -0.358  0.00  0.00    -0.133 NA
ATOM      8  C   UNL     1      -8.479   2.106  -0.456  0.00  0.00    +0.160 A 
ATOM      9  S   UNL     1      -7.651   3.688  -0.390  0.00  0.00    -0.024 S 
ATOM     10  H   UNL     1      -2.475   4.777   0.127  0.00  0.00    +0.156 HD
ATOM     11  H   UNL     1      -4.795   4.754  -0.154  0.00  0.00    +0.158 HD
ENDROOT
BRANCH   1  15
ATOM     12  C   UNL     1       1.179   1.768   0.073  0.00  0.00    +0.162 A 
ATOM     13  C   UNL     1       0.113   1.281  -0.666  0.00  0.00    +0.051 A 
ATOM     14  C   UNL     1      -1.091   1.960  -0.674  0.00  0.00    +0.027 A 
ATOM     15  C   UNL     1      -1.237   3.125   0.066  0.00  0.00    +0.038 A 
ATOM     16  C   UNL     1      -0.171   3.616   0.807  0.00  0.00    +0.072 A 
ATOM     17  C   UNL     1       1.037   2.938   0.812  0.00  0.00    +0.163 A 
BRANCH  12  19
ATOM     18  C   UNL     1       2.440  -0.093  -0.706  0.00  0.00    +0.277 C 
ATOM     19  O   UNL     1       2.365   1.101   0.075  0.00  0.00    -0.491 OA
ENDBRANCH  12  19
BRANCH  17  20
ATOM     20  O   UNL     1       2.083   3.416   1.537  0.00  0.00    -0.491 OA
ATOM     21  C   UNL     1       1.866   4.623   2.272  0.00  0.00    +0.277 C 
ENDBRANCH  17  20
ENDBRANCH   1  15
BRANCH   8  22
ATOM     22  S   UNL     1     -10.198   1.751  -0.604  0.00  0.00    -0.088 S 
BRANCH  22  23
ATOM     23  C   UNL     1     -10.274  -0.062  -0.594  0.00  0.00    +0.172 C 
BRANCH  23  24
ATOM     24  C   UNL     1     -11.709  -0.505  -0.716  0.00  0.00    +0.227 C 
ATOM     25  O   UNL     1     -12.593   0.320  -0.802  0.00  0.00    -0.275 OA
ATOM     26  N   UNL     1     -12.009  -1.819  -0.731  0.00  0.00    -0.285 N 
ATOM     27  H   UNL     1     -11.310  -2.478  -0.595  0.00  0.00    +0.155 HD
BRANCH  26  28
ATOM     28  C   UNL     1     -13.324  -2.231  -0.940  0.00  0.00    +0.033 A 
ATOM     29  C   UNL     1     -14.377  -1.487  -0.417  0.00  0.00    +0.024 A 
ATOM     30  C   UNL     1     -15.677  -1.888  -0.626  0.00  0.00    +0.017 A 
ATOM     31  C   UNL     1     -15.938  -3.051  -1.356  0.00  0.00    +0.059 A 
ATOM     32  C   UNL     1     -14.878  -3.800  -1.876  0.00  0.00    +0.017 A 
ATOM     33  C   UNL     1     -13.581  -3.389  -1.668  0.00  0.00    +0.024 A 
BRANCH  31  34
ATOM     34  C   UNL     1     -17.330  -3.487  -1.578  0.00  0.00    +0.339 C 
ATOM     35  O   UNL     1     -17.556  -4.498  -2.213  0.00  0.00    -0.245 OA
BRANCH  34  36
ATOM     36  O   UNL     1     -18.350  -2.764  -1.077  0.00  0.00    -0.464 OA
ATOM     37  C   UNL     1     -19.693  -3.253  -1.334  0.00  0.00    +0.280 C 
ENDBRANCH  34  36
ENDBRANCH  31  34
ENDBRANCH  26  28
ENDBRANCH  23  24
ENDBRANCH  22  23
ENDBRANCH   8  22
TORSDOF 9
