REMARK  Name = ZINC09174708
REMARK  10 active torsions:
REMARK  status: ('A' for Active; 'I' for Inactive)
REMARK    1  A    between atoms: C_1  and  C_2
REMARK    2  A    between atoms: C_2  and  O_3
REMARK    3  A    between atoms: O_3  and  C_4
REMARK    4  A    between atoms: C_4  and  C_6
REMARK    5  A    between atoms: C_10  and  N_11
REMARK    6  A    between atoms: C_12  and  C_14
REMARK    7  A    between atoms: C_23  and  C_28
REMARK    8  A    between atoms: C_23  and  C_29
REMARK    9  A    between atoms: C_24  and  C_26
REMARK   10  A    between atoms: C_24  and  C_27
REMARK                            x       y       z     vdW  Elec       q    Type
REMARK                         _______ _______ _______ _____ _____    ______ ____
ROOT
ATOM      1  C   UNL     1       7.355  -3.043   3.933  0.00  0.00    +0.091 A 
ATOM      2  C   UNL     1       8.706  -2.883   4.428  0.00  0.00    -0.024 A 
ATOM      3  C   UNL     1       9.244  -1.651   4.269  0.00  0.00    -0.016 A 
ATOM      4  S   UNL     1       7.980  -0.712   3.464  0.00  0.00    -0.079 S 
ATOM      5  C   UNL     1       6.756  -1.933   3.345  0.00  0.00    +0.086 A 
ATOM      6  C   UNL     1      10.606  -1.214   4.699  0.00  0.00    -0.041 C 
ATOM      7  C   UNL     1      11.016  -3.677   4.749  0.00  0.00    -0.069 C 
ATOM      8  C   UNL     1       9.549  -3.965   5.089  0.00  0.00    +0.024 C 
ATOM      9  C   UNL     1      11.238  -3.889   3.249  0.00  0.00    -0.010 C 
ATOM     10  C   UNL     1      11.886  -4.700   5.505  0.00  0.00    -0.010 C 
ATOM     11  C   UNL     1      11.300  -0.492   3.535  0.00  0.00    -0.005 C 
ATOM     12  C   UNL     1      10.451  -0.210   5.856  0.00  0.00    -0.005 C 
ATOM     13  N   UNL     1      11.467  -2.330   5.187  0.00  0.00    +0.389 N 
ATOM     14  H   UNL     1      11.471  -2.309   6.213  0.00  0.00    -0.084 HD
ATOM     15  H   UNL     1      12.420  -2.180   4.837  0.00  0.00    -0.084 HD
ENDROOT
BRANCH   5  16
ATOM     16  N   UNL     1       5.488  -1.831   2.798  0.00  0.00    -0.275 N 
ATOM     17  C   UNL     1       5.075  -0.663   2.266  0.00  0.00    +0.249 C 
ATOM     18  O   UNL     1       5.816   0.301   2.267  0.00  0.00    -0.270 OA
ATOM     19  H   UNL     1       4.897  -2.600   2.797  0.00  0.00    +0.156 HD
BRANCH  17  20
ATOM     20  C   UNL     1       3.724  -0.555   1.684  0.00  0.00    +0.041 A 
ATOM     21  C   UNL     1       2.871  -1.661   1.682  0.00  0.00    +0.017 A 
ATOM     22  C   UNL     1       1.609  -1.558   1.138  0.00  0.00    +0.050 A 
ATOM     23  C   UNL     1       1.181  -0.357   0.590  0.00  0.00    +0.166 A 
ATOM     24  C   UNL     1       2.028   0.752   0.588  0.00  0.00    +0.167 A 
ATOM     25  C   UNL     1       3.294   0.655   1.132  0.00  0.00    +0.062 A 
ATOM     26  O   UNL     1       1.376   1.797  -0.001  0.00  0.00    -0.453 OA
ATOM     27  C   UNL     1      -0.017   1.435   0.010  0.00  0.00    +0.466 C 
ATOM     28  O   UNL     1       0.002  -0.004   0.002  0.00  0.00    -0.453 OA
ENDBRANCH  17  20
ENDBRANCH   5  16
BRANCH   1  29
ATOM     29  C   UNL     1       6.636  -4.313   4.045  0.00  0.00    +0.342 C 
ATOM     30  O   UNL     1       6.714  -5.136   3.153  0.00  0.00    -0.245 OA
BRANCH  29  31
ATOM     31  O   UNL     1       5.887  -4.571   5.137  0.00  0.00    -0.461 OA
BRANCH  31  33
ATOM     32  C   UNL     1       4.410  -5.962   6.483  0.00  0.00    +0.048 C 
ATOM     33  C   UNL     1       5.202  -5.851   5.179  0.00  0.00    +0.229 C 
ENDBRANCH  31  33
ENDBRANCH  29  31
ENDBRANCH   1  29
TORSDOF 5
