REMARK  Name = ZINC39675277
REMARK  9 active torsions:
REMARK  status: ('A' for Active; 'I' for Inactive)
REMARK    1  A    between atoms: C_1  and  C_2
REMARK    2  A    between atoms: C_2  and  C_4
REMARK    3  A    between atoms: C_2  and  N_14
REMARK    4  A    between atoms: C_4  and  C_5
REMARK    5  A    between atoms: C_5  and  C_6
REMARK    6  A    between atoms: C_9  and  O_12
REMARK    7  A    between atoms: O_12  and  C_13
REMARK    8  A    between atoms: C_15  and  C_17
REMARK    9  A    between atoms: C_28  and  C_30
REMARK                            x       y       z     vdW  Elec       q    Type
REMARK                         _______ _______ _______ _____ _____    ______ ____
ROOT
ATOM      1  C   UNL     1       2.868  -1.320   3.045  0.00  0.00    +0.100 C 
ATOM      2  C   UNL     1       2.240  -2.731   3.096  0.00  0.00    +0.121 C 
ATOM      3  N   UNL     1       3.211  -3.599   2.389  0.00  0.00    -0.296 N 
ATOM      4  C   UNL     1       4.537  -3.097   2.823  0.00  0.00    +0.115 C 
ATOM      5  C   UNL     1       4.376  -1.565   2.869  0.00  0.00    -0.004 C 
ATOM      6  C   UNL     1       5.146  -0.988   4.052  0.00  0.00    -0.010 C 
ATOM      7  C   UNL     1       6.647  -1.191   3.827  0.00  0.00    -0.082 C 
ATOM      8  N   UNL     1       7.051  -0.526   2.583  0.00  0.00    +0.379 N 
ATOM      9  C   UNL     1       6.375  -1.149   1.439  0.00  0.00    -0.082 C 
ATOM     10  C   UNL     1       4.863  -0.944   1.563  0.00  0.00    -0.010 C 
ATOM     11  C   UNL     1       2.949  -4.615   1.544  0.00  0.00    +0.247 C 
ATOM     12  O   UNL     1       1.806  -4.829   1.187  0.00  0.00    -0.270 OA
ATOM     13  H   UNL     1       6.801   0.451   2.628  0.00  0.00    -0.086 HD
ATOM     14  H   UNL     1       8.050  -0.609   2.467  0.00  0.00    -0.086 HD
ENDROOT
BRANCH  11  15
ATOM     15  C   UNL     1       4.049  -5.470   1.051  0.00  0.00    +0.037 A 
ATOM     16  C   UNL     1       5.255  -5.534   1.752  0.00  0.00    +0.014 A 
ATOM     17  C   UNL     1       6.278  -6.333   1.287  0.00  0.00    +0.016 A 
ATOM     18  C   UNL     1       6.111  -7.072   0.128  0.00  0.00    +0.018 A 
ATOM     19  C   UNL     1       4.918  -7.012  -0.572  0.00  0.00    +0.016 A 
ATOM     20  C   UNL     1       3.885  -6.221  -0.114  0.00  0.00    +0.014 A 
ATOM     21 BR   UNL     1       7.519  -8.165  -0.503  0.00  0.00    -0.050 Br
ENDBRANCH  11  15
BRANCH   1  23
ATOM     22  N   UNL     1       2.336   0.802   1.890  0.00  0.00    -0.312 N 
ATOM     23  C   UNL     1       2.321  -0.546   1.873  0.00  0.00    +0.218 C 
ATOM     24  O   UNL     1       1.869  -1.135   0.914  0.00  0.00    -0.275 OA
ATOM     25  H   UNL     1       2.699   1.273   2.657  0.00  0.00    +0.149 HD
BRANCH  22  27
ATOM     26  C   UNL     1       2.894   1.702  -0.314  0.00  0.00    +0.028 C 
ATOM     27  C   UNL     1       1.806   1.555   0.751  0.00  0.00    +0.070 C 
BRANCH  27  28
ATOM     28  C   UNL     1       1.359   2.941   1.220  0.00  0.00    +0.026 C 
BRANCH  28  29
ATOM     29  C   UNL     1       0.186   2.798   2.192  0.00  0.00    +0.037 C 
BRANCH  29  30
ATOM     30  C   UNL     1      -0.254   4.163   2.653  0.00  0.00    -0.047 A 
ATOM     31  C   UNL     1       0.317   4.728   3.779  0.00  0.00    +0.007 A 
ATOM     32  C   UNL     1      -0.084   5.980   4.204  0.00  0.00    +0.046 A 
ATOM     33  C   UNL     1      -1.061   6.670   3.501  0.00  0.00    +0.120 A 
ATOM     34  C   UNL     1      -1.632   6.101   2.372  0.00  0.00    +0.046 A 
ATOM     35  C   UNL     1      -1.223   4.851   1.947  0.00  0.00    +0.007 A 
BRANCH  33  36
ATOM     36  O   UNL     1      -1.458   7.901   3.917  0.00  0.00    -0.495 OA
ATOM     37  C   UNL     1      -2.468   8.553   3.145  0.00  0.00    +0.277 C 
ENDBRANCH  33  36
ENDBRANCH  29  30
ENDBRANCH  28  29
ENDBRANCH  27  28
ENDBRANCH  22  27
ENDBRANCH   1  23
TORSDOF 7
