REMARK  Name = ZINC39529518
REMARK  10 active torsions:
REMARK  status: ('A' for Active; 'I' for Inactive)
REMARK    1  A    between atoms: C_1  and  C_2
REMARK    2  A    between atoms: C_2  and  C_3
REMARK    3  A    between atoms: C_2  and  C_4
REMARK    4  A    between atoms: C_4  and  C_5
REMARK    5  A    between atoms: C_7  and  S_25
REMARK    6  A    between atoms: C_10  and  N_11
REMARK    7  A    between atoms: C_15  and  C_18
REMARK    8  A    between atoms: C_23  and  O_24
REMARK    9  A    between atoms: S_25  and  O_28
REMARK   10  A    between atoms: O_28  and  C_29
REMARK                            x       y       z     vdW  Elec       q    Type
REMARK                         _______ _______ _______ _____ _____    ______ ____
ROOT
ATOM      1  C   UNL     1      -2.125  -0.137  -1.266  0.00  0.00    -0.024 A 
ATOM      2  C   UNL     1      -2.893   1.010  -1.310  0.00  0.00    +0.036 A 
ATOM      3  C   UNL     1      -3.528   1.374  -2.483  0.00  0.00    +0.128 A 
ATOM      4  C   UNL     1      -3.396   0.592  -3.616  0.00  0.00    +0.032 A 
ATOM      5  C   UNL     1      -2.629  -0.556  -3.579  0.00  0.00    +0.025 A 
ATOM      6  C   UNL     1      -1.986  -0.922  -2.404  0.00  0.00    +0.033 A 
ENDROOT
BRANCH   6   7
ATOM      7  N   UNL     1      -1.205  -2.079  -2.364  0.00  0.00    -0.333 N 
ATOM      8  C   UNL     1      -1.796  -3.379  -2.010  0.00  0.00    +0.086 C 
ATOM      9  C   UNL     1      -0.936  -4.022  -0.917  0.00  0.00    -0.063 C 
ATOM     10  N   UNL     1       0.458  -4.094  -1.372  0.00  0.00    +0.386 N 
ATOM     11  C   UNL     1       0.996  -2.740  -1.552  0.00  0.00    -0.020 C 
ATOM     12  C   UNL     1       0.231  -2.035  -2.682  0.00  0.00    +0.094 C 
ATOM     13  H   UNL     1       1.010  -4.585  -0.684  0.00  0.00    -0.085 HD
ATOM     14  H   UNL     1       0.499  -4.591  -2.249  0.00  0.00    -0.085 HD
BRANCH  11  15
ATOM     15  C   UNL     1       2.457  -2.824  -1.913  0.00  0.00    -0.018 A 
ATOM     16  C   UNL     1       2.954  -3.959  -2.524  0.00  0.00    +0.005 A 
ATOM     17  C   UNL     1       4.295  -4.037  -2.855  0.00  0.00    +0.000 A 
ATOM     18  C   UNL     1       5.141  -2.979  -2.576  0.00  0.00    +0.004 A 
ATOM     19  C   UNL     1       4.648  -1.842  -1.965  0.00  0.00    +0.045 A 
ATOM     20  C   UNL     1       3.303  -1.759  -1.637  0.00  0.00    +0.118 A 
BRANCH  20  21
ATOM     21  O   UNL     1       2.815  -0.639  -1.041  0.00  0.00    -0.507 OA
ATOM     22  H   UNL     1       2.849  -0.661  -0.075  0.00  0.00    +0.292 HD
ENDBRANCH  20  21
ENDBRANCH  11  15
ENDBRANCH   6   7
BRANCH   3  23
ATOM     23  S   UNL     1      -4.508   2.837  -2.534  0.00  0.00    +0.151 S 
ATOM     24  O   UNL     1      -5.438   2.666  -3.595  0.00  0.00    -0.131 OA
ATOM     25  O   UNL     1      -4.915   3.100  -1.199  0.00  0.00    -0.131 OA
BRANCH  23  26
ATOM     26  O   UNL     1      -3.589   3.980  -2.942  0.00  0.00    -0.342 OA
BRANCH  26  27
ATOM     27  C   UNL     1      -3.260   3.982  -4.260  0.00  0.00    +0.157 A 
ATOM     28  C   UNL     1      -2.138   3.293  -4.697  0.00  0.00    +0.048 A 
ATOM     29  C   UNL     1      -1.805   3.296  -6.038  0.00  0.00    +0.004 A 
ATOM     30  C   UNL     1      -2.590   3.984  -6.944  0.00  0.00    +0.000 A 
ATOM     31  C   UNL     1      -3.709   4.672  -6.511  0.00  0.00    +0.004 A 
ATOM     32  C   UNL     1      -4.049   4.667  -5.173  0.00  0.00    +0.048 A 
ENDBRANCH  26  27
ENDBRANCH  23  26
ENDBRANCH   3  23
BRANCH   1  33
ATOM     33  C   UNL     1      -1.433  -0.534   0.013  0.00  0.00    +0.040 C 
BRANCH  33  35
ATOM     34  C   UNL     1      -0.019   1.526   0.010  0.00  0.00    +0.007 C 
ATOM     35  C   UNL     1       0.002  -0.004   0.002  0.00  0.00    -0.013 C 
ATOM     36  C   UNL     1       0.742  -0.511   1.242  0.00  0.00    +0.007 C 
ENDBRANCH  33  35
ENDBRANCH   1  33
TORSDOF 8
