REMARK  Name = ZINC67438541
REMARK  11 active torsions:
REMARK  status: ('A' for Active; 'I' for Inactive)
REMARK    1  A    between atoms: C_1  and  C_2
REMARK    2  A    between atoms: C_5  and  N_28
REMARK    3  A    between atoms: C_7  and  N_8
REMARK    4  A    between atoms: C_9  and  C_11
REMARK    5  A    between atoms: N_13  and  C_14
REMARK    6  A    between atoms: C_14  and  C_16
REMARK    7  A    between atoms: C_14  and  C_17
REMARK    8  A    between atoms: C_17  and  N_18
REMARK    9  A    between atoms: C_20  and  C_27
REMARK   10  A    between atoms: C_23  and  C_26
REMARK   11  A    between atoms: C_29  and  C_31
REMARK                            x       y       z     vdW  Elec       q    Type
REMARK                         _______ _______ _______ _____ _____    ______ ____
ROOT
ATOM      1  N   UNL     1      -0.266   0.940   0.836  0.00  0.00    -0.277 N 
ATOM      2  C   UNL     1      -0.097  -0.008   1.780  0.00  0.00    +0.303 C 
ATOM      3  O   UNL     1      -0.163  -1.182   1.480  0.00  0.00    -0.265 OA
ATOM      4  H   UNL     1      -0.159   1.876   1.064  0.00  0.00    +0.155 HD
ENDROOT
BRANCH   1  11
ATOM      5  C   UNL     1      -1.679   2.815  -0.767  0.00  0.00    +0.045 C 
ATOM      6  C   UNL     1      -1.286   1.458  -1.290  0.00  0.00    -0.029 A 
ATOM      7  C   UNL     1      -1.607   1.097  -2.584  0.00  0.00    +0.007 A 
ATOM      8  C   UNL     1      -1.248  -0.146  -3.068  0.00  0.00    +0.024 A 
ATOM      9  C   UNL     1      -0.562  -1.039  -2.253  0.00  0.00    +0.035 A 
ATOM     10  C   UNL     1      -0.238  -0.680  -0.953  0.00  0.00    +0.047 A 
ATOM     11  C   UNL     1      -0.596   0.572  -0.471  0.00  0.00    +0.038 A 
BRANCH   9  12
ATOM     12  N   UNL     1      -0.199  -2.298  -2.743  0.00  0.00    -0.286 N 
ATOM     13  C   UNL     1       0.003  -2.474  -4.064  0.00  0.00    +0.214 C 
ATOM     14  O   UNL     1      -0.040  -1.524  -4.816  0.00  0.00    -0.276 OA
ATOM     15  C   UNL     1       0.283  -3.853  -4.606  0.00  0.00    +0.109 C 
ATOM     16  H   UNL     1      -0.093  -3.044  -2.132  0.00  0.00    +0.155 HD
ENDBRANCH   9  12
ENDBRANCH   1  11
BRANCH   2  17
ATOM     17  C   UNL     1       0.170   0.388   3.195  0.00  0.00    +0.299 C 
ATOM     18  O   UNL     1       0.235   1.562   3.495  0.00  0.00    -0.265 OA
ATOM     19  N   UNL     1       0.339  -0.559   4.139  0.00  0.00    -0.307 N 
ATOM     20  H   UNL     1       0.287  -1.498   3.899  0.00  0.00    +0.149 HD
BRANCH  19  21
ATOM     21  C   UNL     1       0.602  -0.172   5.527  0.00  0.00    +0.054 C 
ATOM     22  C   UNL     1      -0.715   0.204   6.209  0.00  0.00    +0.026 C 
BRANCH  21  23
ATOM     23  C   UNL     1       1.245  -1.343   6.271  0.00  0.00    -0.057 C 
BRANCH  23  24
ATOM     24  N   UNL     1       2.489  -1.730   5.592  0.00  0.00    +0.381 N 
ATOM     25  C   UNL     1       3.035  -2.937   6.224  0.00  0.00    -0.076 C 
ATOM     26  C   UNL     1       4.287  -3.391   5.471  0.00  0.00    -0.031 C 
ATOM     27  C   UNL     1       5.334  -2.274   5.511  0.00  0.00    +0.003 C 
ATOM     28  C   UNL     1       4.729  -0.999   4.917  0.00  0.00    -0.031 C 
ATOM     29  C   UNL     1       3.460  -0.634   5.691  0.00  0.00    -0.076 C 
ATOM     30  C   UNL     1       5.740   0.144   5.023  0.00  0.00    +0.005 C 
ATOM     31  C   UNL     1       4.854  -4.649   6.133  0.00  0.00    +0.005 C 
ATOM     32  H   UNL     1       2.296  -1.920   4.620  0.00  0.00    -0.082 HD
ENDBRANCH  23  24
ENDBRANCH  21  23
ENDBRANCH  19  21
ENDBRANCH   2  17
TORSDOF 6
