REMARK  Name = ZINC49511368
REMARK  7 active torsions:
REMARK  status: ('A' for Active; 'I' for Inactive)
REMARK    1  A    between atoms: C_1  and  C_2
REMARK    2  A    between atoms: C_5  and  S_8
REMARK    3  A    between atoms: S_8  and  N_11
REMARK    4  A    between atoms: C_17  and  N_21
REMARK    5  A    between atoms: N_21  and  S_22
REMARK    6  A    between atoms: S_22  and  C_25
REMARK    7  A    between atoms: C_28  and  C_31
REMARK                            x       y       z     vdW  Elec       q    Type
REMARK                         _______ _______ _______ _____ _____    ______ ____
ROOT
ATOM      1  N   UNL     1       1.651  -4.999  -0.034  0.00  0.00    -0.172 NA
ATOM      2  C   UNL     1       2.380  -5.204  -1.297  0.00  0.00    +0.114 C 
ATOM      3  C   UNL     1       3.502  -4.169  -1.364  0.00  0.00    +0.052 C 
ATOM      4  C   UNL     1       4.268  -4.123  -0.067  0.00  0.00    -0.042 A 
ATOM      5  C   UNL     1       5.545  -3.575  -0.094  0.00  0.00    +0.006 A 
ATOM      6  C   UNL     1       6.299  -3.492   1.056  0.00  0.00    +0.027 A 
ATOM      7  C   UNL     1       5.778  -3.960   2.257  0.00  0.00    +0.075 A 
ATOM      8  C   UNL     1       4.506  -4.509   2.283  0.00  0.00    +0.032 A 
ATOM      9  C   UNL     1       3.753  -4.595   1.120  0.00  0.00    -0.027 A 
ATOM     10  C   UNL     1       2.389  -5.222   1.213  0.00  0.00    +0.144 C 
ENDROOT
BRANCH   1  11
ATOM     11  S   UNL     1       0.063  -4.530  -0.023  0.00  0.00    +0.061 S 
ATOM     12  O   UNL     1      -0.476  -4.950   1.223  0.00  0.00    -0.153 OA
ATOM     13  O   UNL     1      -0.490  -4.937  -1.267  0.00  0.00    -0.153 OA
BRANCH  11  18
ATOM     14  C   UNL     1      -0.018   1.503   0.010  0.00  0.00    +0.044 C 
ATOM     15  C   UNL     1       0.002  -0.004   0.002  0.00  0.00    -0.050 A 
ATOM     16  C   UNL     1       0.006  -0.689  -1.199  0.00  0.00    +0.005 A 
ATOM     17  C   UNL     1       0.025  -2.071  -1.206  0.00  0.00    +0.029 A 
ATOM     18  C   UNL     1       0.040  -2.768  -0.013  0.00  0.00    +0.106 A 
ATOM     19  C   UNL     1       0.037  -2.084   1.188  0.00  0.00    +0.029 A 
ATOM     20  C   UNL     1       0.023  -0.702   1.195  0.00  0.00    +0.005 A 
ENDBRANCH  11  18
ENDBRANCH   1  11
BRANCH   7  21
ATOM     21  N   UNL     1       6.532  -3.877   3.430  0.00  0.00    -0.098 NA
BRANCH  21  22
ATOM     22  S   UNL     1       8.052  -3.220   3.393  0.00  0.00    +0.092 S 
ATOM     23  O   UNL     1       8.854  -4.096   2.613  0.00  0.00    -0.148 OA
ATOM     24  O   UNL     1       7.892  -1.845   3.072  0.00  0.00    -0.148 OA
BRANCH  22  25
ATOM     25  C   UNL     1       8.687  -3.283   5.035  0.00  0.00    +0.110 A 
ATOM     26  C   UNL     1       8.469  -2.228   5.902  0.00  0.00    +0.029 A 
ATOM     27  C   UNL     1       8.967  -2.278   7.190  0.00  0.00    +0.014 A 
ATOM     28  C   UNL     1       9.683  -3.382   7.612  0.00  0.00    +0.055 A 
ATOM     29  C   UNL     1       9.900  -4.438   6.746  0.00  0.00    +0.014 A 
ATOM     30  C   UNL     1       9.398  -4.390   5.459  0.00  0.00    +0.029 A 
BRANCH  28  31
ATOM     31  C   UNL     1      10.227  -3.436   9.017  0.00  0.00    +0.417 C 
ATOM     32  F   UNL     1       9.277  -4.020   9.862  0.00  0.00    -0.166 F 
ATOM     33  F   UNL     1      11.399  -4.199   9.034  0.00  0.00    -0.166 F 
ATOM     34  F   UNL     1      10.509  -2.139   9.457  0.00  0.00    -0.166 F 
ENDBRANCH  28  31
ENDBRANCH  22  25
ENDBRANCH  21  22
ENDBRANCH   7  21
TORSDOF 6
