REMARK  Name = ZINC40947305
REMARK  9 active torsions:
REMARK  status: ('A' for Active; 'I' for Inactive)
REMARK    1  A    between atoms: C_1  and  C_2
REMARK    2  A    between atoms: C_5  and  C_8
REMARK    3  A    between atoms: C_8  and  O_9
REMARK    4  A    between atoms: O_9  and  C_10
REMARK    5  A    between atoms: C_15  and  C_16
REMARK    6  A    between atoms: N_17  and  N_18
REMARK    7  A    between atoms: C_19  and  C_21
REMARK    8  A    between atoms: C_21  and  S_22
REMARK    9  A    between atoms: S_22  and  C_23
REMARK                            x       y       z     vdW  Elec       q    Type
REMARK                         _______ _______ _______ _____ _____    ______ ____
ROOT
ATOM      1  C   UNL     1       1.631  -6.152  -0.446  0.00  0.00    +0.130 A 
ATOM      2  C   UNL     1       0.565  -7.029  -0.338  0.00  0.00    +0.047 A 
ATOM      3  C   UNL     1       0.778  -8.334   0.063  0.00  0.00    +0.019 A 
ATOM      4  C   UNL     1       2.058  -8.775   0.358  0.00  0.00    +0.019 A 
ATOM      5  C   UNL     1       3.131  -7.915   0.255  0.00  0.00    +0.028 A 
ATOM      6  C   UNL     1       2.928  -6.595  -0.154  0.00  0.00    +0.037 A 
ATOM      7 BR   UNL     1       2.333 -10.564   0.906  0.00  0.00    -0.050 Br
ENDROOT
BRANCH   6   8
ATOM      8  C   UNL     1       4.071  -5.672  -0.273  0.00  0.00    +0.142 C 
ATOM      9  N   UNL     1       5.263  -6.139  -0.490  0.00  0.00    -0.188 NA
BRANCH   9  10
ATOM     10  N   UNL     1       5.437  -7.492  -0.810  0.00  0.00    -0.206 N 
ATOM     11  C   UNL     1       6.679  -8.003  -0.921  0.00  0.00    +0.242 C 
ATOM     12  O   UNL     1       7.644  -7.316  -0.656  0.00  0.00    -0.273 OA
ATOM     13  H   UNL     1       4.664  -8.060  -0.951  0.00  0.00    +0.177 HD
BRANCH  11  14
ATOM     14  C   UNL     1       6.870  -9.427  -1.375  0.00  0.00    +0.173 C 
BRANCH  14  15
ATOM     15  S   UNL     1       8.628  -9.863  -1.277  0.00  0.00    -0.088 S 
BRANCH  15  16
ATOM     16  C   UNL     1       8.705 -11.482  -1.969  0.00  0.00    +0.160 A 
ATOM     17  N   UNL     1       7.751 -12.195  -2.534  0.00  0.00    -0.133 NA
ATOM     18  N   UNL     1       8.031 -13.454  -3.015  0.00  0.00    -0.125 NA
ATOM     19  C   UNL     1       9.252 -13.940  -2.909  0.00  0.00    +0.180 A 
ATOM     20  S   UNL     1      10.099 -12.591  -2.100  0.00  0.00    -0.025 S 
ATOM     21  N   UNL     1       9.748 -15.171  -3.321  0.00  0.00    -0.336 N 
ATOM     22  H   UNL     1       9.162 -15.810  -3.756  0.00  0.00    +0.144 HD
ATOM     23  H   UNL     1      10.681 -15.392  -3.172  0.00  0.00    +0.144 HD
ENDBRANCH  15  16
ENDBRANCH  14  15
ENDBRANCH  11  14
ENDBRANCH   9  10
ENDBRANCH   6   8
BRANCH   1  24
ATOM     24  O   UNL     1       1.422  -4.869  -0.840  0.00  0.00    -0.487 OA
BRANCH  24  25
ATOM     25  C   UNL     1       0.094  -4.521  -1.238  0.00  0.00    +0.264 C 
BRANCH  25  30
ATOM     26  C   UNL     1       0.031   0.913  -3.203  0.00  0.00    +0.044 C 
ATOM     27  C   UNL     1       0.048  -0.504  -2.691  0.00  0.00    -0.050 A 
ATOM     28  C   UNL     1       0.182  -1.557  -3.576  0.00  0.00    +0.004 A 
ATOM     29  C   UNL     1       0.197  -2.857  -3.106  0.00  0.00    +0.007 A 
ATOM     30  C   UNL     1       0.079  -3.103  -1.751  0.00  0.00    -0.010 A 
ATOM     31  C   UNL     1      -0.054  -2.050  -0.866  0.00  0.00    +0.007 A 
ATOM     32  C   UNL     1      -0.065  -0.750  -1.335  0.00  0.00    +0.004 A 
ENDBRANCH  25  30
ENDBRANCH  24  25
ENDBRANCH   1  24
TORSDOF 8
