REMARK  Name = ZINC35426062
REMARK  5 active torsions:
REMARK  status: ('A' for Active; 'I' for Inactive)
REMARK    1  A    between atoms: C_8  and  C_10
REMARK    2  A    between atoms: C_10  and  N_11
REMARK    3  A    between atoms: C_15  and  C_17
REMARK    4  A    between atoms: C_19  and  C_22
REMARK    5  A    between atoms: C_27  and  N_28
REMARK                            x       y       z     vdW  Elec       q    Type
REMARK                         _______ _______ _______ _____ _____    ______ ____
ROOT
ATOM      1  N   UNL     1       4.060  -3.756  -1.443  0.00  0.00    -0.284 NA
ATOM      2  C   UNL     1       2.825  -4.240  -2.096  0.00  0.00    +0.085 C 
ATOM      3  C   UNL     1       3.301  -5.346  -3.071  0.00  0.00    +0.017 C 
ATOM      4  C   UNL     1       4.439  -6.014  -2.254  0.00  0.00    +0.030 C 
ATOM      5  C   UNL     1       5.074  -4.824  -1.505  0.00  0.00    +0.146 C 
ENDROOT
BRANCH   5   6
ATOM      6  C   UNL     1       6.288  -4.336  -2.253  0.00  0.00    +0.245 A 
ATOM      7  N   UNL     1       7.526  -4.514  -1.891  0.00  0.00    -0.190 NA
ATOM      8  C   UNL     1       8.354  -3.948  -2.789  0.00  0.00    +0.207 A 
ATOM      9  N   UNL     1       7.632  -3.402  -3.737  0.00  0.00    -0.056 NA
ATOM     10  O   UNL     1       6.275  -3.652  -3.404  0.00  0.00    -0.336 OA
BRANCH   8  11
ATOM     11  C   UNL     1       9.835  -3.943  -2.717  0.00  0.00    +0.080 A 
ATOM     12  C   UNL     1      10.503  -4.561  -1.662  0.00  0.00    +0.127 A 
ATOM     13  N   UNL     1      11.826  -4.534  -1.636  0.00  0.00    -0.243 NA
ATOM     14  C   UNL     1      12.515  -3.934  -2.587  0.00  0.00    +0.223 A 
ATOM     15  N   UNL     1      11.930  -3.336  -3.604  0.00  0.00    -0.220 NA
ATOM     16  C   UNL     1      10.606  -3.319  -3.715  0.00  0.00    +0.130 A 
BRANCH  16  17
ATOM     17  N   UNL     1       9.996  -2.695  -4.788  0.00  0.00    -0.342 N 
ATOM     18  H   UNL     1       9.029  -2.685  -4.857  0.00  0.00    +0.144 HD
ATOM     19  H   UNL     1      10.536  -2.268  -5.471  0.00  0.00    +0.144 HD
ENDBRANCH  16  17
ENDBRANCH   8  11
ENDBRANCH   5   6
BRANCH   1  20
ATOM     20  C   UNL     1       3.799  -3.358  -0.053  0.00  0.00    +0.159 C 
BRANCH  20  28
ATOM     21  C   UNL     1      -0.017   1.363   0.009  0.00  0.00    +0.001 A 
ATOM     22  C   UNL     1       1.170   2.082   0.002  0.00  0.00    +0.004 A 
ATOM     23  C   UNL     1       2.386   1.432  -0.013  0.00  0.00    +0.047 A 
ATOM     24  C   UNL     1       2.427   0.043  -0.021  0.00  0.00    +0.135 A 
ATOM     25  C   UNL     1       1.222  -0.679  -0.013  0.00  0.00    +0.020 A 
ATOM     26  C   UNL     1       0.002  -0.004   0.002  0.00  0.00    +0.011 A 
ATOM     27  C   UNL     1       1.613  -2.093  -0.025  0.00  0.00    +0.054 A 
ATOM     28  C   UNL     1       2.952  -2.111  -0.038  0.00  0.00    +0.120 A 
ATOM     29  O   UNL     1       3.432  -0.855  -0.036  0.00  0.00    -0.458 OA
ENDBRANCH  20  28
ENDBRANCH   1  20
TORSDOF 5
