REMARK  Name = ZINC39945419
REMARK  8 active torsions:
REMARK  status: ('A' for Active; 'I' for Inactive)
REMARK    1  A    between atoms: C_4  and  C_7
REMARK    2  A    between atoms: C_7  and  C_9
REMARK    3  A    between atoms: C_7  and  O_20
REMARK    4  A    between atoms: C_9  and  C_11
REMARK    5  A    between atoms: O_20  and  C_21
REMARK    6  A    between atoms: C_21  and  C_23
REMARK    7  A    between atoms: C_23  and  N_24
REMARK    8  A    between atoms: C_25  and  C_27
REMARK                            x       y       z     vdW  Elec       q    Type
REMARK                         _______ _______ _______ _____ _____    ______ ____
ROOT
ATOM      1  C   UNL     1       3.711  -0.707  -0.038  0.00  0.00    +0.277 C 
ENDROOT
BRANCH   1   5
ATOM      2  C   UNL     1      -0.017   1.378   0.010  0.00  0.00    +0.000 A 
ATOM      3  C   UNL     1       1.171   2.086   0.002  0.00  0.00    +0.000 A 
ATOM      4  C   UNL     1       2.377   1.411  -0.013  0.00  0.00    +0.008 A 
ATOM      5  C   UNL     1       2.396   0.029  -0.020  0.00  0.00    +0.000 A 
ATOM      6  C   UNL     1       1.208  -0.679  -0.012  0.00  0.00    +0.008 A 
ATOM      7  C   UNL     1       0.002  -0.004   0.002  0.00  0.00    +0.000 A 
ENDBRANCH   1   5
BRANCH   1   8
ATOM      8  C   UNL     1       4.044  -1.175   1.356  0.00  0.00    +0.206 C 
ATOM      9  O   UNL     1       3.918  -2.346   1.649  0.00  0.00    -0.288 OA
BRANCH   8  10
ATOM     10  C   UNL     1       4.501  -0.251   2.320  0.00  0.00    +0.027 C 
ATOM     11  C   UNL     1       4.852  -0.515   3.631  0.00  0.00    +0.006 A 
ATOM     12  C   UNL     1       4.873  -1.702   4.401  0.00  0.00    +0.010 A 
ATOM     13  C   UNL     1       5.271  -1.669   5.693  0.00  0.00    +0.001 A 
ATOM     14  C   UNL     1       5.675  -0.483   6.327  0.00  0.00    +0.002 A 
ATOM     15  C   UNL     1       5.691   0.703   5.682  0.00  0.00    +0.026 A 
ATOM     16  C   UNL     1       5.273   0.755   4.271  0.00  0.00    +0.043 A 
ATOM     17  N   UNL     1       5.192   1.742   3.424  0.00  0.00    -0.380 N 
ATOM     18  C   UNL     1       4.716   1.235   2.133  0.00  0.00    +0.152 C 
ATOM     19  H   UNL     1       5.416   2.666   3.616  0.00  0.00    +0.160 HD
ENDBRANCH   8  10
ENDBRANCH   1   8
BRANCH   1  20
ATOM     20  O   UNL     1       3.614  -1.836  -0.908  0.00  0.00    -0.447 OA
BRANCH  20  21
ATOM     21  C   UNL     1       3.938  -1.642  -2.196  0.00  0.00    +0.325 C 
ATOM     22  O   UNL     1       4.293  -0.550  -2.572  0.00  0.00    -0.249 OA
BRANCH  21  23
ATOM     23  C   UNL     1       3.860  -2.786  -3.174  0.00  0.00    +0.225 C 
BRANCH  23  24
ATOM     24  N   UNL     1       4.261  -2.321  -4.504  0.00  0.00    -0.301 N 
ATOM     25  C   UNL     1       4.269  -3.178  -5.544  0.00  0.00    +0.245 C 
ATOM     26  O   UNL     1       3.942  -4.337  -5.378  0.00  0.00    -0.270 OA
ATOM     27  H   UNL     1       4.522  -1.396  -4.636  0.00  0.00    +0.150 HD
BRANCH  25  28
ATOM     28  C   UNL     1       4.673  -2.709  -6.885  0.00  0.00    +0.038 A 
ATOM     29  C   UNL     1       5.054  -1.379  -7.077  0.00  0.00    +0.014 A 
ATOM     30  C   UNL     1       5.431  -0.946  -8.331  0.00  0.00    +0.022 A 
ATOM     31  C   UNL     1       5.432  -1.827  -9.400  0.00  0.00    +0.059 A 
ATOM     32  C   UNL     1       5.055  -3.148  -9.216  0.00  0.00    +0.060 A 
ATOM     33  C   UNL     1       4.682  -3.594  -7.964  0.00  0.00    +0.034 A 
ATOM     34 CL   UNL     1       5.059  -4.245 -10.561  0.00  0.00    -0.082 Cl
ATOM     35 CL   UNL     1       5.907  -1.274 -10.975  0.00  0.00    -0.082 Cl
ENDBRANCH  25  28
ENDBRANCH  23  24
ENDBRANCH  21  23
ENDBRANCH  20  21
ENDBRANCH   1  20
TORSDOF 8
