REMARK  Name = ZINC20467674
REMARK  6 active torsions:
REMARK  status: ('A' for Active; 'I' for Inactive)
REMARK    1  A    between atoms: C_3  and  O_19
REMARK    2  A    between atoms: C_6  and  N_7
REMARK    3  A    between atoms: N_7  and  S_8
REMARK    4  A    between atoms: S_8  and  C_11
REMARK    5  A    between atoms: C_16  and  N_17
REMARK    6  A    between atoms: O_19  and  C_20
REMARK                            x       y       z     vdW  Elec       q    Type
REMARK                         _______ _______ _______ _____ _____    ______ ____
ROOT
ATOM      1  S   UNL     1      -2.540   4.821  -0.053  0.00  0.00    +0.095 S 
ATOM      2  O   UNL     1      -2.395   5.674  -1.179  0.00  0.00    -0.148 OA
ATOM      3  O   UNL     1      -3.581   3.858   0.045  0.00  0.00    -0.148 OA
ENDROOT
BRANCH   1   4
ATOM      4  C   UNL     1      -1.023   3.940   0.111  0.00  0.00    +0.151 A 
ATOM      5  C   UNL     1      -0.003   4.126  -0.804  0.00  0.00    +0.049 A 
ATOM      6  C   UNL     1       1.174   3.406  -0.640  0.00  0.00    +0.038 A 
ATOM      7  C   UNL     1       1.294   2.541   0.430  0.00  0.00    +0.128 A 
ATOM      8  N   UNL     1       0.305   2.388   1.290  0.00  0.00    -0.238 NA
ATOM      9  C   UNL     1      -0.834   3.051   1.164  0.00  0.00    +0.143 A 
ATOM     10 BR   UNL     1       2.600   3.615  -1.864  0.00  0.00    -0.049 Br
BRANCH   9  11
ATOM     11  N   UNL     1      -1.849   2.859   2.094  0.00  0.00    -0.342 N 
ATOM     12  H   UNL     1      -1.705   2.158   2.929  0.00  0.00    +0.144 HD
ATOM     13  H   UNL     1      -2.797   3.408   1.994  0.00  0.00    +0.144 HD
ENDBRANCH   9  11
ENDBRANCH   1   4
BRANCH   1  14
ATOM     14  N   UNL     1      -2.680   5.805   1.272  0.00  0.00    -0.098 NA
BRANCH  14  20
ATOM     15  C   UNL     1      -0.430   6.681   1.273  0.00  0.00    +0.030 A 
ATOM     16  C   UNL     1       0.443   7.738   1.439  0.00  0.00    +0.048 A 
ATOM     17  C   UNL     1      -0.041   8.989   1.790  0.00  0.00    +0.130 A 
ATOM     18  C   UNL     1      -1.403   9.182   1.968  0.00  0.00    +0.048 A 
ATOM     19  C   UNL     1      -2.278   8.127   1.797  0.00  0.00    +0.030 A 
ATOM     20  C   UNL     1      -1.794   6.874   1.446  0.00  0.00    +0.075 A 
BRANCH  17  21
ATOM     21  O   UNL     1       0.820  10.028   1.959  0.00  0.00    -0.406 OA
BRANCH  21  22
ATOM     22  C   UNL     1       2.209   9.759   1.760  0.00  0.00    +0.575 C 
ATOM     23  F   UNL     1       2.414   9.310   0.450  0.00  0.00    -0.133 F 
ATOM     24  F   UNL     1       2.946  10.929   1.973  0.00  0.00    -0.133 F 
ATOM     25  F   UNL     1       2.627   8.774   2.661  0.00  0.00    -0.133 F 
ENDBRANCH  21  22
ENDBRANCH  17  21
ENDBRANCH  14  20
ENDBRANCH   1  14
TORSDOF 6
