REMARK  Name = ZINC61886294
REMARK  4 active torsions:
REMARK  status: ('A' for Active; 'I' for Inactive)
REMARK    1  A    between atoms: C_5  and  C_6
REMARK    2  A    between atoms: N_8  and  C_9
REMARK    3  A    between atoms: C_14  and  C_16
REMARK    4  A    between atoms: N_17  and  O_18
REMARK                            x       y       z     vdW  Elec       q    Type
REMARK                         _______ _______ _______ _____ _____    ______ ____
ROOT
ATOM      1  C   UNL     1      -0.825  -0.970   0.199  0.00  0.00    +0.251 C 
ATOM      2  O   UNL     1      -1.927  -0.457   0.268  0.00  0.00    -0.270 OA
ATOM      3  N   UNL     1      -0.710  -2.310   0.108  0.00  0.00    -0.307 N 
ATOM      4  H   UNL     1       0.168  -2.719   0.054  0.00  0.00    +0.149 HD
ENDROOT
BRANCH   1   9
ATOM      5  C   UNL     1       0.478   1.242   0.302  0.00  0.00    +0.024 A 
ATOM      6  C   UNL     1       1.766   1.781   0.296  0.00  0.00    -0.036 A 
ATOM      7  C   UNL     1       2.795   0.900   0.203  0.00  0.00    -0.006 A 
ATOM      8  S   UNL     1       2.088  -0.618   0.130  0.00  0.00    -0.088 S 
ATOM      9  C   UNL     1       0.377  -0.131   0.216  0.00  0.00    +0.074 A 
ATOM     10  C   UNL     1       4.130   1.597   0.199  0.00  0.00    +0.043 C 
ATOM     11  C   UNL     1       3.801   3.069  -0.134  0.00  0.00    +0.010 C 
ATOM     12  C   UNL     1       2.351   3.194   0.373  0.00  0.00    +0.036 C 
ENDBRANCH   1   9
BRANCH   3  13
ATOM     13  C   UNL     1      -1.911  -3.148   0.092  0.00  0.00    +0.083 C 
ATOM     14  C   UNL     1      -2.432  -3.297  -1.353  0.00  0.00    +0.023 C 
ATOM     15  C   UNL     1      -1.821  -4.633  -1.842  0.00  0.00    +0.003 C 
ATOM     16  C   UNL     1      -1.897  -5.527  -0.578  0.00  0.00    +0.013 C 
ATOM     17  C   UNL     1      -1.572  -4.566   0.585  0.00  0.00    +0.076 C 
BRANCH  17  18
ATOM     18  C   UNL     1      -2.411  -4.908   1.789  0.00  0.00    +0.136 C 
ATOM     19  N   UNL     1      -1.910  -5.618   2.745  0.00  0.00    -0.076 NA
ATOM     20  N   UNL     1      -3.712  -4.465   1.870  0.00  0.00    -0.344 N 
ATOM     21  H   UNL     1      -4.088  -3.932   1.152  0.00  0.00    +0.144 HD
ATOM     22  H   UNL     1      -4.253  -4.685   2.645  0.00  0.00    +0.144 HD
BRANCH  19  23
ATOM     23  O   UNL     1      -0.542  -5.982   2.715  0.00  0.00    -0.408 OA
ATOM     24  H   UNL     1      -0.259  -6.513   3.472  0.00  0.00    +0.328 HD
ENDBRANCH  19  23
ENDBRANCH  17  18
ENDBRANCH   3  13
TORSDOF 4
