REMARK  Name = ZINC12497866
REMARK  16 active torsions:
REMARK  status: ('A' for Active; 'I' for Inactive)
REMARK    1  A    between atoms: C_1  and  C_2
REMARK    2  A    between atoms: C_2  and  O_3
REMARK    3  A    between atoms: O_3  and  C_4
REMARK    4  A    between atoms: C_7  and  N_10
REMARK    5  A    between atoms: C_15  and  C_30
REMARK    6  A    between atoms: C_17  and  C_22
REMARK    7  A    between atoms: C_17  and  C_26
REMARK    8  A    between atoms: C_22  and  C_23
REMARK    9  A    between atoms: C_23  and  S_24
REMARK   10  A    between atoms: S_24  and  C_25
REMARK   11  A    between atoms: C_26  and  O_28
REMARK   12  A    between atoms: O_28  and  C_29
REMARK   13  A    between atoms: C_33  and  O_38
REMARK   14  A    between atoms: C_35  and  O_36
REMARK   15  A    between atoms: O_36  and  C_37
REMARK   16  A    between atoms: O_38  and  C_39
REMARK                            x       y       z     vdW  Elec       q    Type
REMARK                         _______ _______ _______ _____ _____    ______ ____
ROOT
ATOM      1  N   UNL     1      -4.997  -2.646   0.535  0.00  0.00    -0.210 N 
ATOM      2  C   UNL     1      -4.394  -3.137   1.664  0.00  0.00    +0.229 C 
ATOM      3  O   UNL     1      -4.876  -3.882   2.490  0.00  0.00    -0.275 OA
ATOM      4  C   UNL     1      -3.030  -2.563   1.659  0.00  0.00    +0.077 C 
ATOM      5  C   UNL     1      -1.760  -3.264   2.077  0.00  0.00    -0.023 C 
ATOM      6  C   UNL     1      -1.413  -2.063   0.004  0.00  0.00    +0.044 C 
ATOM      7  C   UNL     1      -2.794  -2.601   0.097  0.00  0.00    +0.086 C 
ATOM      8  C   UNL     1      -4.096  -2.117  -0.355  0.00  0.00    +0.229 C 
ATOM      9  O   UNL     1      -4.330  -1.405  -1.308  0.00  0.00    -0.275 OA
ATOM     10  N   UNL     1      -0.736  -2.585   1.227  0.00  0.00    +0.395 N 
ATOM     11  H   UNL     1      -0.007  -3.257   0.960  0.00  0.00    -0.083 HD
ATOM     12  H   UNL     1      -0.312  -1.808   1.747  0.00  0.00    -0.083 HD
ENDROOT
BRANCH   1  16
ATOM     13  C   UNL     1      -9.115  -2.749  -0.122  0.00  0.00    +0.121 A 
ATOM     14  C   UNL     1      -8.587  -3.269   1.050  0.00  0.00    +0.047 A 
ATOM     15  C   UNL     1      -7.224  -3.235   1.268  0.00  0.00    +0.027 A 
ATOM     16  C   UNL     1      -6.382  -2.681   0.314  0.00  0.00    +0.044 A 
ATOM     17  C   UNL     1      -6.912  -2.156  -0.857  0.00  0.00    +0.027 A 
ATOM     18  C   UNL     1      -8.274  -2.195  -1.077  0.00  0.00    +0.047 A 
BRANCH  13  19
ATOM     19  O   UNL     1     -10.457  -2.782  -0.337  0.00  0.00    -0.492 OA
BRANCH  19  21
ATOM     20  C   UNL     1     -12.456  -2.356  -1.627  0.00  0.00    +0.048 C 
ATOM     21  C   UNL     1     -10.932  -2.230  -1.566  0.00  0.00    +0.225 C 
ENDBRANCH  19  21
ENDBRANCH  13  19
ENDBRANCH   1  16
BRANCH   5  22
ATOM     22  C   UNL     1      -1.483  -3.043   3.542  0.00  0.00    -0.019 A 
ATOM     23  C   UNL     1      -0.732  -1.956   3.947  0.00  0.00    +0.009 A 
ATOM     24  C   UNL     1      -0.481  -1.748   5.289  0.00  0.00    +0.046 A 
ATOM     25  C   UNL     1      -0.974  -2.636   6.234  0.00  0.00    +0.124 A 
ATOM     26  C   UNL     1      -1.724  -3.730   5.831  0.00  0.00    +0.091 A 
ATOM     27  C   UNL     1      -1.979  -3.934   4.483  0.00  0.00    +0.125 A 
BRANCH  27  28
ATOM     28  O   UNL     1      -2.713  -5.006   4.085  0.00  0.00    -0.495 OA
ATOM     29  C   UNL     1      -3.191  -5.881   5.108  0.00  0.00    +0.277 C 
ENDBRANCH  27  28
BRANCH  25  30
ATOM     30  O   UNL     1      -0.723  -2.434   7.555  0.00  0.00    -0.495 OA
ATOM     31  C   UNL     1       0.056  -1.286   7.898  0.00  0.00    +0.277 C 
ENDBRANCH  25  30
ENDBRANCH   5  22
BRANCH   6  32
ATOM     32  C   UNL     1      -0.730  -2.572  -1.239  0.00  0.00    +0.297 C 
ATOM     33  O   UNL     1      -1.387  -2.883  -2.204  0.00  0.00    -0.252 OA
BRANCH  32  34
ATOM     34  O   UNL     1       0.607  -2.679  -1.275  0.00  0.00    -0.469 OA
ATOM     35  C   UNL     1       1.196  -3.176  -2.506  0.00  0.00    +0.280 C 
ENDBRANCH  32  34
ENDBRANCH   6  32
BRANCH   6  36
ATOM     36  C   UNL     1      -1.433  -0.534   0.013  0.00  0.00    +0.010 C 
BRANCH  36  37
ATOM     37  C   UNL     1       0.002  -0.004   0.002  0.00  0.00    +0.068 C 
BRANCH  37  38
ATOM     38  S   UNL     1      -0.022   1.810   0.012  0.00  0.00    -0.164 S 
ATOM     39  C   UNL     1       1.731   2.272  -0.002  0.00  0.00    +0.084 C 
ENDBRANCH  37  38
ENDBRANCH  36  37
ENDBRANCH   6  36
TORSDOF 11
