REMARK  Name = ZINC40688658
REMARK  8 active torsions:
REMARK  status: ('A' for Active; 'I' for Inactive)
REMARK    1  A    between atoms: C_1  and  C_2
REMARK    2  A    between atoms: C_4  and  C_25
REMARK    3  A    between atoms: C_7  and  N_8
REMARK    4  A    between atoms: C_10  and  N_23
REMARK    5  A    between atoms: C_11  and  N_15
REMARK    6  A    between atoms: C_20  and  C_22
REMARK    7  A    between atoms: C_25  and  C_27
REMARK    8  A    between atoms: C_25  and  C_29
REMARK                            x       y       z     vdW  Elec       q    Type
REMARK                         _______ _______ _______ _____ _____    ______ ____
ROOT
ATOM      1  C   UNL     1      -0.522   0.809   0.848  0.00  0.00    +0.045 C 
ATOM      2  C   UNL     1       0.353  -0.361   0.479  0.00  0.00    -0.029 A 
ATOM      3  C   UNL     1       0.242  -0.942  -0.769  0.00  0.00    +0.011 A 
ATOM      4  C   UNL     1       1.044  -2.015  -1.109  0.00  0.00    -0.008 A 
ATOM      5  C   UNL     1       1.962  -2.512  -0.199  0.00  0.00    +0.047 A 
ATOM      6  C   UNL     1       2.078  -1.935   1.052  0.00  0.00    +0.043 A 
ATOM      7  C   UNL     1       1.276  -0.853   1.393  0.00  0.00    +0.037 A 
ATOM      8 CL   UNL     1       2.967  -3.860  -0.629  0.00  0.00    -0.083 Cl
ENDROOT
BRANCH   7   9
ATOM      9  N   UNL     1       1.395  -0.264   2.655  0.00  0.00    -0.298 N 
ATOM     10  C   UNL     1       1.792  -1.030   3.745  0.00  0.00    +0.149 A 
ATOM     11  C   UNL     1       2.032  -0.431   4.983  0.00  0.00    +0.106 A 
ATOM     12  C   UNL     1       2.429  -1.246   6.045  0.00  0.00    +0.147 A 
ATOM     13  N   UNL     1       2.561  -2.554   5.838  0.00  0.00    -0.219 NA
ATOM     14  C   UNL     1       2.325  -3.080   4.653  0.00  0.00    +0.225 A 
ATOM     15  N   UNL     1       1.944  -2.347   3.626  0.00  0.00    -0.219 NA
ATOM     16  H   UNL     1       1.200   0.679   2.770  0.00  0.00    +0.154 HD
BRANCH  12  17
ATOM     17  N   UNL     1       2.681  -0.701   7.298  0.00  0.00    -0.311 N 
ATOM     18  C   UNL     1       1.629  -0.663   8.323  0.00  0.00    +0.107 C 
ATOM     19  C   UNL     1       2.164  -1.318   9.601  0.00  0.00    +0.019 C 
ATOM     20  C   UNL     1       3.469  -0.633  10.013  0.00  0.00    +0.003 C 
ATOM     21  C   UNL     1       4.511  -0.811   8.907  0.00  0.00    +0.022 C 
ATOM     22  C   UNL     1       4.006  -0.155   7.624  0.00  0.00    +0.072 C 
ATOM     23  C   UNL     1       4.978  -0.453   6.481  0.00  0.00    +0.028 C 
ENDBRANCH  12  17
BRANCH  11  24
ATOM     24  N   UNL     1       1.880   0.954   5.155  0.00  0.00    -0.353 N 
ATOM     25  H   UNL     1       1.679   1.519   4.393  0.00  0.00    +0.143 HD
ATOM     26  H   UNL     1       1.976   1.347   6.037  0.00  0.00    +0.143 HD
ENDBRANCH  11  24
ENDBRANCH   7   9
BRANCH   4  27
ATOM     27  C   UNL     1       0.920  -2.645  -2.471  0.00  0.00    +0.153 C 
BRANCH  27  28
ATOM     28  C   UNL     1       1.296  -1.638  -3.527  0.00  0.00    -0.026 A 
ATOM     29  C   UNL     1       0.464  -0.565  -3.786  0.00  0.00    +0.006 A 
ATOM     30  C   UNL     1       0.809   0.360  -4.754  0.00  0.00    +0.020 A 
ATOM     31  C   UNL     1       1.987   0.210  -5.464  0.00  0.00    +0.041 A 
ATOM     32  C   UNL     1       2.819  -0.864  -5.205  0.00  0.00    +0.020 A 
ATOM     33  C   UNL     1       2.476  -1.784  -4.233  0.00  0.00    +0.006 A 
ATOM     34 CL   UNL     1       2.420   1.371  -6.681  0.00  0.00    -0.084 Cl
ENDBRANCH  27  28
BRANCH  27  35
ATOM     35  C   UNL     1      -0.469  -3.084  -2.684  0.00  0.00    +0.075 C 
ATOM     36  N   UNL     1      -1.541  -3.422  -2.849  0.00  0.00    -0.196 NA
ENDBRANCH  27  35
ENDBRANCH   4  27
TORSDOF 6
