REMARK  Name = ZINC63835578
REMARK  9 active torsions:
REMARK  status: ('A' for Active; 'I' for Inactive)
REMARK    1  A    between atoms: C_1  and  C_2
REMARK    2  A    between atoms: C_4  and  S_10
REMARK    3  A    between atoms: C_5  and  C_9
REMARK    4  A    between atoms: N_7  and  C_8
REMARK    5  A    between atoms: S_10  and  N_13
REMARK    6  A    between atoms: N_13  and  C_14
REMARK    7  A    between atoms: C_14  and  C_15
REMARK    8  A    between atoms: C_15  and  C_17
REMARK    9  A    between atoms: C_15  and  C_22
REMARK                            x       y       z     vdW  Elec       q    Type
REMARK                         _______ _______ _______ _____ _____    ______ ____
ROOT
ATOM      1  C   UNL     1      -2.346  -3.328  -3.714  0.00  0.00    +0.069 C 
ENDROOT
BRANCH   1   2
ATOM      2  C   UNL     1      -2.474  -4.824  -3.587  0.00  0.00    -0.032 C 
ATOM      3  C   UNL     1      -3.462  -5.601  -4.086  0.00  0.00    -0.000 A 
ATOM      4  C   UNL     1      -4.668  -5.298  -4.866  0.00  0.00    +0.010 A 
ATOM      5  C   UNL     1      -5.487  -6.311  -5.228  0.00  0.00    +0.001 A 
ATOM      6  C   UNL     1      -5.214  -7.641  -4.879  0.00  0.00    +0.002 A 
ATOM      7  C   UNL     1      -4.125  -7.998  -4.165  0.00  0.00    +0.026 A 
ATOM      8  C   UNL     1      -3.196  -7.013  -3.731  0.00  0.00    +0.043 A 
ATOM      9  N   UNL     1      -2.086  -7.106  -3.038  0.00  0.00    -0.380 N 
ATOM     10  C   UNL     1      -1.519  -5.761  -2.882  0.00  0.00    +0.145 C 
ATOM     11  H   UNL     1      -1.702  -7.926  -2.691  0.00  0.00    +0.160 HD
ENDBRANCH   1   2
BRANCH   1  12
ATOM     12  C   UNL     1      -1.065  -2.992  -4.431  0.00  0.00    -0.002 A 
ATOM     13  C   UNL     1      -0.888  -2.314  -5.592  0.00  0.00    +0.012 A 
ATOM     14  C   UNL     1       0.395  -2.121  -6.067  0.00  0.00    +0.008 A 
ATOM     15  C   UNL     1       1.440  -2.615  -5.359  0.00  0.00    +0.045 A 
ATOM     16  S   UNL     1       0.617  -3.376  -3.970  0.00  0.00    -0.101 S 
ENDBRANCH   1  12
BRANCH   1  17
ATOM     17  C   UNL     1      -2.331  -2.697  -2.320  0.00  0.00    +0.119 C 
BRANCH  17  18
ATOM     18  N   UNL     1      -2.327  -1.238  -2.444  0.00  0.00    -0.189 NA
ATOM     19  H   UNL     1      -2.117  -0.824  -3.296  0.00  0.00    +0.148 HD
BRANCH  18  20
ATOM     20  S   UNL     1      -2.683  -0.294  -1.130  0.00  0.00    +0.058 S 
ATOM     21  O   UNL     1      -3.877  -0.818  -0.565  0.00  0.00    -0.153 OA
ATOM     22  O   UNL     1      -2.571   1.056  -1.558  0.00  0.00    -0.153 OA
BRANCH  20  25
ATOM     23  C   UNL     1      -0.019   1.526   0.010  0.00  0.00    +0.032 C 
ATOM     24  C   UNL     1       0.002  -0.004   0.002  0.00  0.00    +0.123 C 
ATOM     25  C   UNL     1      -1.407  -0.553   0.057  0.00  0.00    +0.119 C 
ATOM     26  C   UNL     1      -1.497  -1.261   1.165  0.00  0.00    +0.040 C 
ATOM     27  N   UNL     1      -0.311  -1.258   1.871  0.00  0.00    -0.280 N 
ATOM     28  N   UNL     1       0.644  -0.519   1.228  0.00  0.00    -0.224 NA
ATOM     29  C   UNL     1       1.119   0.583   2.076  0.00  0.00    +0.128 C 
ATOM     30  C   UNL     1      -2.743  -1.985   1.607  0.00  0.00    +0.063 C 
ATOM     31  H   UNL     1      -0.172  -1.720   2.713  0.00  0.00    +0.166 HD
ENDBRANCH  20  25
ENDBRANCH  18  20
ENDBRANCH  17  18
ENDBRANCH   1  17
TORSDOF 6
