REMARK  Name = ZINC12847038
REMARK  7 active torsions:
REMARK  status: ('A' for Active; 'I' for Inactive)
REMARK    1  A    between atoms: C_3  and  C_34
REMARK    2  A    between atoms: C_5  and  N_7
REMARK    3  A    between atoms: C_8  and  C_10
REMARK    4  A    between atoms: C_15  and  C_30
REMARK    5  A    between atoms: C_18  and  C_21
REMARK    6  A    between atoms: C_34  and  C_35
REMARK    7  A    between atoms: C_35  and  C_36
REMARK                            x       y       z     vdW  Elec       q    Type
REMARK                         _______ _______ _______ _____ _____    ______ ____
ROOT
ATOM      1  C   UNL     1       0.119  -4.245   0.189  0.00  0.00    +0.149 A 
ATOM      2  C   UNL     1      -1.006  -5.093   0.302  0.00  0.00    +0.078 A 
ATOM      3  C   UNL     1      -0.554  -6.361   0.368  0.00  0.00    +0.119 A 
ATOM      4  N   UNL     1       0.810  -6.331   0.303  0.00  0.00    -0.238 N 
ATOM      5  N   UNL     1       1.204  -4.999   0.185  0.00  0.00    -0.164 NA
ATOM      6  C   UNL     1       1.653  -7.530   0.350  0.00  0.00    +0.215 C 
ATOM      7  C   UNL     1       0.842  -8.683   0.953  0.00  0.00    +0.063 C 
ATOM      8  C   UNL     1      -0.511  -8.796   0.243  0.00  0.00    +0.104 C 
ATOM      9  N   UNL     1      -1.273  -7.555   0.483  0.00  0.00    -0.322 N 
ATOM     10  H   UNL     1      -2.217  -7.566   0.708  0.00  0.00    +0.148 HD
ENDROOT
BRANCH   8  11
ATOM     11  C   UNL     1      -1.273  -9.976   0.791  0.00  0.00    -0.024 A 
ATOM     12  C   UNL     1      -1.956  -9.860   1.987  0.00  0.00    +0.009 A 
ATOM     13  C   UNL     1      -2.656 -10.939   2.494  0.00  0.00    +0.050 A 
ATOM     14  C   UNL     1      -2.674 -12.140   1.803  0.00  0.00    +0.166 A 
ATOM     15  C   UNL     1      -1.986 -12.256   0.598  0.00  0.00    +0.167 A 
ATOM     16  C   UNL     1      -1.291 -11.169   0.093  0.00  0.00    +0.055 A 
ATOM     17  O   UNL     1      -2.156 -13.523   0.119  0.00  0.00    -0.453 OA
ATOM     18  C   UNL     1      -2.615 -14.300   1.241  0.00  0.00    +0.466 C 
ATOM     19  O   UNL     1      -3.276 -13.334   2.079  0.00  0.00    -0.453 OA
ENDBRANCH   8  11
BRANCH   1  21
ATOM     20  N   UNL     1       1.238  -2.079  -0.022  0.00  0.00    -0.280 N 
ATOM     21  C   UNL     1       0.087  -2.772   0.087  0.00  0.00    +0.268 C 
ATOM     22  O   UNL     1      -0.977  -2.185   0.102  0.00  0.00    -0.268 OA
ATOM     23  H   UNL     1       2.082  -2.550  -0.102  0.00  0.00    +0.155 HD
BRANCH  20  28
ATOM     24  C   UNL     1       0.140   1.379  -0.616  0.00  0.00    +0.002 A 
ATOM     25  C   UNL     1       1.169   2.086  -0.021  0.00  0.00    +0.004 A 
ATOM     26  C   UNL     1       2.221   1.413   0.573  0.00  0.00    -0.045 A 
ATOM     27  C   UNL     1       2.247   0.032   0.574  0.00  0.00    +0.027 A 
ATOM     28  C   UNL     1       1.214  -0.681  -0.022  0.00  0.00    +0.034 A 
ATOM     29  C   UNL     1       0.159  -0.002  -0.618  0.00  0.00    +0.023 A 
BRANCH  26  30
ATOM     30  C   UNL     1       3.341   2.188   1.219  0.00  0.00    +0.050 C 
BRANCH  30  31
ATOM     31  C   UNL     1       3.005   2.438   2.690  0.00  0.00    +0.123 C 
BRANCH  31  32
ATOM     32  C   UNL     1       4.098   3.195   3.321  0.00  0.00    +0.063 C 
ATOM     33  N   UNL     1       4.942   3.778   3.808  0.00  0.00    -0.197 NA
ENDBRANCH  31  32
ENDBRANCH  30  31
ENDBRANCH  26  30
ENDBRANCH  20  28
ENDBRANCH   1  21
BRANCH   6  34
ATOM     34  C   UNL     1       2.883  -7.256   1.218  0.00  0.00    +0.412 C 
ATOM     35  F   UNL     1       2.475  -6.923   2.514  0.00  0.00    -0.168 F 
ATOM     36  F   UNL     1       3.686  -8.401   1.262  0.00  0.00    -0.168 F 
ATOM     37  F   UNL     1       3.613  -6.196   0.671  0.00  0.00    -0.168 F 
ENDBRANCH   6  34
TORSDOF 7
