REMARK  Name = ZINC19353847
REMARK  14 active torsions:
REMARK  status: ('A' for Active; 'I' for Inactive)
REMARK    1  A    between atoms: C_1  and  C_2
REMARK    2  A    between atoms: C_2  and  C_3
REMARK    3  A    between atoms: C_2  and  C_4
REMARK    4  A    between atoms: C_4  and  C_6
REMARK    5  A    between atoms: C_4  and  N_16
REMARK    6  A    between atoms: C_17  and  C_19
REMARK    7  A    between atoms: C_19  and  S_20
REMARK    8  A    between atoms: S_20  and  C_21
REMARK    9  A    between atoms: C_24  and  C_27
REMARK   10  A    between atoms: N_25  and  N_26
REMARK   11  A    between atoms: C_27  and  O_28
REMARK   12  A    between atoms: O_28  and  C_29
REMARK   13  A    between atoms: C_33  and  O_35
REMARK   14  A    between atoms: O_35  and  C_36
REMARK                            x       y       z     vdW  Elec       q    Type
REMARK                         _______ _______ _______ _____ _____    ______ ____
ROOT
ATOM      1  C   UNL     1      -3.501   1.365  -2.296  0.00  0.00    +0.173 C 
ENDROOT
BRANCH   1   3
ATOM      2  N   UNL     1      -2.873   1.535   0.091  0.00  0.00    -0.308 N 
ATOM      3  C   UNL     1      -2.772   0.866  -1.075  0.00  0.00    +0.224 C 
ATOM      4  O   UNL     1      -2.095  -0.138  -1.141  0.00  0.00    -0.275 OA
ATOM      5  H   UNL     1      -3.487   2.446   0.151  0.00  0.00    +0.149 HD
BRANCH   2   6
ATOM      6  C   UNL     1      -2.164   1.050   1.278  0.00  0.00    +0.106 C 
BRANCH   6   7
ATOM      7  C   UNL     1      -2.870   1.536   2.518  0.00  0.00    -0.023 A 
ATOM      8  C   UNL     1      -3.374   2.822   2.565  0.00  0.00    +0.009 A 
ATOM      9  C   UNL     1      -4.025   3.270   3.699  0.00  0.00    +0.050 A 
ATOM     10  C   UNL     1      -4.164   2.433   4.796  0.00  0.00    +0.162 A 
ATOM     11  C   UNL     1      -3.655   1.141   4.750  0.00  0.00    +0.162 A 
ATOM     12  C   UNL     1      -3.006   0.697   3.607  0.00  0.00    +0.055 A 
ATOM     13  O   UNL     1      -3.788   0.301   5.812  0.00  0.00    -0.485 OA
ATOM     14  C   UNL     1      -4.112   0.902   7.071  0.00  0.00    +0.270 C 
ATOM     15  C   UNL     1      -5.249   1.907   6.846  0.00  0.00    +0.270 C 
ATOM     16  O   UNL     1      -4.798   2.893   5.910  0.00  0.00    -0.485 OA
ENDBRANCH   6   7
BRANCH   6  18
ATOM     17  C   UNL     1      -0.013   1.086   0.008  0.00  0.00    +0.009 C 
ATOM     18  C   UNL     1      -0.729   1.579   1.267  0.00  0.00    +0.008 C 
ATOM     19  C   UNL     1       0.011   1.072   2.506  0.00  0.00    +0.009 C 
ENDBRANCH   6  18
ENDBRANCH   2   6
ENDBRANCH   1   3
BRANCH   1  20
ATOM     20  S   UNL     1      -3.169   0.260  -3.690  0.00  0.00    -0.075 S 
BRANCH  20  21
ATOM     21  C   UNL     1      -4.115   1.058  -4.944  0.00  0.00    +0.209 A 
ATOM     22  N   UNL     1      -4.836   2.146  -4.805  0.00  0.00    -0.121 NA
ATOM     23  N   UNL     1      -5.391   2.449  -5.925  0.00  0.00    -0.128 NA
ATOM     24  C   UNL     1      -5.067   1.575  -6.835  0.00  0.00    +0.189 A 
ATOM     25  N   UNL     1      -4.243   0.657  -6.244  0.00  0.00    -0.225 N 
BRANCH  25  26
ATOM     26  N   UNL     1      -3.667  -0.434  -6.831  0.00  0.00    -0.295 N 
ATOM     27  H   UNL     1      -3.851  -0.647  -7.894  0.00  0.00    +0.163 HD
ATOM     28  H   UNL     1      -3.019  -1.098  -6.240  0.00  0.00    +0.163 HD
ENDBRANCH  25  26
BRANCH  24  29
ATOM     29  C   UNL     1      -5.517   1.575  -8.273  0.00  0.00    +0.306 C 
BRANCH  29  30
ATOM     30  O   UNL     1      -6.730   0.829  -8.393  0.00  0.00    -0.484 OA
BRANCH  30  31
ATOM     31  C   UNL     1      -7.274   0.731  -9.634  0.00  0.00    +0.125 A 
ATOM     32  C   UNL     1      -6.655   1.344 -10.714  0.00  0.00    +0.046 A 
ATOM     33  C   UNL     1      -7.205   1.241 -11.977  0.00  0.00    +0.007 A 
ATOM     34  C   UNL     1      -8.378   0.534 -12.167  0.00  0.00    +0.046 A 
ATOM     35  C   UNL     1      -9.003  -0.077 -11.089  0.00  0.00    +0.124 A 
ATOM     36  C   UNL     1      -8.450   0.022  -9.822  0.00  0.00    +0.091 A 
BRANCH  35  37
ATOM     37  O   UNL     1     -10.156  -0.770 -11.277  0.00  0.00    -0.495 OA
ATOM     38  C   UNL     1     -10.669  -0.830 -12.609  0.00  0.00    +0.277 C 
ENDBRANCH  35  37
ENDBRANCH  30  31
ENDBRANCH  29  30
ENDBRANCH  24  29
ENDBRANCH  20  21
ENDBRANCH   1  20
TORSDOF 11
