REMARK  Name = ZINC39596177
REMARK  10 active torsions:
REMARK  status: ('A' for Active; 'I' for Inactive)
REMARK    1  A    between atoms: C_1  and  C_2
REMARK    2  A    between atoms: C_2  and  S_3
REMARK    3  A    between atoms: S_3  and  C_4
REMARK    4  A    between atoms: C_5  and  C_10
REMARK    5  A    between atoms: C_14  and  C_23
REMARK    6  A    between atoms: N_25  and  C_26
REMARK    7  A    between atoms: C_26  and  C_27
REMARK    8  A    between atoms: C_27  and  C_29
REMARK    9  A    between atoms: C_27  and  O_30
REMARK   10  A    between atoms: O_30  and  C_31
REMARK                            x       y       z     vdW  Elec       q    Type
REMARK                         _______ _______ _______ _____ _____    ______ ____
ROOT
ATOM      1  C   UNL     1       2.612  -1.740  -4.126  0.00  0.00    +0.249 C 
ATOM      2  O   UNL     1       2.788  -0.557  -4.345  0.00  0.00    -0.270 OA
ATOM      3  N   UNL     1       3.198  -2.665  -4.911  0.00  0.00    -0.296 N 
ATOM      4  C   UNL     1       3.021  -4.136  -4.868  0.00  0.00    +0.121 C 
ATOM      5  C   UNL     1       3.001  -4.570  -6.351  0.00  0.00    +0.100 C 
ATOM      6  C   UNL     1       3.755  -3.455  -7.096  0.00  0.00    -0.004 C 
ATOM      7  C   UNL     1       4.160  -2.442  -6.017  0.00  0.00    +0.115 C 
ATOM      8  C   UNL     1       2.838  -2.790  -8.119  0.00  0.00    -0.010 C 
ATOM      9  C   UNL     1       3.625  -1.725  -8.886  0.00  0.00    -0.082 C 
ATOM     10  N   UNL     1       4.770  -2.350  -9.559  0.00  0.00    +0.379 N 
ATOM     11  C   UNL     1       5.694  -2.906  -8.564  0.00  0.00    -0.082 C 
ATOM     12  C   UNL     1       4.994  -4.022  -7.782  0.00  0.00    -0.010 C 
ATOM     13  H   UNL     1       4.441  -3.090 -10.162  0.00  0.00    -0.086 HD
ATOM     14  H   UNL     1       5.252  -1.658 -10.113  0.00  0.00    -0.086 HD
ENDROOT
BRANCH   1  16
ATOM     15  C   UNL     1       0.610  -1.425  -2.657  0.00  0.00    +0.109 A 
ATOM     16  C   UNL     1       1.758  -2.162  -3.001  0.00  0.00    +0.069 A 
ATOM     17  C   UNL     1       2.075  -3.303  -2.255  0.00  0.00    +0.017 A 
ATOM     18  C   UNL     1       1.241  -3.657  -1.209  0.00  0.00    +0.020 A 
ATOM     19  C   UNL     1       0.129  -2.882  -0.931  0.00  0.00    +0.112 A 
ATOM     20  N   UNL     1      -0.150  -1.807  -1.642  0.00  0.00    -0.248 NA
BRANCH  15  21
ATOM     21  S   UNL     1       0.186   0.016  -3.578  0.00  0.00    -0.105 S 
BRANCH  21  23
ATOM     22  C   UNL     1      -1.812   1.882  -3.489  0.00  0.00    +0.015 C 
ATOM     23  C   UNL     1      -1.328   0.616  -2.779  0.00  0.00    +0.072 C 
ENDBRANCH  21  23
ENDBRANCH  15  21
ENDBRANCH   1  16
BRANCH   5  24
ATOM     24  C   UNL     1       3.709  -5.889  -6.521  0.00  0.00    +0.218 C 
ATOM     25  O   UNL     1       4.619  -6.190  -5.778  0.00  0.00    -0.275 OA
ATOM     26  N   UNL     1       3.332  -6.736  -7.500  0.00  0.00    -0.312 N 
ATOM     27  H   UNL     1       2.604  -6.495  -8.095  0.00  0.00    +0.149 HD
BRANCH  26  28
ATOM     28  C   UNL     1       4.020  -8.018  -7.666  0.00  0.00    +0.148 C 
BRANCH  28  29
ATOM     29  C   UNL     1       3.401  -8.781  -8.839  0.00  0.00    +0.187 C 
ATOM     30  C   UNL     1       4.035 -10.171  -8.934  0.00  0.00    +0.053 C 
BRANCH  29  31
ATOM     31  O   UNL     1       3.640  -8.065 -10.052  0.00  0.00    -0.488 OA
BRANCH  31  32
ATOM     32  C   UNL     1       2.777  -8.285 -11.079  0.00  0.00    +0.121 A 
ATOM     33  C   UNL     1       1.784  -9.246 -10.957  0.00  0.00    +0.048 A 
ATOM     34  C   UNL     1       0.908  -9.469 -12.002  0.00  0.00    +0.042 A 
ATOM     35  C   UNL     1       1.020  -8.733 -13.169  0.00  0.00    +0.124 A 
ATOM     36  C   UNL     1       2.010  -7.773 -13.292  0.00  0.00    +0.042 A 
ATOM     37  C   UNL     1       2.884  -7.544 -12.246  0.00  0.00    +0.048 A 
ATOM     38  F   UNL     1       0.162  -8.952 -14.190  0.00  0.00    -0.205 F 
ENDBRANCH  31  32
ENDBRANCH  29  31
ENDBRANCH  28  29
ENDBRANCH  26  28
ENDBRANCH   5  24
TORSDOF 8
