REMARK  Name = ZINC20885412
REMARK  7 active torsions:
REMARK  status: ('A' for Active; 'I' for Inactive)
REMARK    1  A    between atoms: C_1  and  C_2
REMARK    2  A    between atoms: C_2  and  C_3
REMARK    3  A    between atoms: C_2  and  C_4
REMARK    4  A    between atoms: C_4  and  O_5
REMARK    5  A    between atoms: O_5  and  C_6
REMARK    6  A    between atoms: C_9  and  C_12
REMARK    7  A    between atoms: C_17  and  C_27
REMARK                            x       y       z     vdW  Elec       q    Type
REMARK                         _______ _______ _______ _____ _____    ______ ____
ROOT
ATOM      1  C   UNL     1      -0.031  -2.738   0.699  0.00  0.00    +0.032 C 
ATOM      2  C   UNL     1       1.038  -2.264  -0.283  0.00  0.00    +0.059 C 
ATOM      3  C   UNL     1       1.131  -0.747  -0.256  0.00  0.00    +0.017 C 
ATOM      4  C   UNL     1       0.037  -0.003  -0.020  0.00  0.00    +0.036 C 
ATOM      5  C   UNL     1      -0.018   1.506   0.010  0.00  0.00    +0.136 C 
ATOM      6  N   UNL     1       1.276   2.153   0.022  0.00  0.00    -0.331 N 
ATOM      7  C   UNL     1       2.148   2.040  -1.058  0.00  0.00    +0.049 A 
ATOM      8  C   UNL     1       2.454   3.130  -1.858  0.00  0.00    +0.025 A 
ATOM      9  C   UNL     1       3.238   2.949  -2.983  0.00  0.00    +0.002 A 
ATOM     10  C   UNL     1       3.716   1.693  -3.310  0.00  0.00    +0.002 A 
ATOM     11  C   UNL     1       3.430   0.605  -2.501  0.00  0.00    +0.025 A 
ATOM     12  C   UNL     1       2.659   0.788  -1.366  0.00  0.00    +0.052 A 
ATOM     13  N   UNL     1       2.373  -0.251  -0.488  0.00  0.00    -0.316 N 
ATOM     14  C   UNL     1      -1.208  -0.626   0.234  0.00  0.00    +0.163 C 
ATOM     15  O   UNL     1      -2.183   0.072   0.429  0.00  0.00    -0.292 OA
ATOM     16  C   UNL     1      -1.366  -2.116   0.271  0.00  0.00    +0.088 C 
ATOM     17  H   UNL     1       1.587   2.747   0.895  0.00  0.00    +0.147 HD
ATOM     18  H   UNL     1       3.241  -0.674   0.037  0.00  0.00    +0.152 HD
ENDROOT
BRANCH   5  19
ATOM     19  C   UNL     1      -0.779   1.980  -1.201  0.00  0.00    -0.019 A 
ATOM     20  C   UNL     1      -1.974   2.658  -1.044  0.00  0.00    +0.009 A 
ATOM     21  C   UNL     1      -2.672   3.099  -2.153  0.00  0.00    +0.050 A 
ATOM     22  C   UNL     1      -2.181   2.854  -3.425  0.00  0.00    +0.166 A 
ATOM     23  C   UNL     1      -0.980   2.167  -3.583  0.00  0.00    +0.167 A 
ATOM     24  C   UNL     1      -0.282   1.733  -2.467  0.00  0.00    +0.055 A 
ATOM     25  O   UNL     1      -0.714   2.054  -4.917  0.00  0.00    -0.453 OA
ATOM     26  C   UNL     1      -1.553   3.032  -5.560  0.00  0.00    +0.466 C 
ATOM     27  O   UNL     1      -2.668   3.171  -4.660  0.00  0.00    -0.453 OA
ENDBRANCH   5  19
BRANCH   1  31
ATOM     28  C   UNL     1      -0.314  -7.001   0.583  0.00  0.00    +0.121 A 
ATOM     29  C   UNL     1       0.017  -6.358   1.767  0.00  0.00    +0.046 A 
ATOM     30  C   UNL     1       0.108  -4.980   1.802  0.00  0.00    +0.007 A 
ATOM     31  C   UNL     1      -0.131  -4.242   0.658  0.00  0.00    -0.043 A 
ATOM     32  C   UNL     1      -0.467  -4.879  -0.522  0.00  0.00    +0.007 A 
ATOM     33  C   UNL     1      -0.553  -6.257  -0.564  0.00  0.00    +0.046 A 
BRANCH  28  34
ATOM     34  O   UNL     1      -0.403  -8.356   0.546  0.00  0.00    -0.492 OA
BRANCH  34  35
ATOM     35  C   UNL     1      -0.749  -8.950  -0.707  0.00  0.00    +0.232 C 
BRANCH  35  37
ATOM     36  C   UNL     1      -1.936 -10.849   0.399  0.00  0.00    +0.010 C 
ATOM     37  C   UNL     1      -0.801 -10.471  -0.554  0.00  0.00    +0.020 C 
ATOM     38  C   UNL     1      -1.047 -11.114  -1.921  0.00  0.00    +0.010 C 
ENDBRANCH  35  37
ENDBRANCH  34  35
ENDBRANCH  28  34
ENDBRANCH   1  31
TORSDOF 5
