REMARK  Name = ZINC20751744
REMARK  7 active torsions:
REMARK  status: ('A' for Active; 'I' for Inactive)
REMARK    1  A    between atoms: C_1  and  C_2
REMARK    2  A    between atoms: C_4  and  C_39
REMARK    3  A    between atoms: C_6  and  N_8
REMARK    4  A    between atoms: N_8  and  S_9
REMARK    5  A    between atoms: S_9  and  C_12
REMARK    6  A    between atoms: C_25  and  C_28
REMARK    7  A    between atoms: C_37  and  O_38
REMARK                            x       y       z     vdW  Elec       q    Type
REMARK                         _______ _______ _______ _____ _____    ______ ____
ROOT
ATOM      1  C   UNL     1       2.699   1.040  -1.366  0.00  0.00    +0.109 A 
ATOM      2  C   UNL     1       1.328   0.875  -1.441  0.00  0.00    +0.030 A 
ATOM      3  C   UNL     1       0.552   1.808  -2.098  0.00  0.00    +0.025 A 
ATOM      4  C   UNL     1       1.142   2.920  -2.688  0.00  0.00    +0.031 A 
ATOM      5  C   UNL     1       2.528   3.087  -2.596  0.00  0.00    -0.018 A 
ATOM      6  C   UNL     1       3.295   2.146  -1.944  0.00  0.00    +0.034 A 
ATOM      7  C   UNL     1       3.110   4.304  -3.202  0.00  0.00    +0.049 C 
ATOM      8  C   UNL     1       4.513   4.344  -3.690  0.00  0.00    -0.023 C 
ATOM      9  C   UNL     1       4.597   5.183  -4.701  0.00  0.00    -0.030 C 
ATOM     10  C   UNL     1       3.210   5.740  -5.029  0.00  0.00    +0.033 C 
ATOM     11  C   UNL     1       2.297   4.632  -4.490  0.00  0.00    +0.029 C 
ATOM     12  C   UNL     1       0.918   5.044  -4.005  0.00  0.00    +0.109 C 
ATOM     13  N   UNL     1       0.339   3.836  -3.378  0.00  0.00    -0.336 N 
ATOM     14  H   UNL     1      -0.742   3.644  -3.449  0.00  0.00    +0.147 HD
ENDROOT
BRANCH  12  15
ATOM     15  C   UNL     1       0.068   5.486  -5.168  0.00  0.00    +0.022 A 
ATOM     16  C   UNL     1      -0.190   6.851  -5.375  0.00  0.00    -0.009 A 
ATOM     17  C   UNL     1       0.331   7.831  -4.513  0.00  0.00    +0.009 A 
ATOM     18  C   UNL     1       0.060   9.144  -4.743  0.00  0.00    +0.001 A 
ATOM     19  C   UNL     1      -0.729   9.535  -5.824  0.00  0.00    +0.001 A 
ATOM     20  C   UNL     1      -1.251   8.614  -6.680  0.00  0.00    +0.008 A 
ATOM     21  C   UNL     1      -0.993   7.248  -6.474  0.00  0.00    -0.017 A 
ATOM     22  C   UNL     1      -1.515   6.269  -7.338  0.00  0.00    +0.012 A 
ATOM     23  C   UNL     1      -1.247   4.956  -7.110  0.00  0.00    +0.046 A 
ATOM     24  C   UNL     1      -0.451   4.562  -6.029  0.00  0.00    +0.122 A 
BRANCH  24  25
ATOM     25  O   UNL     1      -0.196   3.242  -5.831  0.00  0.00    -0.506 OA
ATOM     26  H   UNL     1      -0.610   2.492  -6.521  0.00  0.00    +0.292 HD
ENDBRANCH  24  25
ENDBRANCH  12  15
BRANCH   1  27
ATOM     27  S   UNL     1       3.687  -0.159  -0.534  0.00  0.00    +0.072 S 
ATOM     28  O   UNL     1       4.819   0.531  -0.023  0.00  0.00    -0.150 OA
ATOM     29  O   UNL     1       2.807  -0.902   0.299  0.00  0.00    -0.150 OA
BRANCH  27  30
ATOM     30  N   UNL     1       4.251  -1.210  -1.683  0.00  0.00    -0.216 N 
ATOM     31  H   UNL     1       5.333  -1.297  -1.865  0.00  0.00    +0.174 HD
BRANCH  30  37
ATOM     32  C   UNL     1       1.192  -5.049  -1.931  0.00  0.00    +0.044 C 
ATOM     33  C   UNL     1       1.857  -3.854  -2.566  0.00  0.00    -0.048 A 
ATOM     34  C   UNL     1       1.579  -3.526  -3.880  0.00  0.00    +0.006 A 
ATOM     35  C   UNL     1       2.186  -2.431  -4.466  0.00  0.00    -0.048 A 
ATOM     36  C   UNL     1       3.073  -1.661  -3.740  0.00  0.00    +0.028 A 
ATOM     37  C   UNL     1       3.354  -1.987  -2.420  0.00  0.00    +0.049 A 
ATOM     38  C   UNL     1       2.747  -3.091  -1.836  0.00  0.00    +0.028 A 
ATOM     39  C   UNL     1       1.880  -2.078  -5.899  0.00  0.00    +0.044 C 
ENDBRANCH  30  37
ENDBRANCH  27  30
ENDBRANCH   1  27
TORSDOF 5
