REMARK  Name = ZINC53086030
REMARK  6 active torsions:
REMARK  status: ('A' for Active; 'I' for Inactive)
REMARK    1  A    between atoms: C_1  and  C_2
REMARK    2  A    between atoms: C_4  and  C_30
REMARK    3  A    between atoms: C_6  and  N_8
REMARK    4  A    between atoms: C_11  and  C_15
REMARK    5  A    between atoms: N_17  and  N_18
REMARK    6  A    between atoms: C_19  and  C_21
REMARK                            x       y       z     vdW  Elec       q    Type
REMARK                         _______ _______ _______ _____ _____    ______ ____
ROOT
ATOM      1  C   UNL     1      -1.037  -5.605   4.212  0.00  0.00    +0.241 C 
ATOM      2  O   UNL     1      -1.962  -5.357   4.957  0.00  0.00    -0.273 OA
ATOM      3  N   UNL     1      -0.948  -6.816   3.627  0.00  0.00    -0.234 N 
ATOM      4  H   UNL     1      -0.209  -7.014   3.031  0.00  0.00    +0.173 HD
ENDROOT
BRANCH   1   8
ATOM      5  N   UNL     1       0.052  -2.797   2.393  0.00  0.00    -0.271 N 
ATOM      6  C   UNL     1       0.149  -2.174   3.718  0.00  0.00    +0.115 C 
ATOM      7  C   UNL     1      -0.303  -3.260   4.719  0.00  0.00    +0.041 C 
ATOM      8  C   UNL     1       0.012  -4.558   3.940  0.00  0.00    +0.164 C 
ATOM      9  C   UNL     1      -0.027  -4.136   2.487  0.00  0.00    +0.232 C 
ATOM     10  O   UNL     1      -0.114  -4.895   1.546  0.00  0.00    -0.274 OA
BRANCH   5  16
ATOM     11  C   UNL     1      -0.048   1.502   0.010  0.00  0.00    +0.044 C 
ATOM     12  C   UNL     1      -0.012  -0.004   0.002  0.00  0.00    -0.048 A 
ATOM     13  C   UNL     1       0.006  -0.688  -1.200  0.00  0.00    +0.006 A 
ATOM     14  C   UNL     1       0.039  -2.071  -1.212  0.00  0.00    -0.048 A 
ATOM     15  C   UNL     1       0.055  -2.773  -0.022  0.00  0.00    +0.027 A 
ATOM     16  C   UNL     1       0.037  -2.089   1.186  0.00  0.00    +0.037 A 
ATOM     17  C   UNL     1       0.009  -0.701   1.195  0.00  0.00    +0.027 A 
ATOM     18  C   UNL     1       0.058  -2.812  -2.524  0.00  0.00    +0.044 C 
ENDBRANCH   5  16
ENDBRANCH   1   8
BRANCH   3  19
ATOM     19  N   UNL     1      -1.924  -7.789   3.880  0.00  0.00    -0.230 N 
ATOM     20  C   UNL     1      -1.835  -9.000   3.295  0.00  0.00    +0.260 C 
ATOM     21  O   UNL     1      -0.908  -9.248   2.548  0.00  0.00    -0.269 OA
ATOM     22  H   UNL     1      -2.663  -7.591   4.476  0.00  0.00    +0.173 HD
BRANCH  20  23
ATOM     23  C   UNL     1      -2.863 -10.025   3.562  0.00  0.00    +0.042 A 
ATOM     24  C   UNL     1      -3.931  -9.741   4.415  0.00  0.00    +0.017 A 
ATOM     25  C   UNL     1      -4.889 -10.699   4.663  0.00  0.00    +0.050 A 
ATOM     26  C   UNL     1      -4.798 -11.950   4.067  0.00  0.00    +0.166 A 
ATOM     27  C   UNL     1      -3.733 -12.241   3.213  0.00  0.00    +0.167 A 
ATOM     28  C   UNL     1      -2.772 -11.281   2.957  0.00  0.00    +0.062 A 
ATOM     29  O   UNL     1      -3.873 -13.522   2.764  0.00  0.00    -0.453 OA
ATOM     30  C   UNL     1      -4.804 -14.146   3.667  0.00  0.00    +0.466 C 
ATOM     31  O   UNL     1      -5.601 -13.048   4.150  0.00  0.00    -0.453 OA
ENDBRANCH  20  23
ENDBRANCH   3  19
TORSDOF 4
