REMARK  Name = ZINC20010093
REMARK  9 active torsions:
REMARK  status: ('A' for Active; 'I' for Inactive)
REMARK    1  A    between atoms: C_1  and  C_2
REMARK    2  A    between atoms: C_4  and  C_19
REMARK    3  A    between atoms: C_6  and  S_9
REMARK    4  A    between atoms: C_7  and  C_8
REMARK    5  A    between atoms: S_9  and  N_12
REMARK    6  A    between atoms: C_15  and  C_18
REMARK    7  A    between atoms: N_21  and  C_22
REMARK    8  A    between atoms: C_27  and  C_28
REMARK    9  A    between atoms: N_30  and  C_31
REMARK                            x       y       z     vdW  Elec       q    Type
REMARK                         _______ _______ _______ _____ _____    ______ ____
ROOT
ATOM      1  C   UNL     1       5.259   2.028  -3.756  0.00  0.00    +0.044 C 
ATOM      2  C   UNL     1       4.008   2.800  -4.088  0.00  0.00    -0.045 A 
ATOM      3  C   UNL     1       3.585   2.895  -5.398  0.00  0.00    +0.016 A 
ATOM      4  C   UNL     1       2.426   3.610  -5.704  0.00  0.00    +0.039 A 
ATOM      5  C   UNL     1       1.702   4.225  -4.681  0.00  0.00    +0.042 A 
ATOM      6  C   UNL     1       2.135   4.122  -3.376  0.00  0.00    +0.109 A 
ATOM      7  C   UNL     1       3.288   3.416  -3.080  0.00  0.00    -0.021 A 
ATOM      8  C   UNL     1       3.760   3.313  -1.652  0.00  0.00    +0.046 C 
ENDROOT
BRANCH   4   9
ATOM      9  C   UNL     1       1.968   3.716  -7.105  0.00  0.00    +0.248 C 
ATOM     10  O   UNL     1       0.958   4.340  -7.369  0.00  0.00    -0.270 OA
ATOM     11  N   UNL     1       2.669   3.122  -8.091  0.00  0.00    -0.281 N 
ATOM     12  H   UNL     1       3.530   2.482  -7.845  0.00  0.00    +0.155 HD
BRANCH  11  13
ATOM     13  C   UNL     1       2.305   3.318  -9.420  0.00  0.00    +0.046 A 
ATOM     14  C   UNL     1       1.636   4.475  -9.797  0.00  0.00    +0.024 A 
ATOM     15  C   UNL     1       1.280   4.669 -11.117  0.00  0.00    +0.002 A 
ATOM     16  C   UNL     1       1.576   3.709 -12.071  0.00  0.00    +0.001 A 
ATOM     17  C   UNL     1       2.235   2.552 -11.714  0.00  0.00    +0.015 A 
ATOM     18  C   UNL     1       2.606   2.344 -10.384  0.00  0.00    +0.058 A 
BRANCH  18  19
ATOM     19  C   UNL     1       3.311   1.108  -9.995  0.00  0.00    +0.246 C 
ATOM     20  O   UNL     1       3.537   0.880  -8.822  0.00  0.00    -0.270 OA
ATOM     21  N   UNL     1       3.703   0.230 -10.940  0.00  0.00    -0.308 N 
ATOM     22  H   UNL     1       3.498   0.436 -12.001  0.00  0.00    +0.149 HD
BRANCH  21  23
ATOM     23  C   UNL     1       4.403  -0.998 -10.554  0.00  0.00    +0.073 C 
ATOM     24  C   UNL     1       5.620  -1.408 -11.384  0.00  0.00    +0.024 C 
ATOM     25  C   UNL     1       4.312  -2.192 -11.506  0.00  0.00    +0.024 C 
ENDBRANCH  21  23
ENDBRANCH  18  19
ENDBRANCH  11  13
ENDBRANCH   4   9
BRANCH   6  26
ATOM     26  S   UNL     1       1.223   4.896  -2.083  0.00  0.00    +0.061 S 
ATOM     27  O   UNL     1       0.128   5.560  -2.700  0.00  0.00    -0.153 OA
ATOM     28  O   UNL     1       2.168   5.580  -1.271  0.00  0.00    -0.153 OA
BRANCH  26  29
ATOM     29  N   UNL     1       0.580   3.691  -1.147  0.00  0.00    -0.177 NA
ATOM     30  C   UNL     1       1.296   3.200   0.038  0.00  0.00    +0.110 C 
ATOM     31  C   UNL     1       1.441   1.679  -0.068  0.00  0.00    +0.020 C 
ATOM     32  C   UNL     1       0.060   1.052  -0.272  0.00  0.00    -0.012 C 
ATOM     33  C   UNL     1      -0.550   1.571  -1.576  0.00  0.00    +0.020 C 
ATOM     34  C   UNL     1      -0.718   3.091  -1.487  0.00  0.00    +0.110 C 
ATOM     35  C   UNL     1       0.197  -0.470  -0.343  0.00  0.00    +0.007 C 
ENDBRANCH  26  29
ENDBRANCH   6  26
TORSDOF 6
