REMARK  Name = ZINC21076856
REMARK  10 active torsions:
REMARK  status: ('A' for Active; 'I' for Inactive)
REMARK    1  A    between atoms: C_1  and  C_2
REMARK    2  A    between atoms: C_2  and  C_3
REMARK    3  A    between atoms: C_3  and  C_5
REMARK    4  A    between atoms: C_3  and  S_6
REMARK    5  A    between atoms: S_6  and  C_7
REMARK    6  A    between atoms: C_13  and  C_15
REMARK    7  A    between atoms: C_15  and  S_16
REMARK    8  A    between atoms: S_16  and  C_17
REMARK    9  A    between atoms: N_22  and  N_23
REMARK   10  A    between atoms: C_24  and  C_25
REMARK                            x       y       z     vdW  Elec       q    Type
REMARK                         _______ _______ _______ _____ _____    ______ ____
ROOT
ATOM      1  C   UNL     1       1.307  -0.409  -0.013  0.00  0.00    +0.211 A 
ATOM      2  N   UNL     1       0.002  -0.004   0.002  0.00  0.00    -0.186 NA
ATOM      3  C   UNL     1      -0.017   1.363   0.009  0.00  0.00    +0.232 A 
ATOM      4  N   UNL     1       1.225   1.785   0.000  0.00  0.00    -0.245 N 
ATOM      5  N   UNL     1       2.063   0.663  -0.014  0.00  0.00    -0.144 NA
ATOM      6  N   UNL     1      -1.150   2.163   0.019  0.00  0.00    -0.205 N 
ATOM      7  H   UNL     1      -2.148   1.702   0.022  0.00  0.00    +0.177 HD
ATOM      8  H   UNL     1       1.439   2.864   0.004  0.00  0.00    +0.192 HD
ENDROOT
BRANCH   6   9
ATOM      9  N   UNL     1      -1.022   3.558   0.026  0.00  0.00    -0.188 NA
ATOM     10  C   UNL     1      -2.083   4.307   0.036  0.00  0.00    +0.139 C 
BRANCH  10  11
ATOM     11  C   UNL     1      -1.949   5.775   0.043  0.00  0.00    +0.013 A 
ATOM     12  C   UNL     1      -3.088   6.584   0.053  0.00  0.00    +0.012 A 
ATOM     13  C   UNL     1      -2.956   7.957   0.060  0.00  0.00    +0.021 A 
ATOM     14  C   UNL     1      -1.697   8.535   0.058  0.00  0.00    +0.042 A 
ATOM     15  C   UNL     1      -0.563   7.740   0.048  0.00  0.00    +0.040 A 
ATOM     16  C   UNL     1      -0.681   6.365   0.046  0.00  0.00    +0.051 A 
ATOM     17 CL   UNL     1       0.741   5.369   0.041  0.00  0.00    -0.083 Cl
ATOM     18 CL   UNL     1      -1.540  10.264   0.068  0.00  0.00    -0.083 Cl
ENDBRANCH  10  11
ENDBRANCH   6   9
BRANCH   1  19
ATOM     19  S   UNL     1       1.874  -2.077  -0.026  0.00  0.00    -0.075 S 
BRANCH  19  20
ATOM     20  C   UNL     1       3.681  -1.926  -0.043  0.00  0.00    +0.173 C 
BRANCH  20  27
ATOM     21  C   UNL     1       7.635  -6.956  -0.107  0.00  0.00    +0.160 A 
ATOM     22  N   UNL     1       6.310  -6.963  -0.094  0.00  0.00    -0.133 NA
ATOM     23  N   UNL     1       5.638  -5.896  -0.076  0.00  0.00    -0.125 NA
ATOM     24  C   UNL     1       6.213  -4.705  -0.082  0.00  0.00    +0.189 A 
ATOM     25  S   UNL     1       7.936  -5.191  -0.101  0.00  0.00    -0.024 S 
ATOM     26  N   UNL     1       5.641  -3.435  -0.070  0.00  0.00    -0.263 N 
ATOM     27  C   UNL     1       4.300  -3.300  -0.056  0.00  0.00    +0.229 C 
ATOM     28  O   UNL     1       3.591  -4.284  -0.054  0.00  0.00    -0.275 OA
ATOM     29  H   UNL     1       6.284  -2.542  -0.071  0.00  0.00    +0.157 HD
BRANCH  21  30
ATOM     30  S   UNL     1       8.775  -8.300  -0.124  0.00  0.00    -0.094 S 
BRANCH  30  31
ATOM     31  C   UNL     1       7.717  -9.773  -0.122  0.00  0.00    +0.050 C 
ATOM     32  C   UNL     1       6.912  -9.825  -1.421  0.00  0.00    +0.019 C 
BRANCH  31  34
ATOM     33  C   UNL     1       9.298 -11.035   1.345  0.00  0.00    +0.005 C 
ATOM     34  C   UNL     1       8.588 -11.026  -0.011  0.00  0.00    +0.011 C 
ENDBRANCH  31  34
ENDBRANCH  30  31
ENDBRANCH  21  30
ENDBRANCH  20  27
ENDBRANCH  19  20
ENDBRANCH   1  19
TORSDOF 8
