REMARK  Name = ZINC01033923
REMARK  8 active torsions:
REMARK  status: ('A' for Active; 'I' for Inactive)
REMARK    1  A    between atoms: C_1  and  C_2
REMARK    2  A    between atoms: C_3  and  C_13
REMARK    3  A    between atoms: C_4  and  C_7
REMARK    4  A    between atoms: N_15  and  C_16
REMARK    5  A    between atoms: C_22  and  N_24
REMARK    6  A    between atoms: C_25  and  C_27
REMARK    7  A    between atoms: C_28  and  C_38
REMARK    8  A    between atoms: C_31  and  C_32
REMARK                            x       y       z     vdW  Elec       q    Type
REMARK                         _______ _______ _______ _____ _____    ______ ____
ROOT
ATOM      1  C   UNL     1       6.351   0.340   1.696  0.00  0.00    +0.093 C 
ATOM      2  C   UNL     1       7.000  -1.044   1.624  0.00  0.00    +0.024 C 
ATOM      3  C   UNL     1       8.440  -0.906   1.126  0.00  0.00    +0.002 C 
ATOM      4  C   UNL     1       9.231  -0.023   2.092  0.00  0.00    +0.002 C 
ATOM      5  C   UNL     1       8.583   1.361   2.165  0.00  0.00    +0.024 C 
ATOM      6  C   UNL     1       7.143   1.224   2.663  0.00  0.00    +0.093 C 
ENDROOT
BRANCH   1   9
ATOM      7  C   UNL     1       3.997  -0.160   1.319  0.00  0.00    +0.250 C 
ATOM      8  O   UNL     1       4.273  -0.464   0.174  0.00  0.00    -0.270 OA
ATOM      9  N   UNL     1       4.972   0.209   2.173  0.00  0.00    -0.307 N 
ATOM     10  H   UNL     1       4.761   0.388   3.103  0.00  0.00    +0.149 HD
BRANCH   7  13
ATOM     11  C   UNL     1       2.490  -2.553   2.801  0.00  0.00    +0.090 C 
ATOM     12  C   UNL     1       1.928  -1.210   2.410  0.00  0.00    +0.147 A 
ATOM     13  C   UNL     1       2.596  -0.195   1.773  0.00  0.00    +0.106 A 
ATOM     14  C   UNL     1       1.562   0.854   1.653  0.00  0.00    +0.126 A 
ATOM     15  N   UNL     1       0.491   0.342   2.205  0.00  0.00    -0.077 NA
ATOM     16  O   UNL     1       0.683  -0.776   2.616  0.00  0.00    -0.359 OA
BRANCH  14  17
ATOM     17  C   UNL     1       1.706   2.197   1.041  0.00  0.00    +0.004 A 
ATOM     18  C   UNL     1       2.864   2.943   1.256  0.00  0.00    +0.010 A 
ATOM     19  C   UNL     1       2.995   4.190   0.679  0.00  0.00    +0.001 A 
ATOM     20  C   UNL     1       1.976   4.704  -0.103  0.00  0.00    +0.000 A 
ATOM     21  C   UNL     1       0.823   3.970  -0.315  0.00  0.00    +0.001 A 
ATOM     22  C   UNL     1       0.683   2.720   0.253  0.00  0.00    +0.010 A 
ENDBRANCH  14  17
ENDBRANCH   7  13
ENDBRANCH   1   9
BRANCH   6  23
ATOM     23  N   UNL     1       6.522   2.549   2.732  0.00  0.00    -0.307 N 
ATOM     24  C   UNL     1       6.741   3.341   3.801  0.00  0.00    +0.250 C 
ATOM     25  O   UNL     1       7.527   2.995   4.663  0.00  0.00    -0.270 OA
ATOM     26  H   UNL     1       5.953   2.857   2.009  0.00  0.00    +0.149 HD
BRANCH  24  27
ATOM     27  C   UNL     1       6.030   4.625   3.924  0.00  0.00    +0.106 A 
ATOM     28  C   UNL     1       6.347   5.836   3.363  0.00  0.00    +0.147 A 
ATOM     29  O   UNL     1       5.408   6.697   3.762  0.00  0.00    -0.359 OA
ATOM     30  N   UNL     1       4.573   6.199   4.476  0.00  0.00    -0.077 NA
ATOM     31  C   UNL     1       4.795   4.925   4.678  0.00  0.00    +0.126 A 
ATOM     32  C   UNL     1       7.524   6.136   2.471  0.00  0.00    +0.090 C 
BRANCH  31  33
ATOM     33  C   UNL     1       3.984   3.986   5.492  0.00  0.00    +0.004 A 
ATOM     34  C   UNL     1       3.740   2.694   5.031  0.00  0.00    +0.010 A 
ATOM     35  C   UNL     1       2.989   1.823   5.795  0.00  0.00    +0.001 A 
ATOM     36  C   UNL     1       2.470   2.234   7.009  0.00  0.00    +0.000 A 
ATOM     37  C   UNL     1       2.705   3.518   7.468  0.00  0.00    +0.001 A 
ATOM     38  C   UNL     1       3.459   4.396   6.716  0.00  0.00    +0.010 A 
ENDBRANCH  31  33
ENDBRANCH  24  27
ENDBRANCH   6  23
TORSDOF 6
