REMARK  Name = ZINC59489626
REMARK  10 active torsions:
REMARK  status: ('A' for Active; 'I' for Inactive)
REMARK    1  A    between atoms: C_1  and  C_2
REMARK    2  A    between atoms: C_2  and  C_4
REMARK    3  A    between atoms: C_2  and  S_12
REMARK    4  A    between atoms: S_12  and  C_13
REMARK    5  A    between atoms: C_18  and  N_22
REMARK    6  A    between atoms: C_23  and  C_25
REMARK    7  A    between atoms: C_28  and  C_31
REMARK    8  A    between atoms: C_31  and  C_32
REMARK    9  A    between atoms: C_31  and  C_33
REMARK   10  A    between atoms: C_31  and  C_34
REMARK                            x       y       z     vdW  Elec       q    Type
REMARK                         _______ _______ _______ _____ _____    ______ ____
ROOT
ATOM      1  C   UNL     1      -2.388  -0.077  -1.510  0.00  0.00    +0.136 A 
ATOM      2  N   UNL     1      -1.799   0.608  -2.463  0.00  0.00    -0.233 NA
ATOM      3  C   UNL     1      -2.433   0.952  -3.607  0.00  0.00    +0.080 A 
ATOM      4  C   UNL     1      -1.918   1.682  -4.704  0.00  0.00    +0.031 A 
ATOM      5  C   UNL     1      -2.690   1.948  -5.791  0.00  0.00    +0.025 A 
ATOM      6  C   UNL     1      -4.012   1.516  -5.870  0.00  0.00    +0.035 A 
ATOM      7  C   UNL     1      -4.553   0.795  -4.812  0.00  0.00    +0.040 A 
ATOM      8  C   UNL     1      -3.776   0.525  -3.715  0.00  0.00    +0.042 A 
ATOM      9  S   UNL     1      -4.024  -0.337  -2.181  0.00  0.00    -0.061 S 
ENDROOT
BRANCH   6  10
ATOM     10  N   UNL     1      -4.786   1.804  -7.001  0.00  0.00    -0.281 N 
ATOM     11  C   UNL     1      -5.696   0.912  -7.440  0.00  0.00    +0.248 C 
ATOM     12  O   UNL     1      -5.906  -0.104  -6.806  0.00  0.00    -0.270 OA
ATOM     13  H   UNL     1      -4.666   2.645  -7.469  0.00  0.00    +0.155 HD
BRANCH  11  14
ATOM     14  C   UNL     1      -6.439   1.170  -8.691  0.00  0.00    +0.037 A 
ATOM     15  C   UNL     1      -6.196   2.333  -9.424  0.00  0.00    +0.013 A 
ATOM     16  C   UNL     1      -6.893   2.567 -10.591  0.00  0.00    +0.005 A 
ATOM     17  C   UNL     1      -7.832   1.653 -11.036  0.00  0.00    -0.042 A 
ATOM     18  C   UNL     1      -8.078   0.498 -10.314  0.00  0.00    +0.005 A 
ATOM     19  C   UNL     1      -7.383   0.248  -9.148  0.00  0.00    +0.013 A 
BRANCH  17  20
ATOM     20  C   UNL     1      -8.590   1.915 -12.311  0.00  0.00    -0.013 C 
ATOM     21  C   UNL     1      -7.604   2.032 -13.476  0.00  0.00    +0.015 C 
ATOM     22  C   UNL     1      -9.558   0.761 -12.576  0.00  0.00    +0.015 C 
ATOM     23  C   UNL     1      -9.377   3.220 -12.177  0.00  0.00    +0.015 C 
ENDBRANCH  17  20
ENDBRANCH  11  14
ENDBRANCH   6  10
BRANCH   1  24
ATOM     24  S   UNL     1      -1.730  -0.611   0.035  0.00  0.00    -0.086 S 
BRANCH  24  26
ATOM     25  C   UNL     1      -0.045   1.543   0.029  0.00  0.00    +0.029 C 
ATOM     26  C   UNL     1      -0.027   0.013   0.026  0.00  0.00    +0.136 C 
BRANCH  26  27
ATOM     27  C   UNL     1       0.697  -0.482   1.252  0.00  0.00    +0.232 C 
ATOM     28  O   UNL     1       0.067  -0.866   2.214  0.00  0.00    -0.274 OA
ATOM     29  N   UNL     1       2.044  -0.500   1.278  0.00  0.00    -0.264 N 
ATOM     30  C   UNL     1       2.711  -0.958   2.408  0.00  0.00    +0.164 A 
ATOM     31  N   UNL     1       2.200  -1.412   3.531  0.00  0.00    -0.233 NA
ATOM     32  C   UNL     1       2.975  -1.813   4.521  0.00  0.00    +0.120 A 
ATOM     33  C   UNL     1       4.315  -1.734   4.326  0.00  0.00    +0.068 A 
ATOM     34  S   UNL     1       4.370  -1.071   2.669  0.00  0.00    -0.061 S 
ATOM     35  H   UNL     1       2.548  -0.194   0.508  0.00  0.00    +0.157 HD
ENDBRANCH  26  27
ENDBRANCH  24  26
ENDBRANCH   1  24
TORSDOF 6
