REMARK  Name = ZINC29778095
REMARK  7 active torsions:
REMARK  status: ('A' for Active; 'I' for Inactive)
REMARK    1  A    between atoms: C_1  and  C_2
REMARK    2  A    between atoms: C_5  and  N_8
REMARK    3  A    between atoms: C_11  and  C_13
REMARK    4  A    between atoms: C_18  and  C_21
REMARK    5  A    between atoms: C_24  and  C_27
REMARK    6  A    between atoms: C_27  and  N_28
REMARK    7  A    between atoms: C_29  and  C_31
REMARK                            x       y       z     vdW  Elec       q    Type
REMARK                         _______ _______ _______ _____ _____    ______ ____
ROOT
ATOM      1  C   UNL     1      -0.842  -7.340  -1.378  0.00  0.00    +0.270 C 
ATOM      2  O   UNL     1      -0.573  -8.471  -1.022  0.00  0.00    -0.268 OA
ATOM      3  N   UNL     1      -1.610  -7.141  -2.468  0.00  0.00    -0.259 N 
ATOM      4  C   UNL     1      -2.094  -8.228  -3.184  0.00  0.00    +0.165 A 
ATOM      5  N   UNL     1      -2.847  -8.246  -4.268  0.00  0.00    -0.225 NA
ATOM      6  C   UNL     1      -3.221  -9.387  -4.827  0.00  0.00    +0.080 A 
ATOM      7  C   UNL     1      -2.819 -10.570  -4.271  0.00  0.00    +0.076 A 
ATOM      8  S   UNL     1      -1.855  -9.975  -2.887  0.00  0.00    -0.060 S 
ATOM      9  H   UNL     1      -1.824  -6.239  -2.752  0.00  0.00    +0.157 HD
ENDROOT
BRANCH   1  13
ATOM     10  N   UNL     1       0.057  -4.172  -0.021  0.00  0.00    -0.236 N 
ATOM     11  C   UNL     1       0.707  -4.948   0.888  0.00  0.00    +0.049 A 
ATOM     12  C   UNL     1       0.484  -6.234   0.540  0.00  0.00    +0.006 A 
ATOM     13  C   UNL     1      -0.328  -6.185  -0.617  0.00  0.00    +0.151 A 
ATOM     14  N   UNL     1      -0.542  -4.911  -0.884  0.00  0.00    -0.161 NA
ATOM     15  C   UNL     1       1.175  -7.169   1.503  0.00  0.00    +0.040 C 
ATOM     16  C   UNL     1       2.206  -6.289   2.244  0.00  0.00    +0.011 C 
ATOM     17  C   UNL     1       1.574  -4.885   2.126  0.00  0.00    +0.056 C 
BRANCH  10  22
ATOM     18  C   UNL     1      -0.018   1.503   0.010  0.00  0.00    +0.044 C 
ATOM     19  C   UNL     1       0.002  -0.004   0.002  0.00  0.00    -0.050 A 
ATOM     20  C   UNL     1       0.006  -0.687  -1.200  0.00  0.00    +0.005 A 
ATOM     21  C   UNL     1       0.024  -2.068  -1.211  0.00  0.00    +0.028 A 
ATOM     22  C   UNL     1       0.039  -2.771  -0.013  0.00  0.00    +0.066 A 
ATOM     23  C   UNL     1       0.036  -2.082   1.192  0.00  0.00    +0.028 A 
ATOM     24  C   UNL     1       0.023  -0.700   1.197  0.00  0.00    +0.005 A 
ENDBRANCH  10  22
ENDBRANCH   1  13
BRANCH   6  25
ATOM     25  C   UNL     1      -4.068  -9.382  -6.044  0.00  0.00    +0.001 A 
ATOM     26  C   UNL     1      -4.464 -10.585  -6.626  0.00  0.00    +0.010 A 
ATOM     27  C   UNL     1      -5.253 -10.574  -7.758  0.00  0.00    +0.006 A 
ATOM     28  C   UNL     1      -5.649  -9.372  -8.317  0.00  0.00    -0.030 A 
ATOM     29  C   UNL     1      -5.259  -8.175  -7.744  0.00  0.00    +0.006 A 
ATOM     30  C   UNL     1      -4.475  -8.174  -6.608  0.00  0.00    +0.010 A 
BRANCH  28  31
ATOM     31  C   UNL     1      -6.510  -9.367  -9.554  0.00  0.00    +0.139 C 
BRANCH  31  32
ATOM     32  N   UNL     1      -7.923  -9.373  -9.166  0.00  0.00    -0.311 N 
ATOM     33  C   UNL     1      -8.882  -9.370 -10.113  0.00  0.00    +0.210 C 
ATOM     34  O   UNL     1      -8.575  -9.362 -11.286  0.00  0.00    -0.276 OA
ATOM     35  C   UNL     1     -10.335  -9.376  -9.713  0.00  0.00    +0.109 C 
ATOM     36  H   UNL     1      -8.168  -9.380  -8.227  0.00  0.00    +0.149 HD
ENDBRANCH  31  32
ENDBRANCH  28  31
ENDBRANCH   6  25
TORSDOF 5
