REMARK  Name = ZINC12191054
REMARK  10 active torsions:
REMARK  status: ('A' for Active; 'I' for Inactive)
REMARK    1  A    between atoms: C_1  and  C_2
REMARK    2  A    between atoms: C_2  and  C_3
REMARK    3  A    between atoms: C_6  and  C_9
REMARK    4  A    between atoms: C_9  and  N_71
REMARK    5  A    between atoms: C_11  and  N_31
REMARK    6  A    between atoms: C_14  and  C_16
REMARK    7  A    between atoms: N_21  and  C_24
REMARK    8  A    between atoms: C_33  and  C_36
REMARK    9  A    between atoms: C_36  and  O_38
REMARK   10  A    between atoms: O_38  and  C_39
REMARK                            x       y       z     vdW  Elec       q    Type
REMARK                         _______ _______ _______ _____ _____    ______ ____
ROOT
ATOM      1  C   UNL     1      -0.206   6.565  -4.816  0.00  0.00    -0.050 C 
ATOM      2  C   UNL     1      -0.792   5.153  -5.003  0.00  0.00    +0.091 C 
ATOM      3  C   UNL     1      -0.403   4.382  -3.720  0.00  0.00    +0.019 C 
ATOM      4  C   UNL     1      -0.149   5.517  -2.697  0.00  0.00    +0.022 C 
ATOM      5  N   UNL     1       0.488   6.549  -3.523  0.00  0.00    +0.391 N 
ATOM      6  H   UNL     1       1.478   6.318  -3.664  0.00  0.00    -0.080 HD
ENDROOT
BRANCH   4   7
ATOM      7  C   UNL     1       0.777   5.050  -1.603  0.00  0.00    +0.202 C 
ATOM      8  O   UNL     1       1.966   5.273  -1.679  0.00  0.00    -0.277 OA
ATOM      9  N   UNL     1       0.282   4.385  -0.540  0.00  0.00    -0.300 N 
ATOM     10  C   UNL     1       1.178   3.827   0.484  0.00  0.00    +0.126 C 
ATOM     11  C   UNL     1       0.812   2.354   0.700  0.00  0.00    +0.124 C 
ATOM     12  N   UNL     1      -0.621   2.248   1.004  0.00  0.00    -0.327 N 
ATOM     13  C   UNL     1      -1.440   2.711  -0.125  0.00  0.00    +0.124 C 
ATOM     14  C   UNL     1      -1.167   4.198  -0.374  0.00  0.00    +0.126 C 
BRANCH  12  15
ATOM     15  C   UNL     1      -0.961   0.942   1.367  0.00  0.00    +0.030 A 
ATOM     16  C   UNL     1       0.013  -0.048   1.397  0.00  0.00    +0.026 A 
ATOM     17  C   UNL     1      -0.324  -1.337   1.761  0.00  0.00    +0.040 A 
ATOM     18  C   UNL     1      -1.634  -1.645   2.087  0.00  0.00    +0.124 A 
ATOM     19  C   UNL     1      -2.608  -0.661   2.053  0.00  0.00    +0.040 A 
ATOM     20  C   UNL     1      -2.275   0.630   1.694  0.00  0.00    +0.026 A 
ATOM     21  F   UNL     1      -1.963  -2.907   2.438  0.00  0.00    -0.205 F 
ENDBRANCH  12  15
ENDBRANCH   4   7
BRANCH   2  22
ATOM     22  N   UNL     1      -2.249   5.220  -5.133  0.00  0.00    -0.250 N 
ATOM     23  C   UNL     1      -3.071   6.095  -4.521  0.00  0.00    +0.145 A 
ATOM     24  C   UNL     1      -4.341   5.798  -4.930  0.00  0.00    +0.189 A 
ATOM     25  N   UNL     1      -4.283   4.751  -5.771  0.00  0.00    -0.123 NA
ATOM     26  N   UNL     1      -3.058   4.382  -5.914  0.00  0.00    -0.065 NA
BRANCH  24  27
ATOM     27  C   UNL     1      -5.567   6.503  -4.515  0.00  0.00    +0.361 C 
ATOM     28  O   UNL     1      -5.498   7.441  -3.746  0.00  0.00    -0.243 OA
BRANCH  27  29
ATOM     29  O   UNL     1      -6.765   6.107  -4.989  0.00  0.00    -0.463 OA
ATOM     30  C   UNL     1      -7.930   6.847  -4.537  0.00  0.00    +0.280 C 
ENDBRANCH  27  29
ENDBRANCH  24  27
ENDBRANCH   2  22
BRANCH   5  31
ATOM     31  C   UNL     1       0.386   7.886  -2.865  0.00  0.00    -0.042 C 
BRANCH  31  35
ATOM     32  C   UNL     1       2.849  10.709  -4.918  0.00  0.00    -0.048 A 
ATOM     33  C   UNL     1       1.534  10.530  -5.304  0.00  0.00    +0.004 A 
ATOM     34  C   UNL     1       0.737   9.616  -4.640  0.00  0.00    +0.002 A 
ATOM     35  C   UNL     1       1.255   8.882  -3.590  0.00  0.00    -0.064 A 
ATOM     36  C   UNL     1       2.568   9.066  -3.200  0.00  0.00    +0.002 A 
ATOM     37  C   UNL     1       3.367   9.975  -3.867  0.00  0.00    +0.004 A 
BRANCH  32  39
ATOM     38  C   UNL     1       3.600  13.072  -4.964  0.00  0.00    +0.009 C 
ATOM     39  C   UNL     1       3.718  11.705  -5.642  0.00  0.00    +0.032 C 
ENDBRANCH  32  39
ENDBRANCH  31  35
ENDBRANCH   5  31
TORSDOF 8
