REMARK  Name = ZINC04163750
REMARK  9 active torsions:
REMARK  status: ('A' for Active; 'I' for Inactive)
REMARK    1  A    between atoms: C_1  and  C_2
REMARK    2  A    between atoms: C_2  and  C_3
REMARK    3  A    between atoms: C_2  and  C_4
REMARK    4  A    between atoms: C_2  and  C_5
REMARK    5  A    between atoms: C_8  and  C_11
REMARK    6  A    between atoms: C_13  and  C_25
REMARK    7  A    between atoms: C_15  and  C_20
REMARK    8  A    between atoms: C_15  and  O_24
REMARK    9  A    between atoms: C_25  and  C_27
REMARK                            x       y       z     vdW  Elec       q    Type
REMARK                         _______ _______ _______ _____ _____    ______ ____
ROOT
ATOM      1  C   UNL     1      -1.209   8.107  -0.547  0.00  0.00    +0.120 C 
ATOM      2  C   UNL     1      -1.737   6.741  -0.098  0.00  0.00    +0.144 C 
ATOM      3  C   UNL     1      -2.227   6.854   1.349  0.00  0.00    +0.243 C 
ATOM      4  N   UNL     1      -1.135   7.371   2.183  0.00  0.00    -0.264 N 
ATOM      5  C   UNL     1      -0.191   8.178   1.676  0.00  0.00    +0.302 C 
ATOM      6  O   UNL     1       0.686   8.586   2.414  0.00  0.00    -0.253 OA
ATOM      7  N   UNL     1      -0.175   8.554   0.389  0.00  0.00    -0.292 N 
ATOM      8  H   UNL     1      -1.095   7.123   3.119  0.00  0.00    +0.153 HD
ATOM      9  H   UNL     1       0.535   9.133   0.071  0.00  0.00    +0.151 HD
ENDROOT
BRANCH   1  13
ATOM     10  C   UNL     1       0.456   7.779  -4.467  0.00  0.00    -0.042 A 
ATOM     11  C   UNL     1      -0.881   8.090  -4.308  0.00  0.00    +0.004 A 
ATOM     12  C   UNL     1      -1.420   8.197  -3.039  0.00  0.00    +0.006 A 
ATOM     13  C   UNL     1      -0.622   7.991  -1.930  0.00  0.00    -0.026 A 
ATOM     14  C   UNL     1       0.717   7.685  -2.089  0.00  0.00    +0.006 A 
ATOM     15  C   UNL     1       1.255   7.574  -3.358  0.00  0.00    +0.004 A 
BRANCH  10  17
ATOM     16  C   UNL     1       0.884   8.995  -6.585  0.00  0.00    +0.015 C 
ATOM     17  C   UNL     1       1.043   7.663  -5.850  0.00  0.00    -0.013 C 
ATOM     18  C   UNL     1       2.529   7.313  -5.746  0.00  0.00    +0.015 C 
ATOM     19  C   UNL     1       0.313   6.563  -6.624  0.00  0.00    +0.015 C 
ENDBRANCH  10  17
ENDBRANCH   1  13
BRANCH   3  20
ATOM     20  C   UNL     1      -3.417   7.814   1.413  0.00  0.00    +0.436 C 
ATOM     21  F   UNL     1      -4.452   7.327   0.607  0.00  0.00    -0.166 F 
ATOM     22  F   UNL     1      -3.863   7.916   2.735  0.00  0.00    -0.166 F 
ATOM     23  F   UNL     1      -3.023   9.075   0.954  0.00  0.00    -0.166 F 
ENDBRANCH   3  20
BRANCH   3  24
ATOM     24  O   UNL     1      -2.626   5.565   1.821  0.00  0.00    -0.364 OA
ATOM     25  H   UNL     1      -2.948   5.562   2.732  0.00  0.00    +0.212 HD
ENDBRANCH   3  24
BRANCH   2  26
ATOM     26  C   UNL     1      -0.631   5.720  -0.180  0.00  0.00    +0.173 C 
ATOM     27  O   UNL     1       0.510   6.040   0.076  0.00  0.00    -0.292 OA
BRANCH  26  28
ATOM     28  C   UNL     1      -0.937   4.335  -0.570  0.00  0.00    +0.018 A 
ATOM     29  C   UNL     1       0.087   3.384  -0.647  0.00  0.00    +0.013 A 
ATOM     30  C   UNL     1      -0.207   2.088  -1.014  0.00  0.00    +0.020 A 
ATOM     31  C   UNL     1      -1.512   1.727  -1.307  0.00  0.00    +0.041 A 
ATOM     32  C   UNL     1      -2.530   2.664  -1.238  0.00  0.00    +0.020 A 
ATOM     33  C   UNL     1      -2.252   3.962  -0.867  0.00  0.00    +0.013 A 
ATOM     34 CL   UNL     1      -1.873   0.092  -1.769  0.00  0.00    -0.084 Cl
ENDBRANCH  26  28
ENDBRANCH   2  26
TORSDOF 6
