REMARK  Name = ZINC50650660
REMARK  4 active torsions:
REMARK  status: ('A' for Active; 'I' for Inactive)
REMARK    1  A    between atoms: C_4  and  N_20
REMARK    2  A    between atoms: C_6  and  S_7
REMARK    3  A    between atoms: S_7  and  N_10
REMARK    4  A    between atoms: N_10  and  C_11
REMARK                            x       y       z     vdW  Elec       q    Type
REMARK                         _______ _______ _______ _____ _____    ______ ____
ROOT
ATOM      1  S   UNL     1      -1.416  -1.036   0.000  0.00  0.00    +0.092 S 
ATOM      2  O   UNL     1      -1.062  -2.345   0.427  0.00  0.00    -0.148 OA
ATOM      3  O   UNL     1      -2.385  -0.250   0.680  0.00  0.00    -0.148 OA
ENDROOT
BRANCH   1   9
ATOM      4  C   UNL     1       0.038   1.289   0.091  0.00  0.00    +0.046 A 
ATOM      5  C   UNL     1       1.222   1.999   0.070  0.00  0.00    +0.086 A 
ATOM      6  N   UNL     1       2.381   1.379  -0.054  0.00  0.00    -0.350 N 
ATOM      7  C   UNL     1       2.455   0.061  -0.165  0.00  0.00    +0.095 A 
ATOM      8  C   UNL     1       1.301  -0.716  -0.152  0.00  0.00    +0.070 A 
ATOM      9  C   UNL     1       0.072  -0.094  -0.022  0.00  0.00    +0.115 A 
ATOM     10  H   UNL     1       3.198   1.901  -0.066  0.00  0.00    +0.166 HD
BRANCH   7  11
ATOM     11  N   UNL     1       3.696  -0.550  -0.294  0.00  0.00    -0.345 N 
ATOM     12  H   UNL     1       4.503  -0.013  -0.304  0.00  0.00    +0.144 HD
ATOM     13  H   UNL     1       3.755  -1.515  -0.376  0.00  0.00    +0.144 HD
ENDBRANCH   7  11
ENDBRANCH   1   9
BRANCH   1  14
ATOM     14  N   UNL     1      -1.933  -1.173  -1.567  0.00  0.00    -0.096 NA
BRANCH  14  15
ATOM     15  C   UNL     1      -3.039  -1.972  -1.872  0.00  0.00    +0.102 A 
ATOM     16  C   UNL     1      -4.314  -1.569  -1.494  0.00  0.00    +0.044 A 
ATOM     17  C   UNL     1      -5.406  -2.361  -1.796  0.00  0.00    +0.032 A 
ATOM     18  C   UNL     1      -5.230  -3.554  -2.475  0.00  0.00    +0.020 A 
ATOM     19  C   UNL     1      -3.962  -3.958  -2.853  0.00  0.00    +0.032 A 
ATOM     20  C   UNL     1      -2.867  -3.167  -2.558  0.00  0.00    +0.044 A 
ATOM     21 BR   UNL     1      -1.135  -3.717  -3.081  0.00  0.00    -0.048 Br
ATOM     22 BR   UNL     1      -6.726  -4.634  -2.887  0.00  0.00    -0.050 Br
ATOM     23 BR   UNL     1      -4.555   0.060  -0.565  0.00  0.00    -0.048 Br
ENDBRANCH  14  15
ENDBRANCH   1  14
TORSDOF 4
