REMARK  Name = ZINC33255654
REMARK  6 active torsions:
REMARK  status: ('A' for Active; 'I' for Inactive)
REMARK    1  A    between atoms: C_1  and  C_2
REMARK    2  A    between atoms: C_5  and  N_9
REMARK    3  A    between atoms: C_7  and  C_8
REMARK    4  A    between atoms: C_10  and  C_12
REMARK    5  A    between atoms: C_24  and  S_29
REMARK    6  A    between atoms: S_29  and  N_32
REMARK                            x       y       z     vdW  Elec       q    Type
REMARK                         _______ _______ _______ _____ _____    ______ ____
ROOT
ATOM      1  C   UNL     1      -3.641  -0.567  -0.127  0.00  0.00    +0.093 C 
ATOM      2  C   UNL     1      -3.753  -1.567   1.026  0.00  0.00    +0.016 C 
ATOM      3  C   UNL     1      -2.528  -2.486   1.015  0.00  0.00    +0.020 C 
ATOM      4  C   UNL     1      -1.259  -1.638   1.125  0.00  0.00    +0.106 C 
ATOM      5  N   UNL     1      -1.198  -0.697  -0.002  0.00  0.00    -0.314 N 
ATOM      6  C   UNL     1      -2.340   0.226   0.016  0.00  0.00    +0.119 C 
ATOM      7  C   UNL     1       0.002  -0.003  -0.005  0.00  0.00    +0.122 A 
ATOM      8  C   UNL     1       1.208  -0.720  -0.028  0.00  0.00    +0.044 A 
ATOM      9  C   UNL     1       2.394  -0.052  -0.032  0.00  0.00    +0.013 A 
ATOM     10  C   UNL     1       2.368   1.358  -0.014  0.00  0.00    +0.002 A 
ATOM     11  C   UNL     1       3.554   2.109  -0.018  0.00  0.00    +0.038 A 
ATOM     12  C   UNL     1       3.489   3.469   0.000  0.00  0.00    +0.106 A 
ATOM     13  C   UNL     1       2.261   4.126   0.021  0.00  0.00    +0.030 A 
ATOM     14  C   UNL     1       1.092   3.429   0.026  0.00  0.00    +0.030 A 
ATOM     15  C   UNL     1       1.118   2.023   0.008  0.00  0.00    +0.073 A 
ATOM     16  N   UNL     1      -0.016   1.314   0.011  0.00  0.00    -0.232 NA
ENDROOT
BRANCH   1  18
ATOM     17  N   UNL     1      -6.069  -0.099  -0.192  0.00  0.00    -0.285 N 
ATOM     18  C   UNL     1      -4.814   0.380  -0.087  0.00  0.00    +0.222 C 
ATOM     19  O   UNL     1      -4.627   1.571   0.039  0.00  0.00    -0.275 OA
ATOM     20  H   UNL     1      -6.236  -1.169  -0.383  0.00  0.00    +0.155 HD
BRANCH  17  25
ATOM     21  C   UNL     1     -10.495   3.409   0.350  0.00  0.00    +0.044 C 
ATOM     22  C   UNL     1      -9.319   2.477   0.206  0.00  0.00    -0.047 A 
ATOM     23  C   UNL     1      -8.156   2.922  -0.396  0.00  0.00    +0.005 A 
ATOM     24  C   UNL     1      -7.077   2.070  -0.530  0.00  0.00    +0.023 A 
ATOM     25  C   UNL     1      -7.161   0.766  -0.058  0.00  0.00    +0.034 A 
ATOM     26  C   UNL     1      -8.332   0.322   0.541  0.00  0.00    +0.027 A 
ATOM     27  C   UNL     1      -9.406   1.180   0.676  0.00  0.00    -0.046 A 
ATOM     28  C   UNL     1     -10.675   0.700   1.331  0.00  0.00    +0.044 C 
ENDBRANCH  17  25
ENDBRANCH   1  18
BRANCH  12  29
ATOM     29  S   UNL     1       4.979   4.410  -0.005  0.00  0.00    +0.061 S 
ATOM     30  O   UNL     1       4.664   5.673   0.565  0.00  0.00    -0.153 OA
ATOM     31  O   UNL     1       5.994   3.567   0.524  0.00  0.00    -0.153 OA
BRANCH  29  32
ATOM     32  N   UNL     1       5.375   4.691  -1.588  0.00  0.00    -0.177 NA
ATOM     33  C   UNL     1       6.234   3.753  -2.323  0.00  0.00    +0.109 C 
ATOM     34  C   UNL     1       5.513   3.339  -3.615  0.00  0.00    +0.017 C 
ATOM     35  C   UNL     1       5.134   4.594  -4.405  0.00  0.00    +0.003 C 
ATOM     36  C   UNL     1       4.178   5.452  -3.573  0.00  0.00    +0.017 C 
ATOM     37  C   UNL     1       4.879   5.887  -2.283  0.00  0.00    +0.109 C 
ENDBRANCH  29  32
ENDBRANCH  12  29
TORSDOF 4
