REMARK  Name = ZINC15946704
REMARK  10 active torsions:
REMARK  status: ('A' for Active; 'I' for Inactive)
REMARK    1  A    between atoms: C_1  and  C_2
REMARK    2  A    between atoms: C_2  and  C_3
REMARK    3  A    between atoms: C_2  and  C_4
REMARK    4  A    between atoms: C_2  and  C_5
REMARK    5  A    between atoms: C_12  and  N_26
REMARK    6  A    between atoms: C_13  and  C_14
REMARK    7  A    between atoms: N_16  and  C_17
REMARK    8  A    between atoms: C_21  and  N_23
REMARK    9  A    between atoms: C_27  and  C_29
REMARK   10  A    between atoms: C_29  and  N_66
REMARK                            x       y       z     vdW  Elec       q    Type
REMARK                         _______ _______ _______ _____ _____    ______ ____
ROOT
ATOM      1  C   UNL     1      -1.021  10.029   3.181  0.00  0.00    -0.000 C 
ATOM      2  C   UNL     1      -1.851   8.758   3.383  0.00  0.00    +0.009 C 
ATOM      3  C   UNL     1      -1.349   7.655   2.448  0.00  0.00    +0.037 C 
ATOM      4  C   UNL     1      -1.306   8.200   1.026  0.00  0.00    -0.023 A 
ATOM      5  C   UNL     1      -1.312   9.530   0.790  0.00  0.00    -0.004 A 
ATOM      6  S   UNL     1      -1.254   9.677  -0.973  0.00  0.00    -0.077 S 
ATOM      7  C   UNL     1      -1.215   7.997  -1.393  0.00  0.00    +0.084 A 
ATOM      8  C   UNL     1      -1.256   7.362  -0.160  0.00  0.00    +0.069 A 
ATOM      9  C   UNL     1      -1.359  10.628   1.808  0.00  0.00    +0.046 C 
ENDROOT
BRANCH   1  11
ATOM     10  C   UNL     1      -1.035  10.434   5.646  0.00  0.00    +0.011 C 
ATOM     11  C   UNL     1      -1.357  11.040   4.279  0.00  0.00    -0.035 C 
ATOM     12  C   UNL     1      -0.527  12.309   4.075  0.00  0.00    +0.011 C 
ATOM     13  C   UNL     1      -2.845  11.389   4.213  0.00  0.00    +0.011 C 
ENDBRANCH   1  11
BRANCH   8  14
ATOM     14  C   UNL     1      -1.242   5.899  -0.057  0.00  0.00    +0.251 C 
ATOM     15  O   UNL     1      -2.290   5.280  -0.050  0.00  0.00    -0.270 OA
ATOM     16  N   UNL     1      -0.069   5.241   0.030  0.00  0.00    -0.281 N 
ATOM     17  H   UNL     1       0.761   5.737   0.102  0.00  0.00    +0.155 HD
BRANCH  16  18
ATOM     18  C   UNL     1      -0.050   3.842   0.017  0.00  0.00    +0.036 A 
ATOM     19  C   UNL     1      -0.988   3.140  -0.728  0.00  0.00    +0.023 A 
ATOM     20  C   UNL     1      -0.963   1.760  -0.743  0.00  0.00    +0.004 A 
ATOM     21  C   UNL     1      -0.011   1.076  -0.009  0.00  0.00    +0.033 A 
ATOM     22  C   UNL     1       0.925   1.772   0.734  0.00  0.00    +0.128 A 
ATOM     23  C   UNL     1       0.908   3.153   0.749  0.00  0.00    +0.056 A 
BRANCH  22  24
ATOM     24  N   UNL     1       1.946   1.036   1.513  0.00  0.00    +0.056 N 
ATOM     25  O   UNL     1       1.962  -0.182   1.500  0.00  0.00    -0.126 OA
ATOM     26  O   UNL     1       2.771   1.649   2.167  0.00  0.00    -0.126 OA
ENDBRANCH  22  24
ENDBRANCH  16  18
ENDBRANCH   8  14
BRANCH   7  27
ATOM     27  N   UNL     1      -1.159   7.425  -2.655  0.00  0.00    -0.281 N 
ATOM     28  C   UNL     1      -1.126   8.211  -3.750  0.00  0.00    +0.201 C 
ATOM     29  O   UNL     1      -1.145   9.417  -3.631  0.00  0.00    -0.278 OA
ATOM     30  H   UNL     1      -1.143   6.460  -2.750  0.00  0.00    +0.155 HD
BRANCH  28  31
ATOM     31  C   UNL     1      -1.065   7.589  -5.121  0.00  0.00    +0.019 C 
BRANCH  31  36
ATOM     32  C   UNL     1       0.042   9.630  -5.857  0.00  0.00    -0.078 C 
ATOM     33  C   UNL     1       0.265  10.315  -7.228  0.00  0.00    -0.020 C 
ATOM     34  C   UNL     1       0.090   9.150  -8.229  0.00  0.00    -0.020 C 
ATOM     35  C   UNL     1      -0.739   8.093  -7.476  0.00  0.00    -0.078 C 
ATOM     36  N   UNL     1      -1.026   8.663  -6.159  0.00  0.00    +0.385 N 
ATOM     37  H   UNL     1      -1.933   9.144  -6.179  0.00  0.00    -0.081 HD
ENDBRANCH  31  36
ENDBRANCH  28  31
ENDBRANCH   7  27
TORSDOF 7
