REMARK  Name = ZINC02946107
REMARK  16 active torsions:
REMARK  status: ('A' for Active; 'I' for Inactive)
REMARK    1  A    between atoms: C_1  and  C_2
REMARK    2  A    between atoms: C_6  and  O_39
REMARK    3  A    between atoms: C_7  and  O_37
REMARK    4  A    between atoms: N_12  and  C_13
REMARK    5  A    between atoms: C_13  and  C_14
REMARK    6  A    between atoms: C_16  and  C_22
REMARK    7  A    between atoms: C_19  and  O_20
REMARK    8  A    between atoms: O_20  and  C_21
REMARK    9  A    between atoms: N_23  and  N_24
REMARK   10  A    between atoms: C_25  and  C_27
REMARK   11  A    between atoms: C_29  and  C_33
REMARK   12  A    between atoms: C_33  and  C_34
REMARK   13  A    between atoms: C_33  and  C_35
REMARK   14  A    between atoms: C_33  and  C_36
REMARK   15  A    between atoms: O_37  and  C_38
REMARK   16  A    between atoms: O_39  and  C_40
REMARK                            x       y       z     vdW  Elec       q    Type
REMARK                         _______ _______ _______ _____ _____    ______ ____
ROOT
ATOM      1  C   UNL     1      -0.718   1.572   1.248  0.00  0.00    -0.022 A 
ATOM      2  C   UNL     1      -0.234   2.667   1.931  0.00  0.00    +0.014 A 
ATOM      3  C   UNL     1      -0.888   3.116   3.080  0.00  0.00    -0.005 A 
ATOM      4  C   UNL     1      -2.033   2.453   3.532  0.00  0.00    +0.013 A 
ATOM      5  C   UNL     1      -2.510   1.359   2.843  0.00  0.00    +0.046 A 
ATOM      6  C   UNL     1      -1.859   0.919   1.698  0.00  0.00    +0.121 A 
ENDROOT
BRANCH   6   7
ATOM      7  O   UNL     1      -2.336  -0.156   1.018  0.00  0.00    -0.495 OA
ATOM      8  C   UNL     1      -3.513  -0.780   1.535  0.00  0.00    +0.277 C 
ENDBRANCH   6   7
BRANCH   3   9
ATOM      9  C   UNL     1      -0.374   4.286   3.814  0.00  0.00    +0.138 C 
ATOM     10  N   UNL     1      -0.984   4.703   4.882  0.00  0.00    -0.187 NA
BRANCH  10  11
ATOM     11  N   UNL     1      -0.495   5.815   5.580  0.00  0.00    -0.202 N 
ATOM     12  C   UNL     1      -1.128   6.247   6.688  0.00  0.00    +0.283 C 
ATOM     13  O   UNL     1      -2.124   5.671   7.083  0.00  0.00    -0.267 OA
ATOM     14  H   UNL     1       0.406   6.335   5.223  0.00  0.00    +0.178 HD
BRANCH  12  15
ATOM     15  C   UNL     1      -0.614   7.415   7.421  0.00  0.00    +0.149 A 
ATOM     16  C   UNL     1      -1.153   7.981   8.563  0.00  0.00    +0.058 A 
ATOM     17  C   UNL     1      -0.316   9.056   8.873  0.00  0.00    +0.042 A 
ATOM     18  N   UNL     1       0.632   9.099   7.971  0.00  0.00    -0.280 N 
ATOM     19  N   UNL     1       0.489   8.157   7.110  0.00  0.00    -0.169 NA
ATOM     20  H   UNL     1       1.407   9.878   8.025  0.00  0.00    +0.189 HD
BRANCH  17  21
ATOM     21  C   UNL     1      -0.474   9.996  10.039  0.00  0.00    +0.004 C 
ATOM     22  C   UNL     1      -0.039   9.291  11.326  0.00  0.00    +0.017 C 
ATOM     23  C   UNL     1       0.396  11.235   9.818  0.00  0.00    +0.017 C 
ATOM     24  C   UNL     1      -1.940  10.418  10.160  0.00  0.00    +0.017 C 
ENDBRANCH  17  21
ENDBRANCH  12  15
ENDBRANCH  10  11
ENDBRANCH   3   9
BRANCH   1  25
ATOM     25  C   UNL     1      -0.013   1.086   0.008  0.00  0.00    -0.038 C 
BRANCH  25  36
ATOM     26  C   UNL     1      -0.453  -0.558  -2.349  0.00  0.00    -0.008 C 
ATOM     27  C   UNL     1      -0.196   0.949  -2.400  0.00  0.00    -0.040 C 
ATOM     28  C   UNL     1      -0.865   1.527  -3.620  0.00  0.00    -0.054 A 
ATOM     29  C   UNL     1      -0.776   0.825  -4.814  0.00  0.00    +0.051 A 
ATOM     30  C   UNL     1      -1.367   1.320  -5.963  0.00  0.00    +0.162 A 
ATOM     31  C   UNL     1      -2.055   2.529  -5.919  0.00  0.00    +0.162 A 
ATOM     32  C   UNL     1      -2.143   3.224  -4.726  0.00  0.00    +0.053 A 
ATOM     33  C   UNL     1      -1.550   2.722  -3.576  0.00  0.00    -0.044 A 
ATOM     34  C   UNL     1      -1.678   3.514  -2.300  0.00  0.00    +0.017 C 
ATOM     35  C   UNL     1      -0.640   3.038  -1.284  0.00  0.00    -0.073 C 
ATOM     36  N   UNL     1      -0.723   1.572  -1.182  0.00  0.00    +0.387 N 
ATOM     37  H   UNL     1      -1.781   1.288  -1.079  0.00  0.00    -0.080 HD
BRANCH  31  38
ATOM     38  O   UNL     1      -2.638   3.025  -7.043  0.00  0.00    -0.491 OA
ATOM     39  C   UNL     1      -3.327   4.271  -6.921  0.00  0.00    +0.277 C 
ENDBRANCH  31  38
BRANCH  30  40
ATOM     40  O   UNL     1      -1.276   0.628  -7.130  0.00  0.00    -0.491 OA
ATOM     41  C   UNL     1      -0.554  -0.605  -7.099  0.00  0.00    +0.277 C 
ENDBRANCH  30  40
ENDBRANCH  25  36
ENDBRANCH   1  25
TORSDOF 9
