REMARK  Name = ZINC43553351
REMARK  11 active torsions:
REMARK  status: ('A' for Active; 'I' for Inactive)
REMARK    1  A    between atoms: C_1  and  C_2
REMARK    2  A    between atoms: C_5  and  O_39
REMARK    3  A    between atoms: C_7  and  C_36
REMARK    4  A    between atoms: C_7  and  C_37
REMARK    5  A    between atoms: C_17  and  C_19
REMARK    6  A    between atoms: C_26  and  C_28
REMARK    7  A    between atoms: C_28  and  C_29
REMARK    8  A    between atoms: N_31  and  C_32
REMARK    9  A    between atoms: N_31  and  C_33
REMARK   10  A    between atoms: C_33  and  C_34
REMARK   11  A    between atoms: C_37  and  O_38
REMARK                            x       y       z     vdW  Elec       q    Type
REMARK                         _______ _______ _______ _____ _____    ______ ____
ROOT
ATOM      1  C   UNL     1       0.115   1.506  -0.019  0.00  0.00    +0.012 C 
ATOM      2  C   UNL     1       0.116  -0.030  -0.009  0.00  0.00    -0.019 C 
ATOM      3  C   UNL     1      -1.326  -0.518   0.066  0.00  0.00    +0.010 C 
ATOM      4  C   UNL     1      -1.978   0.040   1.332  0.00  0.00    +0.032 C 
ATOM      5  C   UNL     1      -1.233  -0.381   2.585  0.00  0.00    +0.123 C 
ATOM      6  C   UNL     1       0.273  -0.193   2.529  0.00  0.00    +0.021 C 
ATOM      7  C   UNL     1       0.890  -0.577   1.185  0.00  0.00    +0.011 C 
ATOM      8  C   UNL     1       0.940  -2.117   1.138  0.00  0.00    +0.049 C 
ATOM      9  C   UNL     1       1.030  -2.629  -0.253  0.00  0.00    +0.015 A 
ATOM     10  C   UNL     1       0.940  -1.924  -1.408  0.00  0.00    +0.058 A 
ATOM     11  N   UNL     1       1.026  -2.644  -2.521  0.00  0.00    -0.229 NA
ATOM     12  C   UNL     1       1.209  -3.946  -2.489  0.00  0.00    +0.165 A 
ATOM     13  S   UNL     1       1.278  -4.284  -0.839  0.00  0.00    -0.057 S 
ATOM     14  N   UNL     1       1.320  -4.828  -3.556  0.00  0.00    -0.261 N 
ATOM     15  C   UNL     1       1.507  -6.143  -3.327  0.00  0.00    +0.250 C 
ATOM     16  O   UNL     1       1.579  -6.557  -2.186  0.00  0.00    -0.270 OA
ATOM     17  C   UNL     1       0.784  -0.420  -1.332  0.00  0.00    +0.054 C 
ATOM     18  C   UNL     1       0.645   1.236   2.946  0.00  0.00    +0.016 C 
ATOM     19  H   UNL     1       1.262  -4.497  -4.466  0.00  0.00    +0.157 HD
ENDROOT
BRANCH  15  20
ATOM     20  C   UNL     1       1.625  -7.080  -4.462  0.00  0.00    +0.037 A 
ATOM     21  C   UNL     1       1.548  -6.606  -5.774  0.00  0.00    +0.016 A 
ATOM     22  C   UNL     1       1.659  -7.486  -6.829  0.00  0.00    +0.039 A 
ATOM     23  C   UNL     1       1.846  -8.839  -6.591  0.00  0.00    +0.123 A 
ATOM     24  C   UNL     1       1.923  -9.315  -5.290  0.00  0.00    +0.039 A 
ATOM     25  C   UNL     1       1.819  -8.444  -4.228  0.00  0.00    +0.016 A 
ATOM     26  F   UNL     1       1.954  -9.697  -7.629  0.00  0.00    -0.205 F 
ENDBRANCH  15  20
BRANCH   5  27
ATOM     27  O   UNL     1      -1.548  -1.742   2.900  0.00  0.00    -0.391 OA
ATOM     28  H   UNL     1      -2.488  -1.901   3.063  0.00  0.00    +0.210 HD
ENDBRANCH   5  27
BRANCH  17  29
ATOM     29  C   UNL     1      -0.024   0.097  -2.519  0.00  0.00    +0.106 C 
BRANCH  29  30
ATOM     30  C   UNL     1       0.720  -0.194  -3.797  0.00  0.00    +0.217 C 
ATOM     31  O   UNL     1       1.792  -0.760  -3.759  0.00  0.00    -0.276 OA
ATOM     32  N   UNL     1       0.194   0.175  -4.981  0.00  0.00    -0.293 N 
ATOM     33  C   UNL     1      -1.101   0.859  -5.027  0.00  0.00    +0.133 C 
BRANCH  32  34
ATOM     34  C   UNL     1       0.917  -0.108  -6.224  0.00  0.00    +0.196 C 
BRANCH  34  35
ATOM     35  C   UNL     1       0.514  -1.429  -6.736  0.00  0.00    -0.086 C 
ATOM     36  C   UNL     1       0.193  -2.482  -7.144  0.00  0.00    +0.005 C 
ENDBRANCH  34  35
ENDBRANCH  32  34
ENDBRANCH  29  30
ENDBRANCH  17  29
BRANCH   6  37
ATOM     37  C   UNL     1       0.885  -1.107   3.623  0.00  0.00    +0.165 C 
BRANCH  37  38
ATOM     38  O   UNL     1       0.376  -0.726   4.902  0.00  0.00    -0.394 OA
ATOM     39  H   UNL     1       0.716  -1.256   5.636  0.00  0.00    +0.209 HD
ENDBRANCH  37  38
ENDBRANCH   6  37
TORSDOF 8
