REMARK  Name = ZINC35702017
REMARK  11 active torsions:
REMARK  status: ('A' for Active; 'I' for Inactive)
REMARK    1  A    between atoms: C_1  and  C_2
REMARK    2  A    between atoms: C_3  and  C_28
REMARK    3  A    between atoms: C_4  and  C_23
REMARK    4  A    between atoms: C_7  and  C_12
REMARK    5  A    between atoms: C_13  and  N_15
REMARK    6  A    between atoms: N_15  and  C_16
REMARK    7  A    between atoms: C_16  and  C_17
REMARK    8  A    between atoms: C_28  and  O_30
REMARK    9  A    between atoms: O_30  and  C_31
REMARK   10  A    between atoms: C_31  and  C_32
REMARK   11  A    between atoms: C_31  and  C_33
REMARK                            x       y       z     vdW  Elec       q    Type
REMARK                         _______ _______ _______ _____ _____    ______ ____
ROOT
ATOM      1  C   UNL     1      -0.046   1.567   0.201  0.00  0.00    +0.066 C 
ATOM      2  C   UNL     1      -0.031   0.060   0.147  0.00  0.00    +0.053 C 
ATOM      3  C   UNL     1      -1.223  -0.638   0.147  0.00  0.00    +0.083 C 
ATOM      4  C   UNL     1      -1.155  -2.148   0.092  0.00  0.00    +0.156 C 
ATOM      5  N   UNL     1       0.198  -2.763   0.042  0.00  0.00    -0.267 N 
ATOM      6  C   UNL     1       0.497  -4.110  -0.013  0.00  0.00    +0.048 C 
ATOM      7  C   UNL     1       1.802  -4.462  -0.053  0.00  0.00    +0.072 C 
ATOM      8  S   UNL     1       2.612  -2.876  -0.013  0.00  0.00    -0.060 S 
ATOM      9  C   UNL     1       1.252  -1.893   0.051  0.00  0.00    +0.166 C 
ATOM     10  N   UNL     1       1.124  -0.583   0.095  0.00  0.00    -0.230 NA
ENDROOT
BRANCH   4  11
ATOM     11  C   UNL     1      -1.915  -2.602  -1.127  0.00  0.00    +0.015 A 
ATOM     12  C   UNL     1      -3.138  -3.182  -1.204  0.00  0.00    +0.013 A 
ATOM     13  C   UNL     1      -3.645  -3.518  -2.445  0.00  0.00    +0.008 A 
ATOM     14  C   UNL     1      -2.904  -3.258  -3.550  0.00  0.00    +0.045 A 
ATOM     15  S   UNL     1      -1.443  -2.509  -2.847  0.00  0.00    -0.099 S 
ENDBRANCH   4  11
BRANCH   6  16
ATOM     16  C   UNL     1      -0.565  -5.126  -0.027  0.00  0.00    +0.091 C 
ATOM     17  C   UNL     1      -0.250  -6.432   0.066  0.00  0.00    +0.239 C 
ATOM     18  O   UNL     1       1.031  -6.804   0.307  0.00  0.00    -0.271 OA
BRANCH  17  19
ATOM     19  N   UNL     1      -1.234  -7.394  -0.084  0.00  0.00    -0.309 N 
ATOM     20  H   UNL     1      -2.151  -7.128  -0.256  0.00  0.00    +0.149 HD
BRANCH  19  21
ATOM     21  C   UNL     1      -0.891  -8.815   0.018  0.00  0.00    +0.136 C 
BRANCH  21  22
ATOM     22  C   UNL     1      -2.151  -9.659  -0.185  0.00  0.00    +0.135 C 
ATOM     23  C   UNL     1      -1.822 -11.151   0.039  0.00  0.00    +0.035 C 
ATOM     24  C   UNL     1      -2.661 -11.844  -1.069  0.00  0.00    +0.031 C 
ATOM     25  C   UNL     1      -2.582 -10.787  -2.200  0.00  0.00    +0.160 C 
ATOM     26  O   UNL     1      -2.621  -9.515  -1.530  0.00  0.00    -0.375 OA
ENDBRANCH  21  22
ENDBRANCH  19  21
ENDBRANCH  17  19
ENDBRANCH   6  16
BRANCH   3  27
ATOM     27  C   UNL     1      -2.453   0.029   0.197  0.00  0.00    +0.339 C 
ATOM     28  O   UNL     1      -2.484   1.247   0.241  0.00  0.00    -0.245 OA
BRANCH  27  29
ATOM     29  O   UNL     1      -3.605  -0.677   0.195  0.00  0.00    -0.459 OA
BRANCH  29  30
ATOM     30  C   UNL     1      -4.823   0.069   0.248  0.00  0.00    +0.171 C 
ATOM     31  C   UNL     1      -5.287   0.387  -1.175  0.00  0.00    +0.052 C 
ATOM     32  C   UNL     1      -5.895  -0.755   0.963  0.00  0.00    +0.052 C 
ENDBRANCH  29  30
ENDBRANCH  27  29
ENDBRANCH   3  27
TORSDOF 8
