REMARK  Name = ZINC50360496
REMARK  3 active torsions:
REMARK  status: ('A' for Active; 'I' for Inactive)
REMARK    1  A    between atoms: C_2  and  C_8
REMARK    2  A    between atoms: C_8  and  N_9
REMARK    3  A    between atoms: N_9  and  C_10
REMARK                            x       y       z     vdW  Elec       q    Type
REMARK                         _______ _______ _______ _____ _____    ______ ____
ROOT
ATOM      1  C   UNL     1       2.330   5.013   1.643  0.00  0.00    +0.044 A 
ATOM      2  C   UNL     1       2.595   5.876   0.589  0.00  0.00    +0.051 A 
ATOM      3  C   UNL     1       3.021   7.169   0.848  0.00  0.00    +0.069 A 
ATOM      4  C   UNL     1       3.182   7.599   2.167  0.00  0.00    +0.068 A 
ATOM      5  C   UNL     1       2.916   6.732   3.216  0.00  0.00    +0.045 A 
ATOM      6  C   UNL     1       2.486   5.446   2.955  0.00  0.00    +0.041 A 
ATOM      7 BR   UNL     1       2.116   4.267   4.387  0.00  0.00    -0.048 Br
ATOM      8  N   UNL     1       3.613   8.925   2.108  0.00  0.00    -0.306 N 
ATOM      9  H   UNL     1       3.811   9.492   2.870  0.00  0.00    +0.170 HD
ATOM     10  C   UNL     1       3.709   9.281   0.814  0.00  0.00    +0.325 A 
ATOM     11  O   UNL     1       4.060  10.376   0.412  0.00  0.00    -0.247 OA
ATOM     12  N   UNL     1       3.359   8.245   0.030  0.00  0.00    -0.306 N 
ATOM     13  H   UNL     1       3.344   8.246  -0.940  0.00  0.00    +0.170 HD
ENDROOT
BRANCH   1  14
ATOM     14  N   UNL     1       1.899   3.707   1.385  0.00  0.00    -0.336 N 
ATOM     15  H   UNL     1       1.710   3.104   2.121  0.00  0.00    +0.147 HD
BRANCH  14  16
ATOM     16  C   UNL     1       1.734   3.250   0.003  0.00  0.00    +0.176 C 
BRANCH  16  18
ATOM     17  C   UNL     1      -0.017   1.410   0.010  0.00  0.00    +0.062 A 
ATOM     18  C   UNL     1       1.265   1.818  -0.000  0.00  0.00    +0.124 A 
ATOM     19  O   UNL     1       2.056   0.732  -0.014  0.00  0.00    -0.450 OA
ATOM     20  C   UNL     1       1.296  -0.376  -0.012  0.00  0.00    +0.184 A 
ATOM     21  C   UNL     1       0.002  -0.004   0.002  0.00  0.00    +0.070 A 
ATOM     22 BR   UNL     1      -1.501  -1.152   0.011  0.00  0.00    -0.046 Br
ATOM     23 BR   UNL     1       1.936  -2.156  -0.029  0.00  0.00    -0.007 Br
ENDBRANCH  16  18
ENDBRANCH  14  16
ENDBRANCH   1  14
TORSDOF 3
