REMARK  Name = ZINC46840244
REMARK  7 active torsions:
REMARK  status: ('A' for Active; 'I' for Inactive)
REMARK    1  A    between atoms: C_1  and  C_2
REMARK    2  A    between atoms: C_3  and  C_7
REMARK    3  A    between atoms: N_9  and  C_10
REMARK    4  A    between atoms: C_12  and  N_17
REMARK    5  A    between atoms: C_18  and  C_20
REMARK    6  A    between atoms: N_26  and  S_27
REMARK    7  A    between atoms: S_27  and  C_30
REMARK                            x       y       z     vdW  Elec       q    Type
REMARK                         _______ _______ _______ _____ _____    ______ ____
ROOT
ATOM      1  N   UNL     1      -7.023   3.104  -0.780  0.00  0.00    -0.284 N 
ATOM      2  C   UNL     1      -7.642   3.532   0.337  0.00  0.00    +0.236 C 
ATOM      3  O   UNL     1      -7.583   2.873   1.354  0.00  0.00    -0.274 OA
ATOM      4  H   UNL     1      -7.118   3.600  -1.608  0.00  0.00    +0.155 HD
ENDROOT
BRANCH   1   7
ATOM      5  C   UNL     1      -5.480  -0.085  -1.785  0.00  0.00    +0.071 A 
ATOM      6  C   UNL     1      -6.255   1.065  -1.821  0.00  0.00    +0.049 A 
ATOM      7  C   UNL     1      -6.242   1.942  -0.746  0.00  0.00    +0.035 A 
ATOM      8  C   UNL     1      -5.453   1.667   0.363  0.00  0.00    +0.026 A 
ATOM      9  C   UNL     1      -4.681   0.522   0.398  0.00  0.00    +0.042 A 
ATOM     10  C   UNL     1      -4.697  -0.358  -0.669  0.00  0.00    +0.145 A 
ATOM     11  F   UNL     1      -3.946  -1.481  -0.629  0.00  0.00    -0.204 F 
BRANCH   5  14
ATOM     12  C   UNL     1      -5.694  -0.509  -4.117  0.00  0.00    +0.252 C 
ATOM     13  O   UNL     1      -5.919   0.673  -4.298  0.00  0.00    -0.270 OA
ATOM     14  N   UNL     1      -5.491  -0.972  -2.868  0.00  0.00    -0.279 N 
ATOM     15  H   UNL     1      -5.354  -1.921  -2.719  0.00  0.00    +0.155 HD
BRANCH  12  18
ATOM     16  C   UNL     1      -6.119   0.246  -7.132  0.00  0.00    +0.087 C 
ATOM     17  C   UNL     1      -5.823  -1.125  -6.580  0.00  0.00    +0.114 A 
ATOM     18  C   UNL     1      -5.641  -1.433  -5.263  0.00  0.00    +0.078 A 
ATOM     19  C   UNL     1      -5.382  -2.880  -5.227  0.00  0.00    +0.054 A 
ATOM     20  C   UNL     1      -5.432  -3.295  -6.502  0.00  0.00    +0.196 A 
ATOM     21  O   UNL     1      -5.699  -2.246  -7.296  0.00  0.00    -0.467 OA
ENDBRANCH  12  18
ENDBRANCH   5  14
ENDBRANCH   1   7
BRANCH   2  22
ATOM     22  C   UNL     1      -8.408   4.830   0.324  0.00  0.00    +0.166 C 
ATOM     23  C   UNL     1      -7.909   5.732   1.457  0.00  0.00    +0.030 C 
ATOM     24  C   UNL     1      -8.782   6.988   1.526  0.00  0.00    +0.003 C 
ATOM     25  C   UNL     1     -10.228   6.590   1.827  0.00  0.00    +0.017 C 
ATOM     26  C   UNL     1     -10.754   5.697   0.698  0.00  0.00    +0.110 C 
ATOM     27  N   UNL     1      -9.838   4.561   0.525  0.00  0.00    -0.165 NA
BRANCH  27  28
ATOM     28  S   UNL     1     -10.407   3.006   0.561  0.00  0.00    +0.062 S 
ATOM     29  O   UNL     1     -11.735   3.047   0.058  0.00  0.00    -0.153 OA
ATOM     30  O   UNL     1      -9.397   2.191  -0.019  0.00  0.00    -0.153 OA
BRANCH  28  31
ATOM     31  C   UNL     1     -10.524   2.533   2.254  0.00  0.00    +0.106 A 
ATOM     32  C   UNL     1      -9.620   1.631   2.784  0.00  0.00    +0.028 A 
ATOM     33  C   UNL     1      -9.712   1.260   4.113  0.00  0.00    +0.002 A 
ATOM     34  C   UNL     1     -10.708   1.791   4.911  0.00  0.00    +0.000 A 
ATOM     35  C   UNL     1     -11.611   2.694   4.381  0.00  0.00    +0.002 A 
ATOM     36  C   UNL     1     -11.517   3.068   3.054  0.00  0.00    +0.028 A 
ENDBRANCH  28  31
ENDBRANCH  27  28
ENDBRANCH   2  22
TORSDOF 6
