REMARK  Name = ZINC14066034
REMARK  6 active torsions:
REMARK  status: ('A' for Active; 'I' for Inactive)
REMARK    1  A    between atoms: C_3  and  C_24
REMARK    2  A    between atoms: C_5  and  N_7
REMARK    3  A    between atoms: C_8  and  C_10
REMARK    4  A    between atoms: C_10  and  N_11
REMARK    5  A    between atoms: N_26  and  C_27
REMARK    6  A    between atoms: C_31  and  C_33
REMARK                            x       y       z     vdW  Elec       q    Type
REMARK                         _______ _______ _______ _____ _____    ______ ____
ROOT
ATOM      1  C   UNL     1      -0.639   0.918  -0.051  0.00  0.00    +0.003 A 
ATOM      2  C   UNL     1       0.109   2.052  -0.292  0.00  0.00    +0.013 A 
ATOM      3  C   UNL     1       1.502   1.973  -0.334  0.00  0.00    +0.039 A 
ATOM      4  C   UNL     1       2.133   0.745  -0.131  0.00  0.00    +0.036 A 
ATOM      5  C   UNL     1       1.372  -0.388   0.111  0.00  0.00    +0.034 A 
ATOM      6  C   UNL     1      -0.014  -0.298   0.150  0.00  0.00    +0.023 A 
ENDROOT
BRANCH   5   7
ATOM      7  N   UNL     1       2.000  -1.621   0.315  0.00  0.00    -0.284 N 
ATOM      8  C   UNL     1       3.201  -1.674   0.926  0.00  0.00    +0.235 C 
ATOM      9  O   UNL     1       3.694  -0.664   1.381  0.00  0.00    -0.274 OA
ATOM     10  H   UNL     1       1.571  -2.439   0.017  0.00  0.00    +0.155 HD
BRANCH   8  11
ATOM     11  C   UNL     1       3.930  -2.988   1.043  0.00  0.00    +0.212 C 
BRANCH  11  12
ATOM     12  N   UNL     1       5.201  -2.780   1.741  0.00  0.00    -0.233 N 
ATOM     13  C   UNL     1       6.360  -2.472   1.103  0.00  0.00    +0.226 C 
ATOM     14  O   UNL     1       6.484  -2.124  -0.051  0.00  0.00    -0.275 OA
ATOM     15  C   UNL     1       7.453  -2.649   2.112  0.00  0.00    +0.091 C 
ATOM     16  C   UNL     1       8.643  -1.714   2.052  0.00  0.00    +0.040 C 
ATOM     17  C   UNL     1       9.395  -1.874   3.357  0.00  0.00    -0.030 C 
ATOM     18  C   UNL     1       8.891  -2.396   4.434  0.00  0.00    -0.030 C 
ATOM     19  C   UNL     1       7.468  -2.901   4.554  0.00  0.00    +0.040 C 
ATOM     20  C   UNL     1       6.677  -2.301   3.420  0.00  0.00    +0.091 C 
ATOM     21  C   UNL     1       5.333  -2.871   3.090  0.00  0.00    +0.226 C 
ATOM     22  O   UNL     1       4.524  -3.325   3.871  0.00  0.00    -0.275 OA
ENDBRANCH  11  12
ENDBRANCH   8  11
ENDBRANCH   5   7
BRANCH   3  23
ATOM     23  C   UNL     1       2.307   3.186  -0.593  0.00  0.00    +0.248 C 
ATOM     24  O   UNL     1       3.520   3.115  -0.629  0.00  0.00    -0.270 OA
ATOM     25  N   UNL     1       1.695   4.371  -0.789  0.00  0.00    -0.281 N 
ATOM     26  H   UNL     1       0.733   4.443  -0.687  0.00  0.00    +0.155 HD
BRANCH  25  27
ATOM     27  C   UNL     1       2.447   5.497  -1.140  0.00  0.00    +0.034 A 
ATOM     28  C   UNL     1       2.062   6.756  -0.699  0.00  0.00    +0.023 A 
ATOM     29  C   UNL     1       2.807   7.865  -1.047  0.00  0.00    +0.002 A 
ATOM     30  C   UNL     1       3.935   7.724  -1.835  0.00  0.00    +0.012 A 
ATOM     31  C   UNL     1       4.320   6.471  -2.276  0.00  0.00    +0.057 A 
ATOM     32  C   UNL     1       3.583   5.357  -1.926  0.00  0.00    +0.035 A 
BRANCH  31  33
ATOM     33  C   UNL     1       5.550   6.321  -3.135  0.00  0.00    +0.417 C 
ATOM     34  F   UNL     1       6.125   7.578  -3.349  0.00  0.00    -0.166 F 
ATOM     35  F   UNL     1       6.471   5.490  -2.490  0.00  0.00    -0.166 F 
ATOM     36  F   UNL     1       5.193   5.757  -4.365  0.00  0.00    -0.166 F 
ENDBRANCH  31  33
ENDBRANCH  25  27
ENDBRANCH   3  23
TORSDOF 6
