REMARK  Name = ZINC18107048
REMARK  2 active torsions:
REMARK  status: ('A' for Active; 'I' for Inactive)
REMARK    1  A    between atoms: C_4  and  C_7
REMARK    2  A    between atoms: C_12  and  C_22
REMARK                            x       y       z     vdW  Elec       q    Type
REMARK                         _______ _______ _______ _____ _____    ______ ____
ROOT
ATOM      1  C   UNL     1       1.563   5.082   4.258  0.00  0.00    +0.032 C 
ATOM      2  C   UNL     1       1.354   6.355   3.440  0.00  0.00    +0.059 C 
ATOM      3  C   UNL     1       1.091   6.003   1.985  0.00  0.00    +0.017 C 
ATOM      4  C   UNL     1       1.649   4.910   1.438  0.00  0.00    +0.039 C 
ATOM      5  C   UNL     1       1.476   4.447   0.010  0.00  0.00    +0.172 C 
ATOM      6  N   UNL     1       0.847   5.417  -0.861  0.00  0.00    -0.329 N 
ATOM      7  C   UNL     1      -0.469   5.820  -0.651  0.00  0.00    +0.049 A 
ATOM      8  C   UNL     1      -1.469   5.523  -1.564  0.00  0.00    +0.025 A 
ATOM      9  C   UNL     1      -2.773   5.898  -1.292  0.00  0.00    +0.002 A 
ATOM     10  C   UNL     1      -3.081   6.561  -0.118  0.00  0.00    +0.002 A 
ATOM     11  C   UNL     1      -2.082   6.876   0.788  0.00  0.00    +0.025 A 
ATOM     12  C   UNL     1      -0.775   6.522   0.505  0.00  0.00    +0.052 A 
ATOM     13  N   UNL     1       0.289   6.879   1.327  0.00  0.00    -0.316 N 
ATOM     14  C   UNL     1       2.483   4.070   2.212  0.00  0.00    +0.163 C 
ATOM     15  O   UNL     1       2.991   3.099   1.686  0.00  0.00    -0.292 OA
ATOM     16  C   UNL     1       2.762   4.336   3.662  0.00  0.00    +0.088 C 
ATOM     17  H   UNL     1       1.350   5.791  -1.602  0.00  0.00    +0.147 HD
ATOM     18  H   UNL     1       0.471   7.825   1.440  0.00  0.00    +0.152 HD
ENDROOT
BRANCH   1  22
ATOM     19  C   UNL     1       2.365   6.093   8.330  0.00  0.00    +0.000 A 
ATOM     20  C   UNL     1       1.267   5.316   8.014  0.00  0.00    +0.000 A 
ATOM     21  C   UNL     1       1.007   4.989   6.697  0.00  0.00    +0.004 A 
ATOM     22  C   UNL     1       1.846   5.439   5.694  0.00  0.00    -0.044 A 
ATOM     23  C   UNL     1       2.948   6.212   6.010  0.00  0.00    +0.004 A 
ATOM     24  C   UNL     1       3.205   6.543   7.327  0.00  0.00    +0.000 A 
ENDBRANCH   1  22
BRANCH   5  25
ATOM     25  C   UNL     1       0.640   3.193   0.012  0.00  0.00    +0.130 A 
ATOM     26  C   UNL     1       1.111   1.934   0.002  0.00  0.00    +0.047 A 
ATOM     27  C   UNL     1      -0.013   1.076   0.008  0.00  0.00    +0.041 A 
ATOM     28  C   UNL     1      -1.103   1.863   0.017  0.00  0.00    +0.195 A 
ATOM     29  O   UNL     1      -0.702   3.144   0.024  0.00  0.00    -0.466 OA
ENDBRANCH   5  25
TORSDOF 2
