REMARK  Name = ZINC09784800
REMARK  7 active torsions:
REMARK  status: ('A' for Active; 'I' for Inactive)
REMARK    1  A    between atoms: C_1  and  C_2
REMARK    2  A    between atoms: C_5  and  N_8
REMARK    3  A    between atoms: C_14  and  C_17
REMARK    4  A    between atoms: C_17  and  C_18
REMARK    5  A    between atoms: N_20  and  C_21
REMARK    6  A    between atoms: C_24  and  C_27
REMARK    7  A    between atoms: C_32  and  C_36
REMARK                            x       y       z     vdW  Elec       q    Type
REMARK                         _______ _______ _______ _____ _____    ______ ____
ROOT
ATOM      1  C   UNL     1      -4.310   8.624   0.010  0.00  0.00    +0.223 C 
ATOM      2  O   UNL     1      -3.156   8.966   0.157  0.00  0.00    -0.275 OA
ATOM      3  N   UNL     1      -4.618   7.315  -0.084  0.00  0.00    -0.285 N 
ATOM      4  H   UNL     1      -5.530   7.043  -0.273  0.00  0.00    +0.155 HD
ENDROOT
BRANCH   3   5
ATOM      5  C   UNL     1      -3.624   6.350   0.090  0.00  0.00    +0.033 A 
ATOM      6  C   UNL     1      -2.585   6.577   0.987  0.00  0.00    +0.024 A 
ATOM      7  C   UNL     1      -1.603   5.627   1.161  0.00  0.00    +0.012 A 
ATOM      8  C   UNL     1      -1.651   4.434   0.437  0.00  0.00    +0.007 A 
ATOM      9  C   UNL     1      -2.692   4.211  -0.467  0.00  0.00    +0.012 A 
ATOM     10  C   UNL     1      -3.674   5.163  -0.633  0.00  0.00    +0.024 A 
BRANCH   8  11
ATOM     11  C   UNL     1      -0.599   3.413   0.622  0.00  0.00    +0.109 A 
ATOM     12  N   UNL     1       0.448   3.441   1.417  0.00  0.00    -0.239 NA
ATOM     13  C   UNL     1       1.336   2.430   1.481  0.00  0.00    +0.079 A 
ATOM     14  C   UNL     1       2.499   2.337   2.284  0.00  0.00    +0.029 A 
ATOM     15  C   UNL     1       3.294   1.236   2.233  0.00  0.00    +0.005 A 
ATOM     16  C   UNL     1       3.003   0.164   1.400  0.00  0.00    -0.049 A 
ATOM     17  C   UNL     1       1.877   0.214   0.599  0.00  0.00    +0.020 A 
ATOM     18  C   UNL     1       1.067   1.323   0.643  0.00  0.00    +0.040 A 
ATOM     19  S   UNL     1      -0.430   1.821  -0.173  0.00  0.00    -0.067 S 
ATOM     20  C   UNL     1       3.906  -1.042   1.367  0.00  0.00    +0.044 C 
ENDBRANCH   8  11
ENDBRANCH   3   5
BRANCH   1  21
ATOM     21  C   UNL     1      -5.400   9.662  -0.068  0.00  0.00    +0.152 C 
BRANCH  21  28
ATOM     22  N   UNL     1      -1.455  14.788   3.160  0.00  0.00    -0.269 N 
ATOM     23  C   UNL     1      -2.243  14.309   2.178  0.00  0.00    +0.310 C 
ATOM     24  O   UNL     1      -2.549  15.021   1.241  0.00  0.00    -0.252 OA
ATOM     25  N   UNL     1      -2.692  13.039   2.234  0.00  0.00    -0.248 N 
ATOM     26  C   UNL     1      -3.506  12.544   1.221  0.00  0.00    +0.166 A 
ATOM     27  N   UNL     1      -4.043  11.346   1.101  0.00  0.00    -0.229 NA
ATOM     28  C   UNL     1      -4.796  11.036   0.063  0.00  0.00    +0.059 A 
ATOM     29  C   UNL     1      -5.017  11.983  -0.881  0.00  0.00    +0.072 A 
ATOM     30  S   UNL     1      -4.081  13.348  -0.207  0.00  0.00    -0.060 S 
ATOM     31  H   UNL     1      -1.148  14.199   3.867  0.00  0.00    +0.156 HD
ATOM     32  H   UNL     1      -2.448  12.471   2.981  0.00  0.00    +0.158 HD
BRANCH  22  37
ATOM     33  C   UNL     1       0.067  20.253   3.162  0.00  0.00    +0.044 C 
ATOM     34  C   UNL     1      -0.337  18.802   3.161  0.00  0.00    -0.050 A 
ATOM     35  C   UNL     1      -1.580  18.432   2.680  0.00  0.00    +0.005 A 
ATOM     36  C   UNL     1      -1.954  17.102   2.679  0.00  0.00    +0.023 A 
ATOM     37  C   UNL     1      -1.079  16.136   3.160  0.00  0.00    +0.035 A 
ATOM     38  C   UNL     1       0.166  16.512   3.648  0.00  0.00    +0.023 A 
ATOM     39  C   UNL     1       0.535  17.843   3.642  0.00  0.00    +0.005 A 
ENDBRANCH  22  37
ENDBRANCH  21  28
ENDBRANCH   1  21
TORSDOF 5
