REMARK  Name = ZINC32127688
REMARK  7 active torsions:
REMARK  status: ('A' for Active; 'I' for Inactive)
REMARK    1  A    between atoms: C_1  and  C_2
REMARK    2  A    between atoms: C_5  and  C_21
REMARK    3  A    between atoms: C_7  and  N_8
REMARK    4  A    between atoms: N_8  and  C_9
REMARK    5  A    between atoms: C_9  and  N_11
REMARK    6  A    between atoms: C_12  and  C_14
REMARK    7  A    between atoms: C_24  and  C_29
REMARK                            x       y       z     vdW  Elec       q    Type
REMARK                         _______ _______ _______ _____ _____    ______ ____
ROOT
ATOM      1  C   UNL     1       4.795  -0.385  -0.247  0.00  0.00    +0.045 C 
ATOM      2  C   UNL     1       4.725   1.120  -0.230  0.00  0.00    -0.029 A 
ATOM      3  C   UNL     1       5.886   1.865  -0.329  0.00  0.00    +0.006 A 
ATOM      4  C   UNL     1       5.830   3.244  -0.314  0.00  0.00    +0.011 A 
ATOM      5  C   UNL     1       4.599   3.890  -0.198  0.00  0.00    +0.011 A 
ATOM      6  C   UNL     1       3.428   3.140  -0.105  0.00  0.00    +0.034 A 
ATOM      7  C   UNL     1       3.495   1.755  -0.115  0.00  0.00    +0.036 A 
ENDROOT
BRANCH   5   8
ATOM      8  C   UNL     1       4.536   5.369  -0.182  0.00  0.00    +0.132 A 
ATOM      9  N   UNL     1       5.514   6.234  -0.264  0.00  0.00    -0.156 NA
ATOM     10  N   UNL     1       5.270   7.601  -0.233  0.00  0.00    -0.190 N 
ATOM     11  C   UNL     1       5.958   8.796  -0.287  0.00  0.00    +0.153 A 
ATOM     12  N   UNL     1       5.090   9.765  -0.202  0.00  0.00    -0.132 NA
ATOM     13  N   UNL     1       3.900   9.284  -0.098  0.00  0.00    -0.120 NA
ATOM     14  C   UNL     1       3.957   7.987  -0.112  0.00  0.00    +0.218 A 
ATOM     15  S   UNL     1       3.105   6.430  -0.053  0.00  0.00    -0.026 S 
ATOM     16  C   UNL     1       7.451   8.953  -0.421  0.00  0.00    +0.090 C 
ENDBRANCH   5   8
BRANCH   7  17
ATOM     17  N   UNL     1       2.323   0.998  -0.015  0.00  0.00    -0.296 N 
ATOM     18  H   UNL     1       2.171   0.130  -0.674  0.00  0.00    +0.154 HD
BRANCH  17  19
ATOM     19  C   UNL     1       1.380   1.331   0.889  0.00  0.00    +0.141 C 
ATOM     20  S   UNL     1       1.675   2.592   2.008  0.00  0.00    -0.018 S 
BRANCH  19  21
ATOM     21  N   UNL     1       0.205   0.671   0.912  0.00  0.00    -0.264 N 
ATOM     22  C   UNL     1      -0.740   1.007   1.812  0.00  0.00    +0.250 C 
ATOM     23  O   UNL     1      -0.530   1.903   2.606  0.00  0.00    -0.270 OA
ATOM     24  H   UNL     1       0.018  -0.143   0.196  0.00  0.00    +0.157 HD
BRANCH  22  25
ATOM     25  C   UNL     1      -2.029   0.288   1.833  0.00  0.00    +0.037 A 
ATOM     26  C   UNL     1      -2.274  -0.737   0.917  0.00  0.00    +0.016 A 
ATOM     27  C   UNL     1      -3.478  -1.409   0.944  0.00  0.00    +0.039 A 
ATOM     28  C   UNL     1      -4.448  -1.060   1.871  0.00  0.00    +0.123 A 
ATOM     29  C   UNL     1      -4.212  -0.039   2.779  0.00  0.00    +0.039 A 
ATOM     30  C   UNL     1      -3.010   0.635   2.764  0.00  0.00    +0.016 A 
ATOM     31  F   UNL     1      -5.628  -1.718   1.890  0.00  0.00    -0.205 F 
ENDBRANCH  22  25
ENDBRANCH  19  21
ENDBRANCH  17  19
ENDBRANCH   7  17
TORSDOF 5
