REMARK  Name = ZINC24093865
REMARK  8 active torsions:
REMARK  status: ('A' for Active; 'I' for Inactive)
REMARK    1  A    between atoms: C_1  and  C_2
REMARK    2  A    between atoms: C_5  and  N_8
REMARK    3  A    between atoms: N_8  and  S_9
REMARK    4  A    between atoms: S_9  and  C_12
REMARK    5  A    between atoms: C_14  and  C_19
REMARK    6  A    between atoms: C_17  and  C_18
REMARK    7  A    between atoms: N_21  and  C_22
REMARK    8  A    between atoms: C_31  and  C_33
REMARK                            x       y       z     vdW  Elec       q    Type
REMARK                         _______ _______ _______ _____ _____    ______ ____
ROOT
ATOM      1  C   UNL     1       0.152  -0.778  -1.247  0.00  0.00    +0.112 A 
ATOM      2  C   UNL     1       0.016  -2.124  -0.977  0.00  0.00    +0.042 A 
ATOM      3  C   UNL     1      -0.170  -2.554   0.338  0.00  0.00    +0.039 A 
ATOM      4  C   UNL     1      -0.211  -1.617   1.372  0.00  0.00    +0.013 A 
ATOM      5  C   UNL     1      -0.069  -0.275   1.089  0.00  0.00    +0.006 A 
ATOM      6  C   UNL     1       0.115   0.144  -0.217  0.00  0.00    -0.024 A 
ATOM      7  C   UNL     1       0.270   1.613  -0.519  0.00  0.00    +0.046 C 
ENDROOT
BRANCH   3   8
ATOM      8  C   UNL     1      -0.322  -3.994   0.634  0.00  0.00    +0.248 C 
ATOM      9  O   UNL     1      -0.285  -4.807  -0.269  0.00  0.00    -0.270 OA
ATOM     10  N   UNL     1      -0.501  -4.405   1.905  0.00  0.00    -0.281 N 
ATOM     11  H   UNL     1      -0.611  -3.666   2.712  0.00  0.00    +0.155 HD
BRANCH  10  12
ATOM     12  C   UNL     1      -0.548  -5.773   2.198  0.00  0.00    +0.034 A 
ATOM     13  C   UNL     1      -0.018  -6.250   3.390  0.00  0.00    +0.025 A 
ATOM     14  C   UNL     1      -0.065  -7.597   3.678  0.00  0.00    +0.025 A 
ATOM     15  C   UNL     1      -0.644  -8.492   2.776  0.00  0.00    +0.040 A 
ATOM     16  C   UNL     1      -1.171  -8.009   1.589  0.00  0.00    -0.023 A 
ATOM     17  C   UNL     1      -1.131  -6.659   1.301  0.00  0.00    +0.028 A 
ATOM     18  C   UNL     1      -1.731  -9.173   0.802  0.00  0.00    +0.056 C 
ATOM     19  C   UNL     1      -1.462 -10.403   1.684  0.00  0.00    +0.118 C 
ATOM     20  N   UNL     1      -0.790  -9.881   2.877  0.00  0.00    -0.271 N 
ATOM     21  C   UNL     1      -0.372 -10.629   3.918  0.00  0.00    +0.217 C 
ATOM     22  O   UNL     1       0.260 -10.116   4.818  0.00  0.00    -0.276 OA
ATOM     23  C   UNL     1      -0.691 -12.101   3.964  0.00  0.00    +0.109 C 
ENDBRANCH  10  12
ENDBRANCH   3   8
BRANCH   1  24
ATOM     24  S   UNL     1       0.379  -0.233  -2.908  0.00  0.00    +0.073 S 
ATOM     25  O   UNL     1       1.492   0.650  -2.896  0.00  0.00    -0.150 OA
ATOM     26  O   UNL     1       0.336  -1.395  -3.725  0.00  0.00    -0.150 OA
BRANCH  24  27
ATOM     27  N   UNL     1      -0.945   0.677  -3.309  0.00  0.00    -0.216 N 
ATOM     28  H   UNL     1      -0.822   1.738  -3.574  0.00  0.00    +0.174 HD
BRANCH  27  33
ATOM     29  C   UNL     1      -6.106  -1.671  -3.322  0.00  0.00    +0.044 C 
ATOM     30  C   UNL     1      -4.734  -1.047  -3.319  0.00  0.00    -0.050 A 
ATOM     31  C   UNL     1      -4.538   0.183  -2.718  0.00  0.00    +0.005 A 
ATOM     32  C   UNL     1      -3.282   0.758  -2.713  0.00  0.00    +0.025 A 
ATOM     33  C   UNL     1      -2.216   0.099  -3.312  0.00  0.00    +0.048 A 
ATOM     34  C   UNL     1      -2.418  -1.134  -3.919  0.00  0.00    +0.025 A 
ATOM     35  C   UNL     1      -3.675  -1.706  -3.916  0.00  0.00    +0.005 A 
ENDBRANCH  27  33
ENDBRANCH  24  27
ENDBRANCH   1  24
TORSDOF 5
