REMARK  Name = ZINC14393539
REMARK  7 active torsions:
REMARK  status: ('A' for Active; 'I' for Inactive)
REMARK    1  A    between atoms: C_1  and  C_2
REMARK    2  A    between atoms: C_5  and  N_9
REMARK    3  A    between atoms: C_7  and  C_8
REMARK    4  A    between atoms: N_9  and  S_10
REMARK    5  A    between atoms: S_10  and  C_13
REMARK    6  A    between atoms: C_16  and  N_19
REMARK    7  A    between atoms: C_20  and  C_22
REMARK                            x       y       z     vdW  Elec       q    Type
REMARK                         _______ _______ _______ _____ _____    ______ ____
ROOT
ATOM      1  C   UNL     1       1.509   1.107  -6.862  0.00  0.00    +0.109 A 
ATOM      2  C   UNL     1       2.651   0.726  -6.181  0.00  0.00    +0.030 A 
ATOM      3  C   UNL     1       2.830   1.102  -4.864  0.00  0.00    +0.025 A 
ATOM      4  C   UNL     1       1.861   1.863  -4.223  0.00  0.00    +0.034 A 
ATOM      5  C   UNL     1       0.712   2.239  -4.908  0.00  0.00    +0.025 A 
ATOM      6  C   UNL     1       0.542   1.864  -6.226  0.00  0.00    +0.030 A 
ENDROOT
BRANCH   4   7
ATOM      7  N   UNL     1       2.039   2.245  -2.889  0.00  0.00    -0.285 N 
ATOM      8  C   UNL     1       1.557   3.428  -2.457  0.00  0.00    +0.225 C 
ATOM      9  O   UNL     1       1.055   4.202  -3.244  0.00  0.00    -0.275 OA
ATOM     10  H   UNL     1       2.509   1.660  -2.275  0.00  0.00    +0.155 HD
BRANCH   8  11
ATOM     11  C   UNL     1       1.643   3.788  -0.996  0.00  0.00    +0.116 C 
ATOM     12  C   UNL     1       0.878   2.753  -0.171  0.00  0.00    +0.113 C 
ATOM     13  C   UNL     1      -0.602   2.918  -0.387  0.00  0.00    +0.218 C 
ATOM     14  O   UNL     1      -1.319   1.940  -0.399  0.00  0.00    -0.275 OA
ATOM     15  N   UNL     1      -1.139   4.138  -0.573  0.00  0.00    -0.285 N 
ATOM     16  C   UNL     1      -0.328   5.277  -0.573  0.00  0.00    +0.040 A 
ATOM     17  C   UNL     1       1.040   5.152  -0.779  0.00  0.00    -0.014 A 
ATOM     18  C   UNL     1       1.844   6.274  -0.784  0.00  0.00    +0.009 A 
ATOM     19  C   UNL     1       1.288   7.525  -0.585  0.00  0.00    +0.039 A 
ATOM     20  C   UNL     1      -0.075   7.654  -0.379  0.00  0.00    +0.125 A 
ATOM     21  C   UNL     1      -0.884   6.532  -0.372  0.00  0.00    +0.062 A 
ATOM     22  F   UNL     1      -0.615   8.877  -0.184  0.00  0.00    -0.205 F 
ATOM     23  H   UNL     1      -2.096   4.229  -0.704  0.00  0.00    +0.155 HD
ENDBRANCH   8  11
ENDBRANCH   4   7
BRANCH   1  24
ATOM     24  S   UNL     1       1.284   0.625  -8.542  0.00  0.00    +0.072 S 
ATOM     25  O   UNL     1       0.389   1.566  -9.118  0.00  0.00    -0.150 OA
ATOM     26  O   UNL     1       2.581   0.384  -9.071  0.00  0.00    -0.150 OA
BRANCH  24  27
ATOM     27  N   UNL     1       0.498  -0.832  -8.532  0.00  0.00    -0.216 N 
ATOM     28  H   UNL     1       0.942  -1.625  -8.870  0.00  0.00    +0.174 HD
BRANCH  27  33
ATOM     29  C   UNL     1      -4.795  -1.187  -6.527  0.00  0.00    +0.044 C 
ATOM     30  C   UNL     1      -3.388  -1.092  -7.059  0.00  0.00    -0.047 A 
ATOM     31  C   UNL     1      -3.040  -0.058  -7.910  0.00  0.00    +0.005 A 
ATOM     32  C   UNL     1      -1.752   0.031  -8.400  0.00  0.00    +0.025 A 
ATOM     33  C   UNL     1      -0.805  -0.919  -8.038  0.00  0.00    +0.048 A 
ATOM     34  C   UNL     1      -1.159  -1.959  -7.188  0.00  0.00    +0.028 A 
ATOM     35  C   UNL     1      -2.448  -2.039  -6.697  0.00  0.00    -0.046 A 
ATOM     36  C   UNL     1      -2.832  -3.164  -5.770  0.00  0.00    +0.044 C 
ENDBRANCH  27  33
ENDBRANCH  24  27
ENDBRANCH   1  24
TORSDOF 5
