REMARK  Name = ZINC39654604
REMARK  12 active torsions:
REMARK  status: ('A' for Active; 'I' for Inactive)
REMARK    1  A    between atoms: C_1  and  C_2
REMARK    2  A    between atoms: C_2  and  C_3
REMARK    3  A    between atoms: C_6  and  C_9
REMARK    4  A    between atoms: C_9  and  C_10
REMARK    5  A    between atoms: C_10  and  N_11
REMARK    6  A    between atoms: C_12  and  C_14
REMARK    7  A    between atoms: C_25  and  C_27
REMARK    8  A    between atoms: C_27  and  C_29
REMARK    9  A    between atoms: C_27  and  O_32
REMARK   10  A    between atoms: C_29  and  C_30
REMARK   11  A    between atoms: C_29  and  C_31
REMARK   12  A    between atoms: O_32  and  C_33
REMARK                            x       y       z     vdW  Elec       q    Type
REMARK                         _______ _______ _______ _____ _____    ______ ____
ROOT
ATOM      1  C   UNL     1       5.061  -0.644  -8.955  0.00  0.00    +0.100 C 
ATOM      2  C   UNL     1       4.123  -1.586  -9.743  0.00  0.00    +0.121 C 
ATOM      3  N   UNL     1       3.514  -0.723 -10.782  0.00  0.00    -0.297 N 
ATOM      4  C   UNL     1       4.620   0.159 -11.226  0.00  0.00    +0.115 C 
ATOM      5  C   UNL     1       5.387   0.497  -9.932  0.00  0.00    -0.004 C 
ATOM      6  C   UNL     1       6.887   0.547 -10.205  0.00  0.00    -0.010 C 
ATOM      7  C   UNL     1       7.194   1.726 -11.133  0.00  0.00    -0.082 C 
ATOM      8  N   UNL     1       6.750   2.975 -10.503  0.00  0.00    +0.379 N 
ATOM      9  C   UNL     1       5.292   2.957 -10.329  0.00  0.00    -0.082 C 
ATOM     10  C   UNL     1       4.905   1.830  -9.367  0.00  0.00    -0.010 C 
ATOM     11  C   UNL     1       2.241  -0.738 -11.225  0.00  0.00    +0.257 C 
ATOM     12  O   UNL     1       1.890   0.038 -12.089  0.00  0.00    -0.272 OA
ATOM     13  H   UNL     1       7.193   3.072  -9.602  0.00  0.00    -0.086 HD
ATOM     14  H   UNL     1       7.008   3.755 -11.088  0.00  0.00    -0.086 HD
ENDROOT
BRANCH   1  16
ATOM     15  N   UNL     1       5.066   0.205  -6.631  0.00  0.00    -0.315 N 
ATOM     16  C   UNL     1       4.358  -0.106  -7.735  0.00  0.00    +0.218 C 
ATOM     17  O   UNL     1       3.155   0.047  -7.746  0.00  0.00    -0.275 OA
ATOM     18  H   UNL     1       6.028   0.082  -6.622  0.00  0.00    +0.149 HD
BRANCH  15  19
ATOM     19  C   UNL     1       4.383   0.728  -5.446  0.00  0.00    +0.109 C 
BRANCH  19  20
ATOM     20  C   UNL     1       5.409   0.997  -4.343  0.00  0.00    +0.054 C 
BRANCH  20  24
ATOM     21  C   UNL     1       3.419   2.523  -0.885  0.00  0.00    -0.048 A 
ATOM     22  C   UNL     1       3.594   1.160  -1.036  0.00  0.00    +0.004 A 
ATOM     23  C   UNL     1       4.238   0.666  -2.156  0.00  0.00    +0.004 A 
ATOM     24  C   UNL     1       4.706   1.535  -3.123  0.00  0.00    -0.046 A 
ATOM     25  C   UNL     1       4.531   2.898  -2.972  0.00  0.00    +0.004 A 
ATOM     26  C   UNL     1       3.883   3.392  -1.855  0.00  0.00    +0.004 A 
BRANCH  21  28
ATOM     27  C   UNL     1       1.215   3.151   0.061  0.00  0.00    +0.009 C 
ATOM     28  C   UNL     1       2.717   3.061   0.336  0.00  0.00    +0.032 C 
ENDBRANCH  21  28
ENDBRANCH  20  24
ENDBRANCH  19  20
ENDBRANCH  15  19
ENDBRANCH   1  16
BRANCH  11  29
ATOM     29  C   UNL     1       1.252  -1.717 -10.646  0.00  0.00    +0.261 C 
BRANCH  29  30
ATOM     30  C   UNL     1       1.681  -3.143 -11.001  0.00  0.00    +0.033 C 
ATOM     31  C   UNL     1       0.677  -4.138 -10.414  0.00  0.00    +0.011 C 
ATOM     32  C   UNL     1       1.723  -3.299 -12.522  0.00  0.00    +0.011 C 
ENDBRANCH  29  30
BRANCH  29  33
ATOM     33  O   UNL     1      -0.045  -1.461 -11.188  0.00  0.00    -0.479 OA
BRANCH  33  34
ATOM     34  C   UNL     1      -1.109  -1.692 -10.374  0.00  0.00    +0.122 A 
ATOM     35  C   UNL     1      -0.906  -2.071  -9.056  0.00  0.00    +0.045 A 
ATOM     36  C   UNL     1      -1.990  -2.305  -8.231  0.00  0.00    +0.004 A 
ATOM     37  C   UNL     1      -3.276  -2.160  -8.719  0.00  0.00    +0.000 A 
ATOM     38  C   UNL     1      -3.480  -1.782 -10.033  0.00  0.00    +0.004 A 
ATOM     39  C   UNL     1      -2.400  -1.542 -10.860  0.00  0.00    +0.045 A 
ENDBRANCH  33  34
ENDBRANCH  29  33
ENDBRANCH  11  29
TORSDOF 9
