REMARK  Name = ZINC59017594
REMARK  10 active torsions:
REMARK  status: ('A' for Active; 'I' for Inactive)
REMARK    1  A    between atoms: C_1  and  C_2
REMARK    2  A    between atoms: C_5  and  S_9
REMARK    3  A    between atoms: C_6  and  C_8
REMARK    4  A    between atoms: S_9  and  N_12
REMARK    5  A    between atoms: C_15  and  C_18
REMARK    6  A    between atoms: N_20  and  C_21
REMARK    7  A    between atoms: C_26  and  N_27
REMARK    8  A    between atoms: N_30  and  C_31
REMARK    9  A    between atoms: C_31  and  C_32
REMARK   10  A    between atoms: C_31  and  C_33
REMARK                            x       y       z     vdW  Elec       q    Type
REMARK                         _______ _______ _______ _____ _____    ______ ____
ROOT
ATOM      1  C   UNL     1       4.107  -8.158   1.774  0.00  0.00    +0.220 C 
ATOM      2  O   UNL     1       4.308  -8.909   0.843  0.00  0.00    -0.275 OA
ATOM      3  N   UNL     1       4.424  -8.537   3.027  0.00  0.00    -0.284 N 
ATOM      4  H   UNL     1       4.339  -7.907   3.761  0.00  0.00    +0.155 HD
ENDROOT
BRANCH   1   8
ATOM      5  N   UNL     1       1.466  -5.054   0.626  0.00  0.00    -0.177 NA
ATOM      6  C   UNL     1       2.655  -5.229  -0.220  0.00  0.00    +0.110 C 
ATOM      7  C   UNL     1       3.238  -6.623   0.030  0.00  0.00    +0.030 C 
ATOM      8  C   UNL     1       3.501  -6.800   1.528  0.00  0.00    +0.078 C 
ATOM      9  C   UNL     1       2.183  -6.683   2.296  0.00  0.00    +0.030 C 
ATOM     10  C   UNL     1       1.588  -5.284   2.072  0.00  0.00    +0.110 C 
BRANCH   5  11
ATOM     11  S   UNL     1       0.018  -4.601  -0.037  0.00  0.00    +0.061 S 
ATOM     12  O   UNL     1      -0.994  -5.044   0.857  0.00  0.00    -0.153 OA
ATOM     13  O   UNL     1       0.054  -4.995  -1.402  0.00  0.00    -0.153 OA
BRANCH  11  18
ATOM     14  C   UNL     1      -0.161   1.429   0.012  0.00  0.00    +0.044 C 
ATOM     15  C   UNL     1      -0.116  -0.077  -0.000  0.00  0.00    -0.050 A 
ATOM     16  C   UNL     1      -0.097  -0.758  -1.203  0.00  0.00    +0.005 A 
ATOM     17  C   UNL     1      -0.055  -2.139  -1.214  0.00  0.00    +0.029 A 
ATOM     18  C   UNL     1      -0.034  -2.840  -0.023  0.00  0.00    +0.108 A 
ATOM     19  C   UNL     1      -0.052  -2.159   1.180  0.00  0.00    -0.024 A 
ATOM     20  C   UNL     1      -0.089  -0.777   1.191  0.00  0.00    +0.008 A 
ATOM     21  C   UNL     1      -0.029  -2.923   2.479  0.00  0.00    +0.046 C 
ENDBRANCH  11  18
ENDBRANCH   5  11
ENDBRANCH   1   8
BRANCH   3  22
ATOM     22  C   UNL     1       4.878  -9.839   3.272  0.00  0.00    +0.055 A 
ATOM     23  C   UNL     1       4.536 -10.869   2.407  0.00  0.00    +0.025 A 
ATOM     24  C   UNL     1       4.984 -12.153   2.650  0.00  0.00    +0.002 A 
ATOM     25  C   UNL     1       5.774 -12.417   3.754  0.00  0.00    +0.002 A 
ATOM     26  C   UNL     1       6.120 -11.397   4.621  0.00  0.00    +0.025 A 
ATOM     27  C   UNL     1       5.679 -10.104   4.382  0.00  0.00    +0.056 A 
BRANCH  27  28
ATOM     28  N   UNL     1       6.033  -9.068   5.256  0.00  0.00    -0.268 N 
ATOM     29  C   UNL     1       6.346  -9.345   6.537  0.00  0.00    +0.304 C 
ATOM     30  O   UNL     1       6.223 -10.478   6.962  0.00  0.00    -0.253 OA
ATOM     31  N   UNL     1       6.794  -8.366   7.348  0.00  0.00    -0.297 N 
ATOM     32  H   UNL     1       6.053  -8.152   4.939  0.00  0.00    +0.156 HD
ATOM     33  H   UNL     1       6.892  -7.462   7.009  0.00  0.00    +0.151 HD
BRANCH  31  34
ATOM     34  C   UNL     1       7.134  -8.667   8.741  0.00  0.00    +0.068 C 
ATOM     35  C   UNL     1       8.572  -9.185   8.815  0.00  0.00    +0.027 C 
ATOM     36  C   UNL     1       7.007  -7.396   9.583  0.00  0.00    +0.027 C 
ENDBRANCH  31  34
ENDBRANCH  27  28
ENDBRANCH   3  22
TORSDOF 6
