REMARK  Name = ZINC12794406
REMARK  7 active torsions:
REMARK  status: ('A' for Active; 'I' for Inactive)
REMARK    1  A    between atoms: C_1  and  C_2
REMARK    2  A    between atoms: C_7  and  C_9
REMARK    3  A    between atoms: C_7  and  C_28
REMARK    4  A    between atoms: C_7  and  N_59
REMARK    5  A    between atoms: C_9  and  N_10
REMARK    6  A    between atoms: C_11  and  C_13
REMARK    7  A    between atoms: C_13  and  N_14
REMARK                            x       y       z     vdW  Elec       q    Type
REMARK                         _______ _______ _______ _____ _____    ______ ____
ROOT
ATOM      1  N   UNL     1       0.565  -1.748   2.061  0.00  0.00    -0.315 N 
ATOM      2  C   UNL     1       0.992  -0.470   2.078  0.00  0.00    +0.232 C 
ATOM      3  O   UNL     1       1.142   0.105   3.135  0.00  0.00    -0.274 OA
ATOM      4  H   UNL     1       0.445  -2.208   1.215  0.00  0.00    +0.149 HD
ENDROOT
BRANCH   1   5
ATOM      5  C   UNL     1       0.282  -2.443   3.319  0.00  0.00    +0.094 C 
BRANCH   5   6
ATOM      6  C   UNL     1      -0.184  -3.869   3.020  0.00  0.00    -0.013 C 
BRANCH   6  13
ATOM      7  C   UNL     1       3.900  -7.028   0.567  0.00  0.00    +0.007 C 
ATOM      8  C   UNL     1       2.912  -6.442   1.578  0.00  0.00    -0.018 C 
ATOM      9  C   UNL     1       1.483  -6.617   1.057  0.00  0.00    -0.015 C 
ATOM     10  C   UNL     1       0.504  -5.975   2.042  0.00  0.00    -0.078 C 
ATOM     11  C   UNL     1       2.170  -4.356   2.732  0.00  0.00    -0.078 C 
ATOM     12  C   UNL     1       3.199  -4.950   1.767  0.00  0.00    -0.015 C 
ATOM     13  N   UNL     1       0.818  -4.535   2.162  0.00  0.00    +0.386 N 
ATOM     14  H   UNL     1       0.792  -4.110   1.228  0.00  0.00    -0.081 HD
ENDBRANCH   6  13
BRANCH   6  15
ATOM     15  C   UNL     1      -0.357  -4.623   4.313  0.00  0.00    -0.022 A 
ATOM     16  C   UNL     1      -1.501  -5.012   4.928  0.00  0.00    +0.009 A 
ATOM     17  C   UNL     1      -1.419  -5.702   6.123  0.00  0.00    +0.008 A 
ATOM     18  C   UNL     1      -0.197  -5.968   6.645  0.00  0.00    +0.045 A 
ATOM     19  S   UNL     1       0.891  -5.241   5.431  0.00  0.00    -0.103 S 
ENDBRANCH   6  15
ENDBRANCH   5   6
ENDBRANCH   1   5
BRANCH   2  20
ATOM     20  C   UNL     1       1.284   0.245   0.784  0.00  0.00    +0.227 C 
BRANCH  20  21
ATOM     21  N   UNL     1       1.730   1.611   1.070  0.00  0.00    -0.194 N 
ATOM     22  C   UNL     1       0.923   2.741   1.284  0.00  0.00    +0.061 A 
ATOM     23  C   UNL     1      -0.469   2.811   1.284  0.00  0.00    +0.025 A 
ATOM     24  C   UNL     1      -1.121   4.014   1.521  0.00  0.00    +0.002 A 
ATOM     25  C   UNL     1      -0.449   5.174   1.770  0.00  0.00    +0.009 A 
ATOM     26  C   UNL     1       0.956   5.152   1.787  0.00  0.00    -0.014 A 
ATOM     27  C   UNL     1       1.609   3.926   1.544  0.00  0.00    +0.031 A 
ATOM     28  C   UNL     1       3.007   3.865   1.551  0.00  0.00    +0.118 A 
ATOM     29  C   UNL     1       3.739   4.969   1.789  0.00  0.00    +0.029 A 
ATOM     30  C   UNL     1       3.100   6.191   2.031  0.00  0.00    +0.003 A 
ATOM     31  C   UNL     1       1.740   6.292   2.033  0.00  0.00    +0.009 A 
ATOM     32  S   UNL     1       3.310   2.156   1.204  0.00  0.00    +0.076 S 
ATOM     33  O   UNL     1       3.873   1.570   2.370  0.00  0.00    -0.150 OA
ATOM     34  O   UNL     1       3.907   2.074  -0.082  0.00  0.00    -0.150 OA
ENDBRANCH  20  21
ENDBRANCH   2  20
TORSDOF 6
