REMARK  Name = ZINC34001986
REMARK  7 active torsions:
REMARK  status: ('A' for Active; 'I' for Inactive)
REMARK    1  A    between atoms: C_1  and  C_2
REMARK    2  A    between atoms: C_2  and  C_39
REMARK    3  A    between atoms: C_7  and  C_21
REMARK    4  A    between atoms: C_8  and  N_11
REMARK    5  A    between atoms: C_12  and  C_14
REMARK    6  A    between atoms: C_21  and  S_22
REMARK    7  A    between atoms: S_22  and  N_25
REMARK                            x       y       z     vdW  Elec       q    Type
REMARK                         _______ _______ _______ _____ _____    ______ ____
ROOT
ATOM      1  C   UNL     1      -0.076   1.470  -0.029  0.00  0.00    +0.012 C 
ATOM      2  C   UNL     1      -0.350  -0.036   0.002  0.00  0.00    -0.023 C 
ATOM      3  C   UNL     1      -1.777  -0.363   0.568  0.00  0.00    -0.003 C 
ATOM      4  C   UNL     1      -1.677  -1.911   0.724  0.00  0.00    +0.005 C 
ATOM      5  C   UNL     1      -0.202  -2.171   1.105  0.00  0.00    +0.011 C 
ATOM      6  C   UNL     1       0.451  -0.756   1.144  0.00  0.00    +0.015 C 
ATOM      7  C   UNL     1      -0.168  -0.075   2.403  0.00  0.00    +0.081 C 
ATOM      8  C   UNL     1      -1.650   0.203   2.015  0.00  0.00    +0.027 C 
ATOM      9  C   UNL     1      -0.110  -0.683  -1.363  0.00  0.00    +0.012 C 
ENDROOT
BRANCH   7  10
ATOM     10  N   UNL     1      -0.087  -0.971   3.559  0.00  0.00    -0.312 N 
ATOM     11  C   UNL     1      -0.262  -0.483   4.803  0.00  0.00    +0.215 C 
ATOM     12  O   UNL     1      -0.486   0.698   4.966  0.00  0.00    -0.276 OA
ATOM     13  H   UNL     1       0.092  -1.916   3.429  0.00  0.00    +0.149 HD
BRANCH  11  14
ATOM     14  C   UNL     1      -0.179  -1.405   5.993  0.00  0.00    +0.058 C 
ATOM     15  C   UNL     1      -1.248  -2.494   5.872  0.00  0.00    +0.009 C 
ATOM     16  C   UNL     1      -1.207  -3.378   7.122  0.00  0.00    -0.018 C 
ATOM     17  C   UNL     1      -1.406  -2.506   8.363  0.00  0.00    -0.083 C 
ATOM     18  N   UNL     1      -0.338  -1.502   8.436  0.00  0.00    +0.380 N 
ATOM     19  C   UNL     1      -0.414  -0.606   7.276  0.00  0.00    -0.070 C 
ATOM     20  H   UNL     1      -0.441  -0.963   9.283  0.00  0.00    -0.086 HD
ATOM     21  H   UNL     1       0.558  -1.965   8.442  0.00  0.00    -0.086 HD
ENDBRANCH  11  14
ENDBRANCH   7  10
BRANCH   6  22
ATOM     22  C   UNL     1       1.976  -0.719   1.027  0.00  0.00    +0.194 C 
BRANCH  22  23
ATOM     23  S   UNL     1       2.712  -1.599   2.432  0.00  0.00    +0.032 S 
ATOM     24  O   UNL     1       2.472  -0.885   3.637  0.00  0.00    -0.158 OA
ATOM     25  O   UNL     1       2.424  -2.988   2.344  0.00  0.00    -0.158 OA
BRANCH  23  26
ATOM     26  N   UNL     1       4.347  -1.490   2.194  0.00  0.00    -0.181 NA
ATOM     27  C   UNL     1       5.060  -2.515   1.419  0.00  0.00    +0.110 C 
ATOM     28  C   UNL     1       6.215  -3.058   2.267  0.00  0.00    +0.028 C 
ATOM     29  C   UNL     1       7.084  -1.896   2.742  0.00  0.00    -0.001 C 
ATOM     30  C   UNL     1       7.684  -1.159   1.531  0.00  0.00    +0.016 C 
ATOM     31  C   UNL     1       9.046  -1.866   1.358  0.00  0.00    +0.036 C 
ATOM     32  C   UNL     1       9.396  -2.396   2.732  0.00  0.00    -0.044 A 
ATOM     33  C   UNL     1       8.265  -2.413   3.529  0.00  0.00    -0.038 A 
ATOM     34  C   UNL     1       8.351  -2.865   4.835  0.00  0.00    +0.004 A 
ATOM     35  C   UNL     1       9.560  -3.296   5.344  0.00  0.00    +0.000 A 
ATOM     36  C   UNL     1      10.689  -3.279   4.548  0.00  0.00    +0.000 A 
ATOM     37  C   UNL     1      10.607  -2.829   3.244  0.00  0.00    +0.004 A 
ATOM     38  C   UNL     1       6.266  -0.926   3.590  0.00  0.00    +0.028 C 
ATOM     39  C   UNL     1       5.110  -0.363   2.748  0.00  0.00    +0.110 C 
ENDBRANCH  23  26
ENDBRANCH  22  23
ENDBRANCH   6  22
TORSDOF 5
