REMARK  Name = ZINC59006649
REMARK  6 active torsions:
REMARK  status: ('A' for Active; 'I' for Inactive)
REMARK    1  A    between atoms: C_1  and  C_2
REMARK    2  A    between atoms: C_5  and  C_26
REMARK    3  A    between atoms: C_7  and  N_8
REMARK    4  A    between atoms: C_9  and  C_11
REMARK    5  A    between atoms: C_15  and  N_17
REMARK    6  A    between atoms: C_18  and  C_20
REMARK                            x       y       z     vdW  Elec       q    Type
REMARK                         _______ _______ _______ _____ _____    ______ ____
ROOT
ATOM      1  N   UNL     1      -0.017  -0.031   2.411  0.00  0.00    -0.281 N 
ATOM      2  C   UNL     1      -0.091  -0.702   3.578  0.00  0.00    +0.248 C 
ATOM      3  O   UNL     1      -0.078  -1.918   3.582  0.00  0.00    -0.270 OA
ATOM      4  H   UNL     1       0.039   0.937   2.412  0.00  0.00    +0.155 HD
ENDROOT
BRANCH   1  11
ATOM      5  C   UNL     1      -1.321   1.156   0.183  0.00  0.00    +0.045 C 
ATOM      6  C   UNL     1      -0.646  -0.188   0.085  0.00  0.00    -0.029 A 
ATOM      7  C   UNL     1      -0.648  -0.873  -1.115  0.00  0.00    +0.006 A 
ATOM      8  C   UNL     1      -0.032  -2.104  -1.213  0.00  0.00    +0.013 A 
ATOM      9  C   UNL     1       0.596  -2.661  -0.097  0.00  0.00    +0.040 A 
ATOM     10  C   UNL     1       0.597  -1.970   1.114  0.00  0.00    +0.036 A 
ATOM     11  C   UNL     1      -0.020  -0.731   1.200  0.00  0.00    +0.037 A 
BRANCH   9  12
ATOM     12  C   UNL     1       1.256  -3.980  -0.199  0.00  0.00    +0.248 A 
ATOM     13  N   UNL     1       1.874  -4.618   0.767  0.00  0.00    -0.108 NA
ATOM     14  N   UNL     1       2.326  -5.735   0.317  0.00  0.00    -0.116 NA
ATOM     15  C   UNL     1       2.018  -5.853  -0.944  0.00  0.00    +0.332 A 
ATOM     16  O   UNL     1       1.331  -4.754  -1.300  0.00  0.00    -0.423 OA
ENDBRANCH   9  12
ENDBRANCH   1  11
BRANCH   2  17
ATOM     17  C   UNL     1      -0.190   0.040   4.853  0.00  0.00    +0.039 A 
ATOM     18  C   UNL     1      -0.212   1.436   4.850  0.00  0.00    +0.013 A 
ATOM     19  C   UNL     1      -0.304   2.127   6.041  0.00  0.00    +0.003 A 
ATOM     20  C   UNL     1      -0.376   1.440   7.240  0.00  0.00    +0.023 A 
ATOM     21  C   UNL     1      -0.355   0.051   7.253  0.00  0.00    +0.034 A 
ATOM     22  C   UNL     1      -0.268  -0.652   6.061  0.00  0.00    +0.036 A 
BRANCH  21  23
ATOM     23  N   UNL     1      -0.428  -0.638   8.468  0.00  0.00    -0.283 N 
ATOM     24  C   UNL     1       0.252  -1.791   8.631  0.00  0.00    +0.246 C 
ATOM     25  O   UNL     1       0.859  -2.274   7.699  0.00  0.00    -0.273 OA
ATOM     26  H   UNL     1      -0.967  -0.287   9.194  0.00  0.00    +0.155 HD
BRANCH  24  27
ATOM     27  C   UNL     1       0.257  -2.480   9.971  0.00  0.00    +0.204 C 
ATOM     28  C   UNL     1      -1.163  -2.993  10.318  0.00  0.00    +0.043 C 
ATOM     29  C   UNL     1      -0.827  -4.150  11.299  0.00  0.00    +0.031 C 
ATOM     30  C   UNL     1       0.499  -4.693  10.723  0.00  0.00    +0.161 C 
ATOM     31  O   UNL     1       1.082  -3.655   9.925  0.00  0.00    -0.367 OA
ENDBRANCH  24  27
ENDBRANCH  21  23
ENDBRANCH   2  17
TORSDOF 5
