REMARK  Name = ZINC03840495
REMARK  9 active torsions:
REMARK  status: ('A' for Active; 'I' for Inactive)
REMARK    1  A    between atoms: C_1  and  C_2
REMARK    2  A    between atoms: N_9  and  C_10
REMARK    3  A    between atoms: C_10  and  C_11
REMARK    4  A    between atoms: C_14  and  C_35
REMARK    5  A    between atoms: C_17  and  O_34
REMARK    6  A    between atoms: C_19  and  C_23
REMARK    7  A    between atoms: C_23  and  C_25
REMARK    8  A    between atoms: C_23  and  C_26
REMARK    9  A    between atoms: C_33  and  N_69
REMARK                            x       y       z     vdW  Elec       q    Type
REMARK                         _______ _______ _______ _____ _____    ______ ____
ROOT
ATOM      1  C   UNL     1       2.261   1.748  -0.090  0.00  0.00    +0.014 C 
ATOM      2  C   UNL     1       0.898   1.058  -0.163  0.00  0.00    +0.042 C 
ATOM      3  C   UNL     1       0.413   1.045  -1.604  0.00  0.00    +0.057 A 
ATOM      4  C   UNL     1      -0.889   1.300  -1.887  0.00  0.00    +0.015 A 
ATOM      5  S   UNL     1      -0.938   1.163  -3.654  0.00  0.00    -0.057 S 
ATOM      6  C   UNL     1       0.743   0.785  -3.885  0.00  0.00    +0.159 A 
ATOM      7  N   UNL     1       1.200   0.791  -2.650  0.00  0.00    -0.229 NA
ATOM      8  N   UNL     1       1.427   0.542  -5.066  0.00  0.00    -0.320 N 
ATOM      9  C   UNL     1      -1.983   1.615  -0.930  0.00  0.00    +0.051 C 
ATOM     10  C   UNL     1      -1.518   1.265   0.497  0.00  0.00    -0.022 C 
ATOM     11  C   UNL     1      -0.108   1.819   0.710  0.00  0.00    +0.033 C 
ATOM     12  C   UNL     1       0.317   1.632   2.171  0.00  0.00    +0.123 C 
ATOM     13  C   UNL     1      -0.671   2.326   3.105  0.00  0.00    +0.029 C 
ATOM     14  C   UNL     1      -2.056   1.700   2.912  0.00  0.00    +0.007 C 
ATOM     15  C   UNL     1      -2.500   1.929   1.468  0.00  0.00    +0.008 C 
ATOM     16  C   UNL     1      -1.521  -0.251   0.706  0.00  0.00    +0.012 C 
ATOM     17  H   UNL     1       2.376   0.342  -5.044  0.00  0.00    +0.148 HD
ENDROOT
BRANCH  13  18
ATOM     18  C   UNL     1      -0.223   2.140   4.556  0.00  0.00    +0.078 C 
ATOM     19  C   UNL     1      -0.315   0.660   4.932  0.00  0.00    +0.017 C 
BRANCH  18  20
ATOM     20  C   UNL     1      -1.115   2.946   5.465  0.00  0.00    +0.219 C 
ATOM     21  O   UNL     1      -2.110   2.441   5.942  0.00  0.00    -0.275 OA
ATOM     22  N   UNL     1      -0.807   4.227   5.749  0.00  0.00    -0.305 N 
ATOM     23  C   UNL     1       0.332   4.892   5.097  0.00  0.00    +0.089 C 
ATOM     24  C   UNL     1      -0.160   6.225   4.510  0.00  0.00    -0.060 C 
ATOM     25  C   UNL     1      -2.009   6.322   6.076  0.00  0.00    -0.060 C 
ATOM     26  C   UNL     1      -1.597   4.995   6.723  0.00  0.00    +0.089 C 
ATOM     27  C   UNL     1      -1.142   8.359   5.095  0.00  0.00    -0.096 C 
ATOM     28  N   UNL     1      -0.794   7.011   5.590  0.00  0.00    +0.380 N 
ATOM     29  H   UNL     1      -0.130   7.104   6.369  0.00  0.00    -0.082 HD
ENDBRANCH  18  20
ENDBRANCH  13  18
BRANCH  12  30
ATOM     30  O   UNL     1       1.619   2.190   2.360  0.00  0.00    -0.391 OA
ATOM     31  H   UNL     1       1.996   2.022   3.234  0.00  0.00    +0.210 HD
ENDBRANCH  12  30
BRANCH   8  32
ATOM     32  C   UNL     1       0.717   0.586  -6.347  0.00  0.00    +0.130 C 
BRANCH  32  33
ATOM     33  C   UNL     1       1.681   0.288  -7.466  0.00  0.00    -0.016 C 
ATOM     34  C   UNL     1       1.425  -0.681  -8.310  0.00  0.00    +0.005 C 
ENDBRANCH  32  33
ENDBRANCH   8  32
TORSDOF 5
