REMARK  Name = ZINC06251736
REMARK  6 active torsions:
REMARK  status: ('A' for Active; 'I' for Inactive)
REMARK    1  A    between atoms: C_1  and  C_2
REMARK    2  A    between atoms: C_2  and  C_4
REMARK    3  A    between atoms: C_2  and  O_17
REMARK    4  A    between atoms: N_6  and  N_7
REMARK    5  A    between atoms: N_10  and  C_11
REMARK    6  A    between atoms: O_17  and  C_18
REMARK                            x       y       z     vdW  Elec       q    Type
REMARK                         _______ _______ _______ _____ _____    ______ ____
ROOT
ATOM      1  C   UNL     1      -1.469  -0.321   0.135  0.00  0.00    +0.270 C 
ATOM      2  O   UNL     1      -1.895  -0.800   1.165  0.00  0.00    -0.270 OA
ATOM      3  N   UNL     1      -2.309  -0.064  -0.887  0.00  0.00    -0.230 N 
ATOM      4  H   UNL     1      -1.968   0.320  -1.710  0.00  0.00    +0.173 HD
ENDROOT
BRANCH   3   5
ATOM      5  N   UNL     1      -3.674  -0.350  -0.761  0.00  0.00    -0.218 N 
ATOM      6  C   UNL     1      -4.514  -0.093  -1.783  0.00  0.00    +0.316 C 
ATOM      7  O   UNL     1      -5.699  -0.341  -1.674  0.00  0.00    -0.251 OA
ATOM      8  N   UNL     1      -4.040   0.440  -2.927  0.00  0.00    -0.295 N 
ATOM      9  H   UNL     1      -4.015  -0.733   0.062  0.00  0.00    +0.174 HD
ATOM     10  H   UNL     1      -3.095   0.638  -3.014  0.00  0.00    +0.151 HD
BRANCH   8  11
ATOM     11  C   UNL     1      -4.953   0.720  -4.038  0.00  0.00    +0.074 C 
ATOM     12  C   UNL     1      -5.138  -0.546  -4.877  0.00  0.00    +0.022 C 
ATOM     13  C   UNL     1      -6.091  -0.254  -6.037  0.00  0.00    +0.002 C 
ATOM     14  C   UNL     1      -5.505   0.856  -6.912  0.00  0.00    +0.000 C 
ATOM     15  C   UNL     1      -5.320   2.122  -6.073  0.00  0.00    +0.002 C 
ATOM     16  C   UNL     1      -4.366   1.830  -4.913  0.00  0.00    +0.022 C 
ENDBRANCH   8  11
ENDBRANCH   3   5
BRANCH   1  18
ATOM     17  C   UNL     1       0.193   1.499  -0.139  0.00  0.00    +0.062 C 
ATOM     18  C   UNL     1       0.000  -0.013  -0.000  0.00  0.00    +0.257 C 
BRANCH  18  19
ATOM     19  O   UNL     1       0.693  -0.477   1.160  0.00  0.00    -0.478 OA
BRANCH  19  20
ATOM     20  C   UNL     1       2.014  -0.764   1.016  0.00  0.00    +0.140 A 
ATOM     21  C   UNL     1       2.656  -0.496  -0.184  0.00  0.00    +0.048 A 
ATOM     22  C   UNL     1       3.999  -0.788  -0.329  0.00  0.00    +0.023 A 
ATOM     23  C   UNL     1       4.704  -1.347   0.722  0.00  0.00    +0.043 A 
ATOM     24  C   UNL     1       4.066  -1.616   1.920  0.00  0.00    +0.043 A 
ATOM     25  C   UNL     1       2.724  -1.320   2.071  0.00  0.00    +0.084 A 
ATOM     26 CL   UNL     1       1.925  -1.651   3.576  0.00  0.00    -0.080 Cl
ATOM     27 CL   UNL     1       6.391  -1.714   0.537  0.00  0.00    -0.083 Cl
ENDBRANCH  19  20
ENDBRANCH  18  19
ENDBRANCH   1  18
TORSDOF 5
