REMARK  Name = ZINC02089875
REMARK  10 active torsions:
REMARK  status: ('A' for Active; 'I' for Inactive)
REMARK    1  A    between atoms: C_1  and  C_2
REMARK    2  A    between atoms: C_3  and  C_33
REMARK    3  A    between atoms: C_5  and  N_11
REMARK    4  A    between atoms: C_6  and  C_7
REMARK    5  A    between atoms: C_7  and  O_9
REMARK    6  A    between atoms: O_9  and  C_10
REMARK    7  A    between atoms: C_12  and  C_14
REMARK    8  A    between atoms: C_15  and  N_32
REMARK    9  A    between atoms: C_17  and  C_27
REMARK   10  A    between atoms: C_19  and  C_23
REMARK                            x       y       z     vdW  Elec       q    Type
REMARK                         _______ _______ _______ _____ _____    ______ ____
ROOT
ATOM      1  C   UNL     1      -2.088   5.499   0.395  0.00  0.00    +0.097 A 
ATOM      2  C   UNL     1      -2.397   4.250  -0.105  0.00  0.00    +0.054 A 
ATOM      3  C   UNL     1      -1.319   3.432  -0.628  0.00  0.00    +0.040 A 
ATOM      4  C   UNL     1      -1.387   2.122  -1.199  0.00  0.00    +0.031 A 
ATOM      5  C   UNL     1      -0.210   1.522  -1.634  0.00  0.00    +0.044 A 
ATOM      6  C   UNL     1       0.994   2.191  -1.523  0.00  0.00    +0.146 A 
ATOM      7  N   UNL     1       1.045   3.402  -1.000  0.00  0.00    -0.235 NA
ATOM      8  C   UNL     1      -0.035   4.017  -0.567  0.00  0.00    +0.112 A 
ATOM      9  S   UNL     1      -0.323   5.605   0.174  0.00  0.00    -0.062 S 
ENDROOT
BRANCH   4  10
ATOM     10  C   UNL     1      -2.677   1.421  -1.318  0.00  0.00    +0.136 A 
ATOM     11  C   UNL     1      -2.973   0.197  -0.799  0.00  0.00    +0.050 A 
ATOM     12  C   UNL     1      -4.308  -0.080  -1.149  0.00  0.00    +0.042 A 
ATOM     13  C   UNL     1      -4.756   0.973  -1.865  0.00  0.00    +0.196 A 
ATOM     14  O   UNL     1      -3.769   1.877  -1.964  0.00  0.00    -0.463 OA
ENDBRANCH   4  10
BRANCH   1  16
ATOM     15  N   UNL     1      -2.476   7.640   1.392  0.00  0.00    -0.275 N 
ATOM     16  C   UNL     1      -2.963   6.463   0.951  0.00  0.00    +0.257 C 
ATOM     17  O   UNL     1      -4.156   6.230   1.029  0.00  0.00    -0.269 OA
ATOM     18  H   UNL     1      -1.526   7.825   1.330  0.00  0.00    +0.156 HD
BRANCH  15  23
ATOM     19  C   UNL     1      -3.909  12.003   3.522  0.00  0.00    +0.045 C 
ATOM     20  C   UNL     1      -4.123  10.625   2.950  0.00  0.00    -0.025 A 
ATOM     21  C   UNL     1      -5.348  10.072   2.894  0.00  0.00    -0.008 A 
ATOM     22  S   UNL     1      -5.048   8.485   2.144  0.00  0.00    -0.078 S 
ATOM     23  C   UNL     1      -3.332   8.583   1.935  0.00  0.00    +0.087 A 
ATOM     24  C   UNL     1      -3.022   9.842   2.441  0.00  0.00    +0.091 A 
ATOM     25  C   UNL     1      -6.660  10.658   3.349  0.00  0.00    +0.052 C 
BRANCH  24  26
ATOM     26  C   UNL     1      -1.649  10.348   2.455  0.00  0.00    +0.342 C 
ATOM     27  O   UNL     1      -1.222  10.977   1.505  0.00  0.00    -0.245 OA
BRANCH  26  28
ATOM     28  O   UNL     1      -0.855  10.116   3.521  0.00  0.00    -0.464 OA
ATOM     29  C   UNL     1       0.495  10.647   3.466  0.00  0.00    +0.280 C 
ENDBRANCH  26  28
ENDBRANCH  24  26
ENDBRANCH  15  23
ENDBRANCH   1  16
BRANCH   6  30
ATOM     30  C   UNL     1       2.261   1.532  -2.005  0.00  0.00    +0.434 C 
ATOM     31  F   UNL     1       2.472   1.853  -3.350  0.00  0.00    -0.164 F 
ATOM     32  F   UNL     1       3.342   1.986  -1.242  0.00  0.00    -0.164 F 
ATOM     33  F   UNL     1       2.146   0.144  -1.869  0.00  0.00    -0.164 F 
ENDBRANCH   6  30
BRANCH   2  34
ATOM     34  N   UNL     1      -3.707   3.789  -0.108  0.00  0.00    -0.356 N 
ATOM     35  H   UNL     1      -4.443   4.419  -0.081  0.00  0.00    +0.142 HD
ATOM     36  H   UNL     1      -3.885   2.836  -0.139  0.00  0.00    +0.142 HD
ENDBRANCH   2  34
TORSDOF 7
