REMARK  Name = ZINC06144754
REMARK  8 active torsions:
REMARK  status: ('A' for Active; 'I' for Inactive)
REMARK    1  A    between atoms: C_1  and  C_2
REMARK    2  A    between atoms: C_3  and  C_35
REMARK    3  A    between atoms: C_5  and  N_27
REMARK    4  A    between atoms: C_6  and  C_7
REMARK    5  A    between atoms: C_7  and  C_9
REMARK    6  A    between atoms: C_7  and  N_63
REMARK    7  A    between atoms: N_18  and  C_21
REMARK    8  A    between atoms: C_28  and  C_30
REMARK                            x       y       z     vdW  Elec       q    Type
REMARK                         _______ _______ _______ _____ _____    ______ ____
ROOT
ATOM      1  C   UNL     1       0.042   1.168   0.048  0.00  0.00    -0.004 C 
ENDROOT
BRANCH   1   7
ATOM      2  C   UNL     1       2.023  -0.692   1.100  0.00  0.00    +0.045 C 
ATOM      3  C   UNL     1       2.454   0.601   0.457  0.00  0.00    -0.037 A 
ATOM      4  C   UNL     1       3.768   0.912   0.354  0.00  0.00    -0.008 A 
ATOM      5  S   UNL     1       3.713   2.502  -0.456  0.00  0.00    -0.078 S 
ATOM      6  C   UNL     1       1.940   2.645  -0.612  0.00  0.00    +0.074 A 
ATOM      7  C   UNL     1       1.513   1.483  -0.042  0.00  0.00    -0.025 A 
ATOM      8  C   UNL     1       4.968   0.123   0.811  0.00  0.00    +0.052 C 
BRANCH   6   9
ATOM      9  N   UNL     1       1.187   3.679  -1.172  0.00  0.00    -0.273 N 
ATOM     10  C   UNL     1       1.795   4.809  -1.583  0.00  0.00    +0.284 C 
ATOM     11  O   UNL     1       3.001   4.929  -1.466  0.00  0.00    -0.266 OA
ATOM     12  H   UNL     1       0.226   3.583  -1.265  0.00  0.00    +0.156 HD
BRANCH  10  13
ATOM     13  C   UNL     1       1.004   5.895  -2.171  0.00  0.00    +0.189 A 
ATOM     14  C   UNL     1       1.491   7.087  -2.626  0.00  0.00    +0.054 A 
ATOM     15  C   UNL     1       0.390   7.817  -3.102  0.00  0.00    +0.042 A 
ATOM     16  C   UNL     1      -0.706   7.048  -2.918  0.00  0.00    +0.196 A 
ATOM     17  O   UNL     1      -0.332   5.889  -2.362  0.00  0.00    -0.458 OA
ENDBRANCH  10  13
ENDBRANCH   6   9
ENDBRANCH   1   7
BRANCH   1  18
ATOM     18  C   UNL     1      -0.569   1.945   1.186  0.00  0.00    -0.056 A 
ATOM     19  C   UNL     1      -0.954   3.259   0.996  0.00  0.00    +0.005 A 
ATOM     20  C   UNL     1      -1.520   3.971   2.037  0.00  0.00    +0.038 A 
ATOM     21  C   UNL     1      -1.690   3.371   3.273  0.00  0.00    +0.123 A 
ATOM     22  C   UNL     1      -1.298   2.057   3.464  0.00  0.00    +0.038 A 
ATOM     23  C   UNL     1      -0.739   1.345   2.420  0.00  0.00    +0.005 A 
ATOM     24  F   UNL     1      -2.237   4.068   4.293  0.00  0.00    -0.205 F 
ENDBRANCH   1  18
BRANCH   1  30
ATOM     25  C   UNL     1      -2.065   1.300  -1.138  0.00  0.00    -0.058 C 
ATOM     26  C   UNL     1      -2.724   1.776  -2.435  0.00  0.00    +0.086 C 
ATOM     27  N   UNL     1      -2.129   1.062  -3.574  0.00  0.00    -0.333 N 
ATOM     28  C   UNL     1      -0.681   1.303  -3.646  0.00  0.00    +0.086 C 
ATOM     29  C   UNL     1      -0.023   0.828  -2.349  0.00  0.00    -0.058 C 
ATOM     30  N   UNL     1      -0.613   1.569  -1.215  0.00  0.00    +0.389 N 
ATOM     31  H   UNL     1      -0.468   2.575  -1.361  0.00  0.00    -0.080 HD
BRANCH  27  32
ATOM     32  C   UNL     1      -2.756   1.417  -4.770  0.00  0.00    +0.030 A 
ATOM     33  C   UNL     1      -2.007   1.929  -5.823  0.00  0.00    +0.023 A 
ATOM     34  C   UNL     1      -2.630   2.276  -7.006  0.00  0.00    +0.002 A 
ATOM     35  C   UNL     1      -3.998   2.123  -7.140  0.00  0.00    +0.000 A 
ATOM     36  C   UNL     1      -4.746   1.619  -6.093  0.00  0.00    +0.002 A 
ATOM     37  C   UNL     1      -4.130   1.265  -4.909  0.00  0.00    +0.023 A 
ENDBRANCH  27  32
ENDBRANCH   1  30
TORSDOF 6
