REMARK  Name = ZINC59271729
REMARK  4 active torsions:
REMARK  status: ('A' for Active; 'I' for Inactive)
REMARK    1  A    between atoms: C_12  and  S_15
REMARK    2  A    between atoms: S_15  and  C_16
REMARK    3  A    between atoms: C_16  and  C_17
REMARK    4  A    between atoms: C_22  and  C_25
REMARK                            x       y       z     vdW  Elec       q    Type
REMARK                         _______ _______ _______ _____ _____    ______ ____
ROOT
ATOM      1  C   UNL     1       2.259  -7.190  -0.060  0.00  0.00    +0.173 C 
ENDROOT
BRANCH   1   2
ATOM      2  C   UNL     1       2.800  -8.597  -0.073  0.00  0.00    +0.229 C 
ATOM      3  O   UNL     1       3.998  -8.786  -0.087  0.00  0.00    -0.275 OA
ATOM      4  N   UNL     1       1.952  -9.645  -0.070  0.00  0.00    -0.264 N 
ATOM      5  C   UNL     1       2.451 -10.942  -0.083  0.00  0.00    +0.165 A 
ATOM      6  N   UNL     1       1.797 -12.088  -0.088  0.00  0.00    -0.225 NA
ATOM      7  C   UNL     1       2.440 -13.246  -0.101  0.00  0.00    +0.080 A 
ATOM      8  C   UNL     1       3.807 -13.255  -0.109  0.00  0.00    +0.076 A 
ATOM      9  S   UNL     1       4.149 -11.500  -0.104  0.00  0.00    -0.060 S 
ATOM     10  H   UNL     1       0.994  -9.494  -0.059  0.00  0.00    +0.157 HD
BRANCH   7  11
ATOM     11  C   UNL     1       1.683 -14.522  -0.106  0.00  0.00    +0.001 A 
ATOM     12  C   UNL     1       2.363 -15.739  -0.113  0.00  0.00    +0.011 A 
ATOM     13  C   UNL     1       1.654 -16.923  -0.117  0.00  0.00    +0.016 A 
ATOM     14  C   UNL     1       0.270 -16.904  -0.114  0.00  0.00    +0.018 A 
ATOM     15  C   UNL     1      -0.410 -15.698  -0.107  0.00  0.00    +0.016 A 
ATOM     16  C   UNL     1       0.289 -14.508  -0.097  0.00  0.00    +0.011 A 
ATOM     17 BR   UNL     1      -0.695 -18.530  -0.120  0.00  0.00    -0.050 Br
ENDBRANCH   7  11
ENDBRANCH   1   2
BRANCH   1  18
ATOM     18  S   UNL     1       3.638  -6.012  -0.068  0.00  0.00    -0.075 S 
BRANCH  18  30
ATOM     19  C   UNL     1      -0.017   1.374   0.010  0.00  0.00    +0.001 A 
ATOM     20  C   UNL     1       1.171   2.088   0.002  0.00  0.00    +0.002 A 
ATOM     21  C   UNL     1       2.384   1.432  -0.013  0.00  0.00    +0.026 A 
ATOM     22  C   UNL     1       2.423   0.042  -0.022  0.00  0.00    +0.050 A 
ATOM     23  C   UNL     1       1.220  -0.680  -0.014  0.00  0.00    +0.029 A 
ATOM     24  C   UNL     1       0.002  -0.004   0.002  0.00  0.00    +0.012 A 
ATOM     25  C   UNL     1       1.591  -2.106  -0.025  0.00  0.00    +0.137 A 
ATOM     26  C   UNL     1       3.000  -2.148  -0.040  0.00  0.00    +0.162 A 
ATOM     27  N   UNL     1       3.475  -0.860  -0.037  0.00  0.00    -0.338 N 
ATOM     28  H   UNL     1       4.414  -0.616  -0.046  0.00  0.00    +0.167 HD
ATOM     29  N   UNL     1       3.595  -3.337  -0.052  0.00  0.00    -0.201 NA
ATOM     30  C   UNL     1       2.851  -4.435  -0.051  0.00  0.00    +0.212 A 
ATOM     31  N   UNL     1       1.524  -4.369  -0.037  0.00  0.00    -0.122 NA
ATOM     32  N   UNL     1       0.905  -3.239  -0.025  0.00  0.00    -0.143 NA
ENDBRANCH  18  30
ENDBRANCH   1  18
TORSDOF 4
