REMARK  Name = ZINC65441300
REMARK  8 active torsions:
REMARK  status: ('A' for Active; 'I' for Inactive)
REMARK    1  A    between atoms: C_1  and  C_2
REMARK    2  A    between atoms: C_2  and  C_3
REMARK    3  A    between atoms: C_2  and  N_4
REMARK    4  A    between atoms: C_7  and  C_9
REMARK    5  A    between atoms: C_9  and  N_10
REMARK    6  A    between atoms: N_13  and  C_14
REMARK    7  A    between atoms: C_14  and  C_15
REMARK    8  A    between atoms: C_18  and  C_20
REMARK                            x       y       z     vdW  Elec       q    Type
REMARK                         _______ _______ _______ _____ _____    ______ ____
ROOT
ATOM      1  N   UNL     1      -4.119  -4.048  -1.688  0.00  0.00    -0.299 N 
ATOM      2  C   UNL     1      -4.357  -5.227  -2.294  0.00  0.00    +0.300 C 
ATOM      3  O   UNL     1      -3.460  -6.038  -2.420  0.00  0.00    -0.253 OA
ATOM      4  N   UNL     1      -5.590  -5.508  -2.761  0.00  0.00    -0.292 N 
ATOM      5  H   UNL     1      -4.835  -3.401  -1.587  0.00  0.00    +0.150 HD
ATOM      6  H   UNL     1      -6.305  -4.861  -2.661  0.00  0.00    +0.151 HD
ENDROOT
BRANCH   1   7
ATOM      7  C   UNL     1      -2.779  -3.742  -1.180  0.00  0.00    +0.107 C 
BRANCH   7  11
ATOM      8  N   UNL     1      -1.376  -0.512   0.012  0.00  0.00    +0.381 N 
ATOM      9  C   UNL     1      -2.080  -0.104  -1.222  0.00  0.00    -0.078 C 
ATOM     10  C   UNL     1      -3.020  -1.260  -1.611  0.00  0.00    -0.015 C 
ATOM     11  C   UNL     1      -2.780  -2.351  -0.542  0.00  0.00    -0.012 C 
ATOM     12  C   UNL     1      -1.374  -1.998   0.004  0.00  0.00    -0.074 C 
ATOM     13  H   UNL     1      -1.868  -0.170   0.824  0.00  0.00    -0.081 HD
BRANCH   8  15
ATOM     14  C   UNL     1      -0.019   1.526   0.010  0.00  0.00    -0.014 C 
ATOM     15  C   UNL     1       0.002  -0.004   0.002  0.00  0.00    -0.075 C 
ATOM     16  C   UNL     1       0.742  -0.511   1.242  0.00  0.00    -0.014 C 
ENDBRANCH   8  15
ENDBRANCH   7  11
ENDBRANCH   1   7
BRANCH   4  17
ATOM     17  C   UNL     1      -5.848  -6.791  -3.420  0.00  0.00    +0.180 C 
BRANCH  17  18
ATOM     18  C   UNL     1      -7.293  -6.854  -3.846  0.00  0.00    +0.123 A 
ATOM     19  C   UNL     1      -7.780  -6.449  -5.037  0.00  0.00    +0.047 A 
ATOM     20  C   UNL     1      -9.167  -6.685  -5.018  0.00  0.00    +0.052 A 
ATOM     21  C   UNL     1      -9.456  -7.228  -3.802  0.00  0.00    +0.160 A 
ATOM     22  O   UNL     1      -8.306  -7.329  -3.105  0.00  0.00    -0.456 OA
BRANCH  21  23
ATOM     23  C   UNL     1     -10.788  -7.638  -3.334  0.00  0.00    +0.144 A 
ATOM     24  N   UNL     1     -11.942  -7.575  -3.967  0.00  0.00    -0.236 NA
ATOM     25  C   UNL     1     -13.095  -7.991  -3.409  0.00  0.00    +0.079 A 
ATOM     26  C   UNL     1     -14.393  -7.980  -3.974  0.00  0.00    +0.029 A 
ATOM     27  C   UNL     1     -15.463  -8.439  -3.272  0.00  0.00    +0.002 A 
ATOM     28  C   UNL     1     -15.330  -8.935  -1.983  0.00  0.00    +0.001 A 
ATOM     29  C   UNL     1     -14.079  -8.965  -1.393  0.00  0.00    +0.017 A 
ATOM     30  C   UNL     1     -12.992  -8.503  -2.094  0.00  0.00    +0.040 A 
ATOM     31  S   UNL     1     -11.253  -8.354  -1.764  0.00  0.00    -0.064 S 
ENDBRANCH  21  23
ENDBRANCH  17  18
ENDBRANCH   4  17
TORSDOF 6
