REMARK  Name = ZINC15673896
REMARK  8 active torsions:
REMARK  status: ('A' for Active; 'I' for Inactive)
REMARK    1  A    between atoms: C_1  and  C_2
REMARK    2  A    between atoms: C_3  and  C_17
REMARK    3  A    between atoms: C_4  and  C_16
REMARK    4  A    between atoms: N_5  and  C_7
REMARK    5  A    between atoms: C_12  and  N_13
REMARK    6  A    between atoms: C_20  and  N_56
REMARK    7  A    between atoms: C_24  and  C_25
REMARK    8  A    between atoms: C_24  and  N_56
REMARK                            x       y       z     vdW  Elec       q    Type
REMARK                         _______ _______ _______ _____ _____    ______ ____
ROOT
ATOM      1  C   UNL     1       1.071  -0.051  -0.486  0.00  0.00    +0.044 C 
ATOM      2  C   UNL     1       1.865   1.274  -0.406  0.00  0.00    +0.000 C 
ATOM      3  C   UNL     1       0.820   2.288  -0.926  0.00  0.00    -0.047 C 
ATOM      4  C   UNL     1      -0.516   1.640  -0.647  0.00  0.00    -0.046 C 
ATOM      5  C   UNL     1      -0.379   0.364  -0.408  0.00  0.00    -0.025 C 
ENDROOT
BRANCH   1   8
ATOM      6  C   UNL     1       0.201   0.963  -3.360  0.00  0.00    +0.068 C 
ATOM      7  C   UNL     1       0.963  -0.303  -3.062  0.00  0.00    +0.064 A 
ATOM      8  C   UNL     1       1.347  -0.750  -1.793  0.00  0.00    +0.003 A 
ATOM      9  C   UNL     1       2.005  -1.922  -1.946  0.00  0.00    +0.046 A 
ATOM     10  N   UNL     1       2.040  -2.205  -3.268  0.00  0.00    -0.234 N 
ATOM     11  N   UNL     1       1.383  -1.172  -3.947  0.00  0.00    -0.171 NA
ATOM     12  C   UNL     1       2.593  -2.762  -0.841  0.00  0.00    +0.066 C 
BRANCH  10  13
ATOM     13  C   UNL     1       2.630  -3.334  -3.854  0.00  0.00    +0.096 A 
ATOM     14  C   UNL     1       2.116  -4.598  -3.601  0.00  0.00    +0.030 A 
ATOM     15  C   UNL     1       2.699  -5.708  -4.180  0.00  0.00    +0.002 A 
ATOM     16  C   UNL     1       3.794  -5.561  -5.012  0.00  0.00    +0.002 A 
ATOM     17  C   UNL     1       4.308  -4.302  -5.266  0.00  0.00    +0.035 A 
ATOM     18  C   UNL     1       3.726  -3.188  -4.694  0.00  0.00    +0.151 A 
BRANCH  18  19
ATOM     19  N   UNL     1       4.273  -1.841  -4.972  0.00  0.00    +0.059 N 
ATOM     20  O   UNL     1       5.166  -1.703  -5.788  0.00  0.00    -0.126 OA
ATOM     21  O   UNL     1       3.829  -0.871  -4.384  0.00  0.00    -0.126 OA
ENDBRANCH  18  19
ENDBRANCH  10  13
ENDBRANCH   1   8
BRANCH   3  22
ATOM     22  N   UNL     1       0.939   3.560  -0.189  0.00  0.00    +0.386 N 
ATOM     23  H   UNL     1       1.931   3.758  -0.013  0.00  0.00    -0.085 HD
ATOM     24  H   UNL     1       0.441   3.481   0.706  0.00  0.00    -0.085 HD
BRANCH  22  25
ATOM     25  C   UNL     1       0.354   4.663  -0.975  0.00  0.00    -0.044 C 
BRANCH  25  26
ATOM     26  C   UNL     1       0.489   5.948  -0.198  0.00  0.00    -0.039 A 
ATOM     27  C   UNL     1      -0.469   6.549   0.525  0.00  0.00    +0.085 A 
ATOM     28  N   UNL     1       0.022   7.694   1.091  0.00  0.00    -0.360 N 
ATOM     29  H   UNL     1      -0.483   8.295   1.660  0.00  0.00    +0.165 HD
ATOM     30  C   UNL     1       1.339   7.867   0.729  0.00  0.00    +0.047 A 
ATOM     31  C   UNL     1       1.690   6.781  -0.094  0.00  0.00    +0.001 A 
ATOM     32  C   UNL     1       2.981   6.691  -0.616  0.00  0.00    +0.010 A 
ATOM     33  C   UNL     1       3.900   7.660  -0.325  0.00  0.00    +0.001 A 
ATOM     34  C   UNL     1       3.559   8.733   0.487  0.00  0.00    +0.002 A 
ATOM     35  C   UNL     1       2.290   8.841   1.013  0.00  0.00    +0.026 A 
ENDBRANCH  25  26
ENDBRANCH  22  25
ENDBRANCH   3  22
TORSDOF 6
