REMARK  Name = ZINC39667068
REMARK  8 active torsions:
REMARK  status: ('A' for Active; 'I' for Inactive)
REMARK    1  A    between atoms: C_1  and  C_2
REMARK    2  A    between atoms: C_5  and  C_9
REMARK    3  A    between atoms: C_6  and  C_8
REMARK    4  A    between atoms: C_9  and  C_10
REMARK    5  A    between atoms: C_10  and  N_11
REMARK    6  A    between atoms: C_12  and  C_14
REMARK    7  A    between atoms: C_25  and  C_27
REMARK    8  A    between atoms: C_31  and  C_33
REMARK                            x       y       z     vdW  Elec       q    Type
REMARK                         _______ _______ _______ _____ _____    ______ ____
ROOT
ATOM      1  C   UNL     1      -2.219  -9.104   0.153  0.00  0.00    +0.100 C 
ATOM      2  C   UNL     1      -1.386  -9.306   1.438  0.00  0.00    +0.121 C 
ATOM      3  N   UNL     1      -2.391  -9.509   2.508  0.00  0.00    -0.296 N 
ATOM      4  C   UNL     1      -3.439 -10.345   1.875  0.00  0.00    +0.115 C 
ATOM      5  C   UNL     1      -3.564  -9.790   0.442  0.00  0.00    -0.004 C 
ATOM      6  C   UNL     1      -3.800 -10.928  -0.546  0.00  0.00    -0.010 C 
ATOM      7  C   UNL     1      -5.170 -11.558  -0.276  0.00  0.00    -0.082 C 
ATOM      8  N   UNL     1      -6.215 -10.537  -0.416  0.00  0.00    +0.379 N 
ATOM      9  C   UNL     1      -6.035  -9.493   0.600  0.00  0.00    -0.082 C 
ATOM     10  C   UNL     1      -4.702  -8.776   0.367  0.00  0.00    -0.010 C 
ATOM     11  C   UNL     1      -2.360  -9.040   3.771  0.00  0.00    +0.247 C 
ATOM     12  O   UNL     1      -1.491  -8.259   4.108  0.00  0.00    -0.270 OA
ATOM     13  H   UNL     1      -6.160 -10.124  -1.334  0.00  0.00    -0.086 HD
ATOM     14  H   UNL     1      -7.121 -10.967  -0.297  0.00  0.00    -0.086 HD
ENDROOT
BRANCH  11  15
ATOM     15  C   UNL     1      -3.381  -9.474   4.746  0.00  0.00    +0.037 A 
ATOM     16  C   UNL     1      -4.096 -10.655   4.534  0.00  0.00    +0.014 A 
ATOM     17  C   UNL     1      -5.048 -11.055   5.447  0.00  0.00    +0.016 A 
ATOM     18  C   UNL     1      -5.296 -10.289   6.574  0.00  0.00    +0.021 A 
ATOM     19  C   UNL     1      -4.591  -9.117   6.790  0.00  0.00    -0.036 A 
ATOM     20  C   UNL     1      -3.632  -8.709   5.887  0.00  0.00    +0.017 A 
ATOM     21  C   UNL     1      -4.867  -8.289   8.018  0.00  0.00    +0.045 C 
ATOM     22 BR   UNL     1      -6.604 -10.844   7.821  0.00  0.00    -0.050 Br
ENDBRANCH  11  15
BRANCH   1  24
ATOM     23  N   UNL     1      -2.686  -7.206  -1.364  0.00  0.00    -0.315 N 
ATOM     24  C   UNL     1      -2.426  -7.635  -0.113  0.00  0.00    +0.218 C 
ATOM     25  O   UNL     1      -2.359  -6.838   0.799  0.00  0.00    -0.275 OA
ATOM     26  H   UNL     1      -2.739  -7.843  -2.094  0.00  0.00    +0.149 HD
BRANCH  23  27
ATOM     27  C   UNL     1      -2.887  -5.778  -1.622  0.00  0.00    +0.109 C 
BRANCH  27  28
ATOM     28  C   UNL     1      -3.163  -5.563  -3.111  0.00  0.00    +0.054 C 
BRANCH  28  33
ATOM     29  C   UNL     1      -3.957   0.070  -4.126  0.00  0.00    +0.044 C 
ATOM     30  C   UNL     1      -3.750  -1.399  -3.862  0.00  0.00    -0.050 A 
ATOM     31  C   UNL     1      -4.839  -2.222  -3.644  0.00  0.00    +0.003 A 
ATOM     32  C   UNL     1      -4.649  -3.570  -3.401  0.00  0.00    +0.004 A 
ATOM     33  C   UNL     1      -3.370  -4.094  -3.377  0.00  0.00    -0.043 A 
ATOM     34  C   UNL     1      -2.282  -3.271  -3.595  0.00  0.00    -0.047 A 
ATOM     35  C   UNL     1      -2.472  -1.924  -3.842  0.00  0.00    +0.007 A 
ATOM     36  C   UNL     1      -0.888  -3.843  -3.568  0.00  0.00    +0.044 C 
ENDBRANCH  28  33
ENDBRANCH  27  28
ENDBRANCH  23  27
ENDBRANCH   1  24
TORSDOF 5
