REMARK  Name = ZINC35565779
REMARK  12 active torsions:
REMARK  status: ('A' for Active; 'I' for Inactive)
REMARK    1  A    between atoms: C_1  and  C_2
REMARK    2  A    between atoms: C_3  and  C_8
REMARK    3  A    between atoms: C_5  and  C_7
REMARK    4  A    between atoms: C_8  and  C_10
REMARK    5  A    between atoms: C_15  and  C_17
REMARK    6  A    between atoms: C_20  and  C_23
REMARK    7  A    between atoms: C_23  and  C_24
REMARK    8  A    between atoms: C_23  and  C_25
REMARK    9  A    between atoms: C_28  and  C_35
REMARK   10  A    between atoms: C_29  and  C_31
REMARK   11  A    between atoms: C_31  and  O_33
REMARK   12  A    between atoms: O_33  and  C_34
REMARK                            x       y       z     vdW  Elec       q    Type
REMARK                         _______ _______ _______ _____ _____    ______ ____
ROOT
ATOM      1  C   UNL     1      -0.009  -1.164  -3.864  0.00  0.00    +0.077 C 
ATOM      2  C   UNL     1       0.092  -0.901  -5.187  0.00  0.00    +0.250 C 
ATOM      3  C   UNL     1       0.216  -2.172  -5.927  0.00  0.00    +0.293 C 
ATOM      4  O   UNL     1       0.324  -2.268  -7.134  0.00  0.00    -0.266 OA
ATOM      5  N   UNL     1       0.192  -3.208  -5.069  0.00  0.00    -0.232 N 
ATOM      6  C   UNL     1       0.056  -2.666  -3.712  0.00  0.00    +0.152 C 
ATOM      7  C   UNL     1       0.285  -4.545  -5.406  0.00  0.00    +0.169 A 
ATOM      8  N   UNL     1       0.419  -5.078  -6.607  0.00  0.00    -0.229 NA
ATOM      9  C   UNL     1       0.495  -6.373  -6.776  0.00  0.00    +0.062 A 
ATOM     10  C   UNL     1       0.427  -7.150  -5.626  0.00  0.00    +0.120 A 
ATOM     11  S   UNL     1       0.261  -5.880  -4.382  0.00  0.00    -0.045 S 
ATOM     12  C   UNL     1       0.648  -6.989  -8.143  0.00  0.00    +0.067 C 
ATOM     13  O   UNL     1       0.080   0.333  -5.745  0.00  0.00    -0.282 OA
ENDROOT
BRANCH   6  14
ATOM     14  C   UNL     1      -1.212  -3.178  -3.077  0.00  0.00    -0.022 A 
ATOM     15  C   UNL     1      -2.360  -3.309  -3.835  0.00  0.00    +0.006 A 
ATOM     16  C   UNL     1      -3.523  -3.779  -3.253  0.00  0.00    +0.004 A 
ATOM     17  C   UNL     1      -3.536  -4.118  -1.913  0.00  0.00    -0.045 A 
ATOM     18  C   UNL     1      -2.388  -3.987  -1.155  0.00  0.00    +0.004 A 
ATOM     19  C   UNL     1      -1.224  -3.522  -1.739  0.00  0.00    +0.006 A 
BRANCH  17  20
ATOM     20  C   UNL     1      -4.804  -4.628  -1.278  0.00  0.00    +0.013 C 
ATOM     21  C   UNL     1      -4.566  -6.035  -0.724  0.00  0.00    +0.012 C 
ATOM     22  C   UNL     1      -5.216  -3.694  -0.139  0.00  0.00    +0.012 C 
ENDBRANCH  17  20
ENDBRANCH   6  14
BRANCH   1  23
ATOM     23  C   UNL     1      -0.148  -0.180  -2.784  0.00  0.00    +0.203 C 
ATOM     24  O   UNL     1      -1.161   0.490  -2.697  0.00  0.00    -0.286 OA
BRANCH  23  27
ATOM     25  C   UNL     1      -0.014   1.936  -0.485  0.00  0.00    +0.067 C 
ATOM     26  C   UNL     1       1.053   0.910  -0.769  0.00  0.00    +0.057 A 
ATOM     27  C   UNL     1       0.934  -0.004  -1.809  0.00  0.00    +0.082 A 
ATOM     28  S   UNL     1       2.464  -0.907  -1.625  0.00  0.00    -0.069 S 
ATOM     29  C   UNL     1       3.073  -0.064  -0.301  0.00  0.00    +0.076 A 
ATOM     30  N   UNL     1       2.147   0.834  -0.054  0.00  0.00    -0.249 NA
ATOM     31  C   UNL     1       4.375  -0.285   0.424  0.00  0.00    +0.073 C 
ENDBRANCH  23  27
ENDBRANCH   1  23
BRANCH  10  32
ATOM     32  C   UNL     1       0.481  -8.603  -5.477  0.00  0.00    +0.347 C 
ATOM     33  O   UNL     1       0.603  -9.312  -6.458  0.00  0.00    -0.244 OA
BRANCH  32  34
ATOM     34  O   UNL     1       0.396  -9.159  -4.250  0.00  0.00    -0.464 OA
ATOM     35  C   UNL     1       0.455 -10.584  -4.178  0.00  0.00    +0.280 C 
ENDBRANCH  32  34
ENDBRANCH  10  32
TORSDOF 6
