REMARK  Name = ZINC35024507
REMARK  13 active torsions:
REMARK  status: ('A' for Active; 'I' for Inactive)
REMARK    1  A    between atoms: C_1  and  C_2
REMARK    2  A    between atoms: C_4  and  O_31
REMARK    3  A    between atoms: C_10  and  C_11
REMARK    4  A    between atoms: C_10  and  C_12
REMARK    5  A    between atoms: C_15  and  O_30
REMARK    6  A    between atoms: C_19  and  C_29
REMARK    7  A    between atoms: C_22  and  O_28
REMARK    8  A    between atoms: C_24  and  C_26
REMARK    9  A    between atoms: C_26  and  O_27
REMARK   10  A    between atoms: O_31  and  C_32
REMARK   11  A    between atoms: C_32  and  C_34
REMARK   12  A    between atoms: C_34  and  C_35
REMARK   13  A    between atoms: C_34  and  C_36
REMARK                            x       y       z     vdW  Elec       q    Type
REMARK                         _______ _______ _______ _____ _____    ______ ____
ROOT
ATOM      1  C   UNL     1      -0.019   1.523   0.010  0.00  0.00    +0.014 C 
ATOM      2  C   UNL     1       0.002  -0.004   0.002  0.00  0.00    +0.060 C 
ATOM      3  C   UNL     1      -1.436  -0.529  -0.019  0.00  0.00    +0.186 C 
ATOM      4  C   UNL     1      -2.160   0.017   1.208  0.00  0.00    +0.040 C 
ATOM      5  C   UNL     1      -1.349   0.218   2.481  0.00  0.00    +0.012 C 
ATOM      6  C   UNL     1      -2.400  -0.877   2.421  0.00  0.00    -0.025 C 
ATOM      7  C   UNL     1      -3.708  -0.633   3.198  0.00  0.00    +0.011 C 
ATOM      8  C   UNL     1      -1.985  -2.344   2.352  0.00  0.00    +0.011 C 
ATOM      9  C   UNL     1       0.137  -0.072   2.523  0.00  0.00    +0.048 C 
ATOM     10  C   UNL     1       0.743  -0.554   1.225  0.00  0.00    +0.088 C 
ATOM     11  C   UNL     1       2.199  -0.115   1.136  0.00  0.00    +0.084 C 
ATOM     12  C   UNL     1       2.899  -0.736  -0.046  0.00  0.00    -0.011 C 
ATOM     13  C   UNL     1       4.145  -1.056   0.297  0.00  0.00    -0.009 C 
ATOM     14  C   UNL     1       4.420  -0.724   1.696  0.00  0.00    +0.191 C 
ATOM     15  O   UNL     1       5.500  -0.672   2.243  0.00  0.00    -0.289 OA
ATOM     16  C   UNL     1       3.051  -0.493   2.349  0.00  0.00    +0.140 C 
ATOM     17  C   UNL     1       2.625  -1.839   2.929  0.00  0.00    +0.076 C 
ATOM     18  C   UNL     1       1.466  -1.721   3.859  0.00  0.00    -0.045 C 
ATOM     19  C   UNL     1       0.426  -0.976   3.684  0.00  0.00    -0.019 C 
ATOM     20  C   UNL     1       5.146  -1.677  -0.643  0.00  0.00    +0.047 C 
ENDROOT
BRANCH  16  21
ATOM     21  O   UNL     1       3.106   0.541   3.341  0.00  0.00    -0.380 OA
ATOM     22  H   UNL     1       3.642   0.316   4.114  0.00  0.00    +0.211 HD
ENDBRANCH  16  21
BRANCH  10  23
ATOM     23  O   UNL     1       0.670  -1.981   1.154  0.00  0.00    -0.387 OA
ATOM     24  H   UNL     1       1.072  -2.356   0.358  0.00  0.00    +0.210 HD
ENDBRANCH  10  23
BRANCH  18  25
ATOM     25  C   UNL     1       1.509  -2.550   5.123  0.00  0.00    +0.186 C 
BRANCH  25  26
ATOM     26  O   UNL     1       0.326  -2.314   5.888  0.00  0.00    -0.391 OA
ATOM     27  H   UNL     1       0.285  -2.814   6.715  0.00  0.00    +0.210 HD
ENDBRANCH  25  26
ENDBRANCH  18  25
BRANCH   3  28
ATOM     28  O   UNL     1      -2.089  -0.054  -1.206  0.00  0.00    -0.460 OA
BRANCH  28  29
ATOM     29  C   UNL     1      -2.002  -0.827  -2.300  0.00  0.00    +0.310 C 
ATOM     30  O   UNL     1      -1.394  -1.870  -2.256  0.00  0.00    -0.251 OA
BRANCH  29  31
ATOM     31  C   UNL     1      -2.663  -0.393  -3.583  0.00  0.00    +0.092 C 
ATOM     32  C   UNL     1      -2.413  -1.444  -4.666  0.00  0.00    +0.019 C 
ATOM     33  C   UNL     1      -4.168  -0.241  -3.356  0.00  0.00    +0.019 C 
ENDBRANCH  29  31
ENDBRANCH  28  29
ENDBRANCH   3  28
TORSDOF 7
