REMARK  Name = ZINC37252996
REMARK  5 active torsions:
REMARK  status: ('A' for Active; 'I' for Inactive)
REMARK    1  A    between atoms: C_1  and  C_2
REMARK    2  A    between atoms: C_7  and  N_10
REMARK    3  A    between atoms: C_11  and  C_13
REMARK    4  A    between atoms: C_17  and  S_19
REMARK    5  A    between atoms: S_19  and  N_22
REMARK                            x       y       z     vdW  Elec       q    Type
REMARK                         _______ _______ _______ _____ _____    ______ ____
ROOT
ATOM      1  C   UNL     1      -2.260  -4.288   1.743  0.00  0.00    +0.039 A 
ATOM      2  C   UNL     1      -3.300  -3.504   1.242  0.00  0.00    +0.013 A 
ATOM      3  C   UNL     1      -4.592  -3.987   1.254  0.00  0.00    +0.003 A 
ATOM      4  C   UNL     1      -4.858  -5.247   1.762  0.00  0.00    +0.028 A 
ATOM      5  C   UNL     1      -3.832  -6.029   2.261  0.00  0.00    +0.106 A 
ATOM      6  C   UNL     1      -2.534  -5.559   2.249  0.00  0.00    +0.041 A 
ENDROOT
BRANCH   1   8
ATOM      7  N   UNL     1      -0.612  -2.548   1.244  0.00  0.00    -0.308 N 
ATOM      8  C   UNL     1      -0.873  -3.776   1.733  0.00  0.00    +0.244 C 
ATOM      9  O   UNL     1       0.032  -4.463   2.165  0.00  0.00    -0.270 OA
ATOM     10  H   UNL     1      -1.333  -2.000   0.898  0.00  0.00    +0.149 HD
BRANCH   7  16
ATOM     11  C   UNL     1      -0.019   1.526   0.010  0.00  0.00    +0.007 C 
ATOM     12  C   UNL     1       0.002  -0.004   0.002  0.00  0.00    -0.012 C 
ATOM     13  C   UNL     1       0.718  -0.497  -1.257  0.00  0.00    +0.003 C 
ATOM     14  C   UNL     1       0.739  -2.027  -1.265  0.00  0.00    +0.002 C 
ATOM     15  C   UNL     1       1.479  -2.534  -0.026  0.00  0.00    +0.022 C 
ATOM     16  C   UNL     1       0.763  -2.041   1.233  0.00  0.00    +0.073 C 
ATOM     17  C   UNL     1       0.742  -0.511   1.242  0.00  0.00    +0.025 C 
ENDBRANCH   7  16
ENDBRANCH   1   8
BRANCH   5  18
ATOM     18  S   UNL     1      -4.181  -7.631   2.906  0.00  0.00    +0.056 S 
ATOM     19  O   UNL     1      -3.130  -7.943   3.810  0.00  0.00    -0.153 OA
ATOM     20  O   UNL     1      -5.546  -7.621   3.300  0.00  0.00    -0.153 OA
BRANCH  18  21
ATOM     21  N   UNL     1      -4.058  -8.702   1.650  0.00  0.00    -0.204 NA
ATOM     22  H   UNL     1      -3.829  -8.385   0.762  0.00  0.00    +0.144 HD
ATOM     23  H   UNL     1      -4.216  -9.647   1.801  0.00  0.00    +0.144 HD
ENDBRANCH  18  21
ENDBRANCH   5  18
TORSDOF 4
