REMARK  Name = ZINC29037886
REMARK  8 active torsions:
REMARK  status: ('A' for Active; 'I' for Inactive)
REMARK    1  A    between atoms: C_1  and  C_2
REMARK    2  A    between atoms: C_2  and  C_3
REMARK    3  A    between atoms: C_2  and  C_4
REMARK    4  A    between atoms: C_6  and  C_12
REMARK    5  A    between atoms: C_9  and  C_10
REMARK    6  A    between atoms: C_18  and  C_20
REMARK    7  A    between atoms: C_22  and  C_30
REMARK    8  A    between atoms: N_32  and  O_33
REMARK                            x       y       z     vdW  Elec       q    Type
REMARK                         _______ _______ _______ _____ _____    ______ ____
ROOT
ATOM      1  C   UNL     1       5.247  -0.893   1.896  0.00  0.00    -0.041 C 
ATOM      2  C   UNL     1       6.551  -0.826   1.764  0.00  0.00    -0.004 C 
ATOM      3  C   UNL     1       7.399   0.219   2.436  0.00  0.00    +0.135 C 
ATOM      4  N   UNL     1       6.526   1.250   3.016  0.00  0.00    -0.299 N 
ATOM      5  C   UNL     1       5.319   0.792   3.727  0.00  0.00    +0.112 C 
ATOM      6  C   UNL     1       4.430   0.056   2.722  0.00  0.00    +0.054 C 
ATOM      7  C   UNL     1       6.817   2.561   2.902  0.00  0.00    +0.203 C 
ATOM      8  O   UNL     1       6.041   3.393   3.322  0.00  0.00    -0.277 OA
ENDROOT
BRANCH   7   9
ATOM      9  C   UNL     1       8.107   2.992   2.254  0.00  0.00    +0.028 C 
ATOM     10  C   UNL     1       9.189   3.142   3.325  0.00  0.00    +0.072 C 
ATOM     11  C   UNL     1      10.514   3.522   2.653  0.00  0.00    +0.016 C 
ATOM     12  C   UNL     1      10.284   4.771   1.796  0.00  0.00    -0.044 C 
ATOM     13  C   UNL     1      10.578   6.131   2.428  0.00  0.00    +0.005 C 
ATOM     14  C   UNL     1      11.511   5.567   1.354  0.00  0.00    +0.005 C 
ATOM     15  C   UNL     1       9.105   4.676   0.823  0.00  0.00    -0.075 C 
ATOM     16  N   UNL     1       7.903   4.274   1.569  0.00  0.00    +0.387 N 
ATOM     17  H   UNL     1       7.066   4.183   0.861  0.00  0.00    -0.085 HD
ATOM     18  H   UNL     1       7.673   5.054   2.310  0.00  0.00    -0.085 HD
BRANCH  10  19
ATOM     19  C   UNL     1       9.354   1.836   4.059  0.00  0.00    +0.237 C 
ATOM     20  O   UNL     1      10.151   1.013   3.662  0.00  0.00    -0.273 OA
ATOM     21  N   UNL     1       8.615   1.583   5.158  0.00  0.00    -0.197 N 
ATOM     22  H   UNL     1       7.930   2.350   5.549  0.00  0.00    +0.182 HD
BRANCH  21  23
ATOM     23  O   UNL     1       8.721   0.331   5.810  0.00  0.00    -0.295 OA
ATOM     24  H   UNL     1       8.119   0.124   6.707  0.00  0.00    +0.241 HD
ENDBRANCH  21  23
ENDBRANCH  10  19
ENDBRANCH   7   9
BRANCH   1  27
ATOM     25  C   UNL     1       3.861  -3.023  -0.863  0.00  0.00    -0.027 A 
ATOM     26  C   UNL     1       4.526  -2.012  -0.206  0.00  0.00    +0.013 A 
ATOM     27  C   UNL     1       4.539  -1.979   1.190  0.00  0.00    -0.022 A 
ATOM     28  C   UNL     1       3.885  -2.976   1.919  0.00  0.00    +0.009 A 
ATOM     29  C   UNL     1       3.229  -3.982   1.269  0.00  0.00    +0.020 A 
ATOM     30  C   UNL     1       3.209  -4.018  -0.129  0.00  0.00    +0.055 A 
BRANCH  25  32
ATOM     31  C   UNL     1       5.275  -3.153  -2.896  0.00  0.00    +0.012 C 
ATOM     32  C   UNL     1       3.841  -3.061  -2.369  0.00  0.00    +0.014 C 
ATOM     33  C   UNL     1       3.183  -1.787  -2.902  0.00  0.00    +0.012 C 
ENDBRANCH  25  32
BRANCH  30  34
ATOM     34  C   UNL     1       2.521  -5.075  -0.808  0.00  0.00    +0.099 C 
ATOM     35  N   UNL     1       1.976  -5.913  -1.347  0.00  0.00    -0.191 NA
ENDBRANCH  30  34
ENDBRANCH   1  27
TORSDOF 6
