REMARK  Name = ZINC39749575
REMARK  12 active torsions:
REMARK  status: ('A' for Active; 'I' for Inactive)
REMARK    1  A    between atoms: C_1  and  C_2
REMARK    2  A    between atoms: C_5  and  N_8
REMARK    3  A    between atoms: C_9  and  C_11
REMARK    4  A    between atoms: C_11  and  C_13
REMARK    5  A    between atoms: C_11  and  S_14
REMARK    6  A    between atoms: S_14  and  C_15
REMARK    7  A    between atoms: C_18  and  CA_26
REMARK    8  A    between atoms: N_19  and  C_20
REMARK    9  A    between atoms: CA_26  and  C_28
REMARK   10  A    between atoms: CA_26  and  N_30
REMARK   11  A    between atoms: C_28  and  O_29
REMARK   12  A    between atoms: C_31  and  C_33
REMARK                            x       y       z     vdW  Elec       q    Type
REMARK                         _______ _______ _______ _____ _____    ______ ____
ROOT
ATOM      1  C   UNL     1      -0.201  -8.771   2.469  0.00  0.00    +0.197 A 
ATOM      2  N   UNL     1       0.205  -9.400   1.390  0.00  0.00    -0.122 NA
ATOM      3  N   UNL     1       0.132 -10.670   1.570  0.00  0.00    -0.131 NA
ATOM      4  C   UNL     1      -0.322 -10.929   2.764  0.00  0.00    +0.161 A 
ATOM      5  N   UNL     1      -0.545  -9.729   3.384  0.00  0.00    -0.273 N 
ENDROOT
BRANCH   5   6
ATOM      6  C   UNL     1      -1.029  -9.523   4.684  0.00  0.00    +0.050 A 
ATOM      7  C   UNL     1      -0.273  -9.921   5.778  0.00  0.00    +0.026 A 
ATOM      8  C   UNL     1      -0.751  -9.717   7.058  0.00  0.00    +0.002 A 
ATOM      9  C   UNL     1      -1.982  -9.118   7.249  0.00  0.00    +0.000 A 
ATOM     10  C   UNL     1      -2.738  -8.720   6.162  0.00  0.00    +0.002 A 
ATOM     11  C   UNL     1      -2.262  -8.916   4.880  0.00  0.00    +0.026 A 
ENDBRANCH   5   6
BRANCH   1  12
ATOM     12  S   UNL     1      -0.281  -7.026   2.698  0.00  0.00    -0.073 S 
BRANCH  12  13
ATOM     13  C   UNL     1       0.309  -6.349   1.121  0.00  0.00    +0.137 C 
ATOM     14  C   UNL     1       1.777  -6.729   0.921  0.00  0.00    +0.029 C 
BRANCH  13  16
ATOM     15  N   UNL     1       0.059  -4.170  -0.021  0.00  0.00    -0.285 N 
ATOM     16  C   UNL     1       0.175  -4.848   1.138  0.00  0.00    +0.230 C 
ATOM     17  O   UNL     1       0.173  -4.251   2.193  0.00  0.00    -0.274 OA
ATOM     18  H   UNL     1      -0.017  -4.651  -0.860  0.00  0.00    +0.155 HD
BRANCH  15  23
ATOM     19  C   UNL     1       0.008   1.503   0.007  0.00  0.00    +0.044 C 
ATOM     20  C   UNL     1       0.022  -0.004  -0.001  0.00  0.00    -0.050 A 
ATOM     21  C   UNL     1       0.777  -0.692   0.931  0.00  0.00    +0.005 A 
ATOM     22  C   UNL     1       0.791  -2.073   0.927  0.00  0.00    +0.023 A 
ATOM     23  C   UNL     1       0.046  -2.771  -0.014  0.00  0.00    +0.033 A 
ATOM     24  C   UNL     1      -0.712  -2.077  -0.948  0.00  0.00    +0.023 A 
ATOM     25  C   UNL     1      -0.726  -0.696  -0.936  0.00  0.00    +0.005 A 
ENDBRANCH  15  23
ENDBRANCH  13  16
ENDBRANCH  12  13
ENDBRANCH   1  12
BRANCH   4  26
ATOM     26  CA  UNL     1      -0.552 -12.296   3.355  0.00  0.00    +0.167 C 
BRANCH  26  27
ATOM     27  N   UNL     1      -1.227 -13.146   2.371  0.00  0.00    -0.299 N 
ATOM     28  C   UNL     1      -1.974 -14.190   2.782  0.00  0.00    +0.247 C 
ATOM     29  O   UNL     1      -2.088 -14.426   3.970  0.00  0.00    -0.270 OA
ATOM     30  H   UNL     1      -1.136 -12.958   1.424  0.00  0.00    +0.150 HD
BRANCH  28  31
ATOM     31  C   UNL     1      -2.655 -15.047   1.791  0.00  0.00    +0.072 A 
ATOM     32  C   UNL     1      -2.522 -14.783   0.426  0.00  0.00    +0.016 A 
ATOM     33  C   UNL     1      -3.159 -15.587  -0.495  0.00  0.00    +0.001 A 
ATOM     34  C   UNL     1      -3.931 -16.655  -0.071  0.00  0.00    +0.003 A 
ATOM     35  C   UNL     1      -4.069 -16.925   1.278  0.00  0.00    +0.039 A 
ATOM     36  C   UNL     1      -3.430 -16.131   2.213  0.00  0.00    +0.135 A 
ATOM     37  F   UNL     1      -3.561 -16.398   3.531  0.00  0.00    -0.205 F 
ENDBRANCH  28  31
ENDBRANCH  26  27
BRANCH  26  38
ATOM     38  C   UNL     1       0.793 -12.922   3.732  0.00  0.00    +0.186 C 
BRANCH  38  39
ATOM     39  O   UNL     1       1.651 -12.932   2.589  0.00  0.00    -0.393 OA
ATOM     40  H   UNL     1       2.523 -13.315   2.755  0.00  0.00    +0.209 HD
ENDBRANCH  38  39
ENDBRANCH  26  38
ENDBRANCH   4  26
TORSDOF 10
