REMARK  Name = ZINC60614809
REMARK  2 active torsions:
REMARK  status: ('A' for Active; 'I' for Inactive)
REMARK    1  A    between atoms: C_6  and  C_7
REMARK    2  A    between atoms: C_14  and  C_16
REMARK                            x       y       z     vdW  Elec       q    Type
REMARK                         _______ _______ _______ _____ _____    ______ ____
ROOT
ATOM      1  C   UNL     1      -1.451  -0.800  -0.572  0.00  0.00    +0.183 A 
ATOM      2  N   UNL     1      -1.523  -2.134  -0.458  0.00  0.00    -0.193 NA
ATOM      3  H   UNL     1      -4.520  -1.368  -0.542  0.00  0.00    +0.192 HD
ATOM      4  C   UNL     1      -2.782  -2.508  -0.434  0.00  0.00    +0.218 A 
ATOM      5  N   UNL     1      -3.550  -1.402  -0.533  0.00  0.00    -0.246 N 
ATOM      6  N   UNL     1      -2.670  -0.311  -0.616  0.00  0.00    -0.151 NA
ATOM      7  N   UNL     1      -3.242  -3.813  -0.325  0.00  0.00    -0.255 N 
ATOM      8  C   UNL     1      -4.567  -4.061  -0.312  0.00  0.00    +0.223 C 
ATOM      9  O   UNL     1      -5.357  -3.145  -0.396  0.00  0.00    -0.275 OA
ATOM     10  H   UNL     1      -2.611  -4.546  -0.258  0.00  0.00    +0.158 HD
ENDROOT
BRANCH   8  11
ATOM     11  C   UNL     1      -5.067  -5.478  -0.194  0.00  0.00    +0.078 C 
ATOM     12  C   UNL     1      -4.562  -6.089   1.115  0.00  0.00    +0.032 C 
ATOM     13  C   UNL     1      -5.043  -7.540   1.216  0.00  0.00    +0.110 C 
ATOM     14  N   UNL     1      -6.504  -7.566   1.062  0.00  0.00    -0.285 N 
ATOM     15  C   UNL     1      -7.101  -6.926  -0.118  0.00  0.00    +0.110 C 
ATOM     16  C   UNL     1      -6.597  -5.481  -0.203  0.00  0.00    +0.032 C 
ATOM     17  C   UNL     1      -7.281  -8.166   1.985  0.00  0.00    +0.305 C 
ATOM     18  O   UNL     1      -8.486  -8.007   1.961  0.00  0.00    -0.252 OA
ATOM     19  N   UNL     1      -6.723  -8.942   2.935  0.00  0.00    -0.285 N 
ATOM     20  C   UNL     1      -5.282  -9.073   3.196  0.00  0.00    +0.109 C 
ATOM     21  C   UNL     1      -5.116 -10.084   4.351  0.00  0.00    +0.020 C 
ATOM     22  C   UNL     1      -6.438 -10.893   4.296  0.00  0.00    +0.020 C 
ATOM     23  C   UNL     1      -7.456  -9.796   3.887  0.00  0.00    +0.109 C 
ENDBRANCH   8  11
BRANCH   1  29
ATOM     24  C   UNL     1      -0.258   1.382  -0.752  0.00  0.00    +0.014 A 
ATOM     25  C   UNL     1       0.909   2.117  -0.807  0.00  0.00    +0.039 A 
ATOM     26  C   UNL     1       2.136   1.478  -0.745  0.00  0.00    +0.123 A 
ATOM     27  C   UNL     1       2.199   0.099  -0.627  0.00  0.00    +0.039 A 
ATOM     28  C   UNL     1       1.038  -0.644  -0.571  0.00  0.00    +0.014 A 
ATOM     29  C   UNL     1      -0.199  -0.006  -0.633  0.00  0.00    +0.021 A 
ATOM     30  F   UNL     1       3.276   2.201  -0.800  0.00  0.00    -0.205 F 
ENDBRANCH   1  29
TORSDOF 2
