REMARK  Name = ZINC14556924
REMARK  7 active torsions:
REMARK  status: ('A' for Active; 'I' for Inactive)
REMARK    1  A    between atoms: C_1  and  O_2
REMARK    2  A    between atoms: O_2  and  C_3
REMARK    3  A    between atoms: C_8  and  C_9
REMARK    4  A    between atoms: N_11  and  C_12
REMARK    5  A    between atoms: C_12  and  N_14
REMARK    6  A    between atoms: N_14  and  C_15
REMARK    7  A    between atoms: C_19  and  C_21
REMARK                            x       y       z     vdW  Elec       q    Type
REMARK                         _______ _______ _______ _____ _____    ______ ____
ROOT
ATOM      1  N   UNL     1       3.643   7.455  -1.008  0.00  0.00    -0.297 N 
ATOM      2  H   UNL     1       2.776   7.772  -0.709  0.00  0.00    +0.154 HD
ENDROOT
BRANCH   1   3
ATOM      3  C   UNL     1       4.811   8.051  -0.519  0.00  0.00    +0.033 A 
ATOM      4  C   UNL     1       5.904   7.261  -0.179  0.00  0.00    +0.023 A 
ATOM      5  C   UNL     1       7.062   7.845   0.299  0.00  0.00    +0.003 A 
ATOM      6  C   UNL     1       7.138   9.214   0.451  0.00  0.00    +0.013 A 
ATOM      7  C   UNL     1       6.045  10.015   0.117  0.00  0.00    +0.039 A 
ATOM      8  C   UNL     1       4.878   9.427  -0.370  0.00  0.00    +0.036 A 
BRANCH   7   9
ATOM      9  C   UNL     1       6.124  11.483   0.280  0.00  0.00    +0.247 C 
ATOM     10  O   UNL     1       5.111  12.129   0.466  0.00  0.00    -0.270 OA
ATOM     11  N   UNL     1       7.318  12.104   0.223  0.00  0.00    -0.298 N 
ATOM     12  C   UNL     1       8.518  11.298   0.185  0.00  0.00    +0.108 C 
ATOM     13  C   UNL     1       9.001  11.007   1.621  0.00  0.00    +0.019 C 
ATOM     14  C   UNL     1       9.548  12.228   2.232  0.00  0.00    +0.002 C 
ATOM     15  C   UNL     1       8.535  13.358   2.394  0.00  0.00    +0.002 C 
ATOM     16  C   UNL     1       8.457  14.148   1.111  0.00  0.00    +0.019 C 
ATOM     17  C   UNL     1       7.348  13.580   0.207  0.00  0.00    +0.108 C 
ENDBRANCH   7   9
ENDBRANCH   1   3
BRANCH   1  18
ATOM     18  C   UNL     1       3.722   6.442  -1.893  0.00  0.00    +0.141 C 
ATOM     19  S   UNL     1       5.243   5.976  -2.526  0.00  0.00    -0.018 S 
BRANCH  18  22
ATOM     20  C   UNL     1       2.684   4.784  -3.166  0.00  0.00    +0.253 C 
ATOM     21  O   UNL     1       3.763   4.452  -3.615  0.00  0.00    -0.270 OA
ATOM     22  N   UNL     1       2.604   5.797  -2.280  0.00  0.00    -0.263 N 
ATOM     23  H   UNL     1       1.743   6.061  -1.922  0.00  0.00    +0.157 HD
BRANCH  20  29
ATOM     24  C   UNL     1       1.538   3.023  -4.510  0.00  0.00    +0.132 A 
ATOM     25  C   UNL     1       0.382   2.366  -4.902  0.00  0.00    +0.047 A 
ATOM     26  C   UNL     1      -0.841   2.753  -4.391  0.00  0.00    +0.019 A 
ATOM     27  C   UNL     1      -0.922   3.791  -3.476  0.00  0.00    +0.019 A 
ATOM     28  C   UNL     1       0.217   4.455  -3.075  0.00  0.00    +0.032 A 
ATOM     29  C   UNL     1       1.460   4.077  -3.589  0.00  0.00    +0.080 A 
ATOM     30 BR   UNL     1      -2.605   4.304  -2.780  0.00  0.00    -0.050 Br
BRANCH  24  32
ATOM     31  C   UNL     1       2.741   1.566  -5.949  0.00  0.00    +0.277 C 
ATOM     32  O   UNL     1       2.740   2.648  -5.016  0.00  0.00    -0.494 OA
ENDBRANCH  24  32
ENDBRANCH  20  29
ENDBRANCH  18  22
ENDBRANCH   1  18
TORSDOF 6
