REMARK  Name = ZINC19095501
REMARK  5 active torsions:
REMARK  status: ('A' for Active; 'I' for Inactive)
REMARK    1  A    between atoms: C_1  and  N_2
REMARK    2  A    between atoms: C_3  and  C_5
REMARK    3  A    between atoms: N_8  and  C_16
REMARK    4  A    between atoms: C_16  and  C_17
REMARK    5  A    between atoms: N_19  and  C_20
REMARK                            x       y       z     vdW  Elec       q    Type
REMARK                         _______ _______ _______ _____ _____    ______ ____
ROOT
ATOM      1  C   UNL     1       2.307   5.214   0.308  0.00  0.00    +0.276 C 
ATOM      2  C   UNL     1       1.128   5.845  -0.444  0.00  0.00    +0.160 C 
ATOM      3  N   UNL     1      -0.117   5.247   0.052  0.00  0.00    -0.314 N 
ATOM      4  C   UNL     1      -0.065   3.849   0.057  0.00  0.00    +0.073 A 
ATOM      5  C   UNL     1      -1.260   3.138   0.087  0.00  0.00    +0.027 A 
ATOM      6  C   UNL     1      -1.248   1.757   0.094  0.00  0.00    +0.002 A 
ATOM      7  C   UNL     1      -0.046   1.074   0.081  0.00  0.00    +0.004 A 
ATOM      8  C   UNL     1       1.146   1.772   0.049  0.00  0.00    +0.047 A 
ATOM      9  C   UNL     1       1.142   3.160   0.035  0.00  0.00    +0.143 A 
ATOM     10  O   UNL     1       2.333   3.818  -0.005  0.00  0.00    -0.476 OA
ENDROOT
BRANCH   1  13
ATOM     11  C   UNL     1       5.073   7.790  -0.298  0.00  0.00    +0.128 C 
ATOM     12  N   UNL     1       3.820   7.163   0.129  0.00  0.00    -0.315 N 
ATOM     13  C   UNL     1       3.596   5.859  -0.131  0.00  0.00    +0.255 C 
ATOM     14  O   UNL     1       4.432   5.206  -0.719  0.00  0.00    -0.272 OA
ATOM     15  H   UNL     1       3.152   7.685   0.599  0.00  0.00    +0.148 HD
ENDBRANCH   1  13
BRANCH   3  16
ATOM     16  C   UNL     1      -1.274   5.727  -0.715  0.00  0.00    +0.201 C 
BRANCH  16  17
ATOM     17  C   UNL     1      -1.520   7.179  -0.395  0.00  0.00    +0.235 C 
ATOM     18  O   UNL     1      -0.754   7.779   0.329  0.00  0.00    -0.274 OA
ATOM     19  N   UNL     1      -2.592   7.811  -0.914  0.00  0.00    -0.282 N 
ATOM     20  H   UNL     1      -3.238   7.316  -1.442  0.00  0.00    +0.155 HD
BRANCH  19  21
ATOM     21  C   UNL     1      -2.772   9.178  -0.692  0.00  0.00    +0.062 A 
ATOM     22  C   UNL     1      -2.394   9.732   0.493  0.00  0.00    +0.025 A 
ATOM     23  C   UNL     1      -2.560  11.092   0.746  0.00  0.00    +0.004 A 
ATOM     24  C   UNL     1      -3.103  11.924  -0.175  0.00  0.00    +0.031 A 
ATOM     25  C   UNL     1      -3.521  11.420  -1.435  0.00  0.00    +0.102 A 
ATOM     26  C   UNL     1      -3.345   9.997  -1.707  0.00  0.00    +0.121 A 
ATOM     27  N   UNL     1      -3.782   9.662  -2.918  0.00  0.00    -0.189 NA
ATOM     28  S   UNL     1      -4.313  10.982  -3.574  0.00  0.00    +0.117 S 
ATOM     29  N   UNL     1      -4.071  12.062  -2.464  0.00  0.00    -0.191 NA
ENDBRANCH  19  21
ENDBRANCH  16  17
ENDBRANCH   3  16
TORSDOF 4
