REMARK  Name = ZINC23483298
REMARK  12 active torsions:
REMARK  status: ('A' for Active; 'I' for Inactive)
REMARK    1  A    between atoms: C_1  and  C_2
REMARK    2  A    between atoms: C_2  and  C_4
REMARK    3  A    between atoms: C_2  and  N_12
REMARK    4  A    between atoms: C_13  and  C_15
REMARK    5  A    between atoms: C_15  and  S_16
REMARK    6  A    between atoms: S_16  and  C_17
REMARK    7  A    between atoms: C_20  and  C_29
REMARK    8  A    between atoms: N_21  and  C_22
REMARK    9  A    between atoms: C_29  and  C_31
REMARK   10  A    between atoms: C_29  and  N_32
REMARK   11  A    between atoms: N_32  and  C_33
REMARK   12  A    between atoms: N_32  and  C_34
REMARK                            x       y       z     vdW  Elec       q    Type
REMARK                         _______ _______ _______ _____ _____    ______ ____
ROOT
ATOM      1  C   UNL     1       1.706  -0.703  -1.242  0.00  0.00    +0.197 A 
ATOM      2  N   UNL     1       0.503  -0.179  -1.281  0.00  0.00    -0.122 NA
ATOM      3  N   UNL     1       0.582   1.082  -1.517  0.00  0.00    -0.135 NA
ATOM      4  C   UNL     1       1.829   1.438  -1.643  0.00  0.00    +0.125 A 
ATOM      5  N   UNL     1       2.592   0.314  -1.472  0.00  0.00    -0.275 N 
ENDROOT
BRANCH   5   6
ATOM      6  C   UNL     1       3.992   0.223  -1.522  0.00  0.00    +0.050 A 
ATOM      7  C   UNL     1       4.765   0.879  -0.574  0.00  0.00    +0.029 A 
ATOM      8  C   UNL     1       6.142   0.784  -0.621  0.00  0.00    +0.040 A 
ATOM      9  C   UNL     1       6.752   0.045  -1.621  0.00  0.00    +0.124 A 
ATOM     10  C   UNL     1       5.982  -0.605  -2.571  0.00  0.00    +0.040 A 
ATOM     11  C   UNL     1       4.605  -0.517  -2.523  0.00  0.00    +0.029 A 
ATOM     12  F   UNL     1       8.099  -0.042  -1.669  0.00  0.00    -0.205 F 
ENDBRANCH   5   6
BRANCH   4  13
ATOM     13  C   UNL     1       2.337   2.829  -1.923  0.00  0.00    -0.003 C 
ATOM     14  C   UNL     1       2.092   3.175  -3.393  0.00  0.00    -0.005 C 
BRANCH  13  15
ATOM     15  N   UNL     1       1.628   3.791  -1.069  0.00  0.00    +0.382 N 
ATOM     16  C   UNL     1       2.179   5.143  -1.229  0.00  0.00    -0.096 C 
ATOM     17  C   UNL     1       0.185   3.775  -1.343  0.00  0.00    -0.096 C 
ATOM     18  H   UNL     1       1.776   3.487  -0.022  0.00  0.00    -0.082 HD
ENDBRANCH  13  15
ENDBRANCH   4  13
BRANCH   1  19
ATOM     19  S   UNL     1       2.104  -2.394  -0.950  0.00  0.00    -0.076 S 
BRANCH  19  20
ATOM     20  C   UNL     1       0.441  -3.077  -0.745  0.00  0.00    +0.173 C 
BRANCH  20  22
ATOM     21  N   UNL     1      -0.587  -5.281  -0.289  0.00  0.00    -0.308 N 
ATOM     22  C   UNL     1       0.535  -4.557  -0.476  0.00  0.00    +0.224 C 
ATOM     23  O   UNL     1       1.620  -5.097  -0.428  0.00  0.00    -0.275 OA
ATOM     24  H   UNL     1      -1.571  -4.792  -0.333  0.00  0.00    +0.149 HD
BRANCH  21  26
ATOM     25  C   UNL     1      -0.327  -6.956   1.474  0.00  0.00    +0.033 C 
ATOM     26  C   UNL     1      -0.495  -6.720  -0.029  0.00  0.00    +0.102 C 
BRANCH  26  27
ATOM     27  C   UNL     1      -1.753  -7.398  -0.506  0.00  0.00    -0.009 A 
ATOM     28  C   UNL     1      -2.942  -6.694  -0.555  0.00  0.00    +0.008 A 
ATOM     29  C   UNL     1      -4.096  -7.316  -0.993  0.00  0.00    +0.020 A 
ATOM     30  C   UNL     1      -4.062  -8.643  -1.383  0.00  0.00    +0.042 A 
ATOM     31  C   UNL     1      -2.873  -9.348  -1.334  0.00  0.00    +0.040 A 
ATOM     32  C   UNL     1      -1.716  -8.723  -0.901  0.00  0.00    +0.047 A 
ATOM     33 CL   UNL     1      -0.222  -9.605  -0.847  0.00  0.00    -0.083 Cl
ATOM     34 CL   UNL     1      -5.511  -9.424  -1.933  0.00  0.00    -0.083 Cl
ENDBRANCH  26  27
ENDBRANCH  21  26
ENDBRANCH  20  22
ENDBRANCH  19  20
ENDBRANCH   1  19
TORSDOF 8
