REMARK  Name = ZINC22801116
REMARK  9 active torsions:
REMARK  status: ('A' for Active; 'I' for Inactive)
REMARK    1  A    between atoms: C_1  and  C_2
REMARK    2  A    between atoms: C_2  and  C_4
REMARK    3  A    between atoms: C_2  and  N_10
REMARK    4  A    between atoms: N_6  and  C_7
REMARK    5  A    between atoms: N_13  and  C_16
REMARK    6  A    between atoms: C_16  and  C_17
REMARK    7  A    between atoms: N_19  and  C_20
REMARK    8  A    between atoms: C_22  and  C_30
REMARK    9  A    between atoms: C_24  and  C_26
REMARK                            x       y       z     vdW  Elec       q    Type
REMARK                         _______ _______ _______ _____ _____    ______ ____
ROOT
ATOM      1  C   UNL     1       3.568   3.468  -0.117  0.00  0.00    +0.231 C 
ATOM      2  O   UNL     1       2.513   4.065  -0.103  0.00  0.00    -0.274 OA
ATOM      3  N   UNL     1       3.584   2.123  -0.022  0.00  0.00    -0.284 N 
ATOM      4  H   UNL     1       4.542   1.588   0.053  0.00  0.00    +0.155 HD
ENDROOT
BRANCH   3   5
ATOM      5  C   UNL     1       2.381   1.409  -0.019  0.00  0.00    +0.034 A 
ATOM      6  C   UNL     1       2.269   0.238   0.720  0.00  0.00    +0.035 A 
ATOM      7  C   UNL     1       1.080  -0.465   0.721  0.00  0.00    +0.057 A 
ATOM      8  C   UNL     1       0.002  -0.005  -0.013  0.00  0.00    +0.024 A 
ATOM      9  C   UNL     1       0.111   1.160  -0.751  0.00  0.00    +0.057 A 
ATOM     10  C   UNL     1       1.297   1.868  -0.756  0.00  0.00    +0.035 A 
BRANCH   9  11
ATOM     11  C   UNL     1      -1.066   1.657  -1.550  0.00  0.00    +0.417 C 
ATOM     12  F   UNL     1      -1.841   2.509  -0.756  0.00  0.00    -0.166 F 
ATOM     13  F   UNL     1      -0.606   2.355  -2.672  0.00  0.00    -0.166 F 
ATOM     14  F   UNL     1      -1.842   0.569  -1.963  0.00  0.00    -0.166 F 
ENDBRANCH   9  11
BRANCH   7  15
ATOM     15  C   UNL     1       0.955  -1.731   1.529  0.00  0.00    +0.417 C 
ATOM     16  F   UNL     1       1.325  -2.825   0.740  0.00  0.00    -0.166 F 
ATOM     17  F   UNL     1       1.795  -1.657   2.645  0.00  0.00    -0.166 F 
ATOM     18  F   UNL     1      -0.369  -1.886   1.951  0.00  0.00    -0.166 F 
ENDBRANCH   7  15
ENDBRANCH   3   5
BRANCH   1  19
ATOM     19  C   UNL     1       4.863   4.229  -0.240  0.00  0.00    +0.180 C 
BRANCH  19  23
ATOM     20  N   UNL     1       4.755   8.269  -1.470  0.00  0.00    +0.389 N 
ATOM     21  C   UNL     1       5.466   7.947  -0.225  0.00  0.00    -0.062 C 
ATOM     22  C   UNL     1       5.813   6.457  -0.209  0.00  0.00    +0.066 C 
ATOM     23  N   UNL     1       4.579   5.668  -0.327  0.00  0.00    -0.298 NA
ATOM     24  C   UNL     1       3.868   5.990  -1.572  0.00  0.00    +0.066 C 
ATOM     25  C   UNL     1       3.521   7.480  -1.588  0.00  0.00    -0.062 C 
ATOM     26  H   UNL     1       5.410   8.004  -2.313  0.00  0.00    -0.081 HD
BRANCH  20  28
ATOM     27  C   UNL     1       3.498  10.104  -0.445  0.00  0.00    -0.004 C 
ATOM     28  C   UNL     1       4.471   9.708  -1.558  0.00  0.00    +0.016 C 
BRANCH  28  29
ATOM     29  C   UNL     1       3.854  10.017  -2.897  0.00  0.00    +0.199 C 
ATOM     30  O   UNL     1       3.669   9.127  -3.700  0.00  0.00    -0.278 OA
ATOM     31  N   UNL     1       3.507  11.284  -3.203  0.00  0.00    -0.314 N 
ATOM     32  H   UNL     1       3.674  12.091  -2.475  0.00  0.00    +0.149 HD
BRANCH  31  33
ATOM     33  C   UNL     1       2.907  11.585  -4.505  0.00  0.00    +0.073 C 
ATOM     34  C   UNL     1       3.413  12.824  -5.246  0.00  0.00    +0.024 C 
ATOM     35  C   UNL     1       2.023  12.829  -4.605  0.00  0.00    +0.024 C 
ENDBRANCH  31  33
ENDBRANCH  28  29
ENDBRANCH  20  28
ENDBRANCH  19  23
ENDBRANCH   1  19
TORSDOF 8
