REMARK  Name = ZINC09898734
REMARK  7 active torsions:
REMARK  status: ('A' for Active; 'I' for Inactive)
REMARK    1  A    between atoms: C_3  and  C_6
REMARK    2  A    between atoms: C_6  and  C_8
REMARK    3  A    between atoms: C_6  and  N_15
REMARK    4  A    between atoms: C_16  and  C_18
REMARK    5  A    between atoms: C_21  and  N_24
REMARK    6  A    between atoms: N_24  and  S_25
REMARK    7  A    between atoms: S_25  and  C_28
REMARK                            x       y       z     vdW  Elec       q    Type
REMARK                         _______ _______ _______ _____ _____    ______ ____
ROOT
ATOM      1  C   UNL     1       3.436   3.878  -0.560  0.00  0.00    +0.037 A 
ATOM      2  C   UNL     1       2.242   4.274  -1.171  0.00  0.00    +0.015 A 
ATOM      3  C   UNL     1       1.096   3.535  -0.982  0.00  0.00    +0.025 A 
ATOM      4  C   UNL     1       1.125   2.395  -0.183  0.00  0.00    +0.048 A 
ATOM      5  C   UNL     1       2.310   2.002   0.431  0.00  0.00    +0.025 A 
ATOM      6  C   UNL     1       3.461   2.733   0.241  0.00  0.00    +0.015 A 
ENDROOT
BRANCH   1   8
ATOM      7  N   UNL     1       5.816   4.284  -0.171  0.00  0.00    -0.300 N 
ATOM      8  C   UNL     1       4.666   4.667  -0.760  0.00  0.00    +0.245 C 
ATOM      9  O   UNL     1       4.642   5.663  -1.457  0.00  0.00    -0.270 OA
ATOM     10  H   UNL     1       5.834   3.490   0.386  0.00  0.00    +0.150 HD
BRANCH   7  11
ATOM     11  C   UNL     1       7.037   5.068  -0.369  0.00  0.00    +0.140 C 
BRANCH  11  12
ATOM     12  C   UNL     1       8.240   4.183  -0.167  0.00  0.00    -0.022 A 
ATOM     13  C   UNL     1       8.248   3.251   0.854  0.00  0.00    +0.008 A 
ATOM     14  C   UNL     1       9.348   2.436   1.037  0.00  0.00    +0.038 A 
ATOM     15  C   UNL     1      10.448   2.561   0.205  0.00  0.00    +0.123 A 
ATOM     16  C   UNL     1      10.442   3.499  -0.813  0.00  0.00    +0.038 A 
ATOM     17  C   UNL     1       9.338   4.309  -0.998  0.00  0.00    +0.008 A 
ATOM     18  F   UNL     1      11.527   1.767   0.387  0.00  0.00    -0.205 F 
ENDBRANCH  11  12
BRANCH  11  21
ATOM     19  C   UNL     1       7.422   8.360   1.508  0.00  0.00    +0.008 A 
ATOM     20  C   UNL     1       7.480   7.482   0.443  0.00  0.00    +0.013 A 
ATOM     21  C   UNL     1       7.074   6.201   0.624  0.00  0.00    +0.014 A 
ATOM     22  S   UNL     1       6.601   6.203   2.345  0.00  0.00    -0.099 S 
ATOM     23  C   UNL     1       6.970   7.912   2.705  0.00  0.00    +0.045 A 
ENDBRANCH  11  21
ENDBRANCH   7  11
ENDBRANCH   1   8
BRANCH   4  24
ATOM     24  N   UNL     1      -0.035   1.651   0.005  0.00  0.00    -0.216 N 
ATOM     25  H   UNL     1      -0.873   2.100   0.198  0.00  0.00    +0.174 HD
BRANCH  24  26
ATOM     26  S   UNL     1       0.014  -0.000  -0.105  0.00  0.00    +0.072 S 
ATOM     27  O   UNL     1       1.068  -0.433   0.745  0.00  0.00    -0.150 OA
ATOM     28  O   UNL     1      -1.323  -0.457   0.046  0.00  0.00    -0.150 OA
BRANCH  26  29
ATOM     29  C   UNL     1       0.500  -0.398  -1.752  0.00  0.00    +0.109 A 
ATOM     30  C   UNL     1      -0.449  -0.459  -2.756  0.00  0.00    +0.031 A 
ATOM     31  C   UNL     1      -0.068  -0.766  -4.048  0.00  0.00    +0.040 A 
ATOM     32  C   UNL     1       1.261  -1.024  -4.335  0.00  0.00    +0.124 A 
ATOM     33  C   UNL     1       2.209  -0.968  -3.328  0.00  0.00    +0.040 A 
ATOM     34  C   UNL     1       1.828  -0.656  -2.037  0.00  0.00    +0.031 A 
ATOM     35  F   UNL     1       1.634  -1.329  -5.598  0.00  0.00    -0.205 F 
ENDBRANCH  26  29
ENDBRANCH  24  26
ENDBRANCH   4  24
TORSDOF 7
