REMARK  Name = ZINC23357841
REMARK  9 active torsions:
REMARK  status: ('A' for Active; 'I' for Inactive)
REMARK    1  A    between atoms: C_1  and  C_2
REMARK    2  A    between atoms: C_5  and  C_8
REMARK    3  A    between atoms: C_11  and  S_14
REMARK    4  A    between atoms: N_12  and  N_13
REMARK    5  A    between atoms: S_14  and  C_15
REMARK    6  A    between atoms: C_15  and  C_17
REMARK    7  A    between atoms: C_15  and  C_18
REMARK    8  A    between atoms: N_20  and  C_21
REMARK    9  A    between atoms: C_26  and  C_27
REMARK                            x       y       z     vdW  Elec       q    Type
REMARK                         _______ _______ _______ _____ _____    ______ ____
ROOT
ATOM      1  C   UNL     1      -9.410   0.279   1.520  0.00  0.00    +0.182 A 
ATOM      2  N   UNL     1      -8.597  -0.551   0.909  0.00  0.00    -0.127 NA
ATOM      3  N   UNL     1      -7.457   0.011   0.719  0.00  0.00    -0.121 NA
ATOM      4  C   UNL     1      -7.470   1.232   1.206  0.00  0.00    +0.209 A 
ATOM      5  N   UNL     1      -8.713   1.447   1.729  0.00  0.00    -0.224 N 
ENDROOT
BRANCH   1  10
ATOM      6  C   UNL     1     -14.861  -0.769   3.038  0.00  0.00    +0.044 C 
ATOM      7  C   UNL     1     -13.434  -0.494   2.641  0.00  0.00    -0.050 A 
ATOM      8  C   UNL     1     -12.969   0.808   2.596  0.00  0.00    +0.004 A 
ATOM      9  C   UNL     1     -11.664   1.066   2.233  0.00  0.00    +0.012 A 
ATOM     10  C   UNL     1     -10.810   0.010   1.910  0.00  0.00    +0.021 A 
ATOM     11  C   UNL     1     -11.287  -1.302   1.952  0.00  0.00    +0.012 A 
ATOM     12  C   UNL     1     -12.593  -1.546   2.321  0.00  0.00    +0.004 A 
ENDBRANCH   1  10
BRANCH   5  13
ATOM     13  N   UNL     1      -9.170   2.583   2.333  0.00  0.00    -0.295 N 
ATOM     14  H   UNL     1      -8.506   3.455   2.438  0.00  0.00    +0.163 HD
ATOM     15  H   UNL     1     -10.200   2.628   2.715  0.00  0.00    +0.163 HD
ENDBRANCH   5  13
BRANCH   4  16
ATOM     16  S   UNL     1      -6.135   2.381   1.180  0.00  0.00    -0.072 S 
BRANCH  16  17
ATOM     17  C   UNL     1      -4.876   1.383   0.346  0.00  0.00    +0.137 C 
ATOM     18  C   UNL     1      -5.326   1.088  -1.086  0.00  0.00    +0.029 C 
BRANCH  17  19
ATOM     19  C   UNL     1      -3.572   2.138   0.319  0.00  0.00    +0.230 C 
ATOM     20  O   UNL     1      -3.565   3.341   0.469  0.00  0.00    -0.274 OA
ATOM     21  N   UNL     1      -2.414   1.476   0.127  0.00  0.00    -0.284 N 
ATOM     22  H   UNL     1      -2.427   0.399  -0.098  0.00  0.00    +0.155 HD
BRANCH  21  23
ATOM     23  C   UNL     1      -1.196   2.158   0.215  0.00  0.00    +0.039 A 
ATOM     24  C   UNL     1      -1.103   3.322   0.965  0.00  0.00    +0.062 A 
ATOM     25  C   UNL     1       0.102   3.997   1.045  0.00  0.00    +0.125 A 
ATOM     26  C   UNL     1       1.215   3.508   0.382  0.00  0.00    +0.039 A 
ATOM     27  C   UNL     1       1.125   2.346  -0.361  0.00  0.00    +0.008 A 
ATOM     28  C   UNL     1      -0.076   1.668  -0.444  0.00  0.00    -0.029 A 
ATOM     29  C   UNL     1      -0.172   0.402  -1.255  0.00  0.00    +0.045 C 
ATOM     30  F   UNL     1       0.193   5.133   1.770  0.00  0.00    -0.205 F 
ENDBRANCH  21  23
ENDBRANCH  17  19
ENDBRANCH  16  17
ENDBRANCH   4  16
TORSDOF 6
