REMARK  Name = ZINC39528938
REMARK  9 active torsions:
REMARK  status: ('A' for Active; 'I' for Inactive)
REMARK    1  A    between atoms: C_1  and  C_2
REMARK    2  A    between atoms: C_2  and  C_3
REMARK    3  A    between atoms: C_5  and  S_26
REMARK    4  A    between atoms: C_8  and  N_9
REMARK    5  A    between atoms: C_13  and  S_16
REMARK    6  A    between atoms: S_16  and  O_19
REMARK    7  A    between atoms: O_19  and  C_20
REMARK    8  A    between atoms: S_26  and  O_29
REMARK    9  A    between atoms: O_29  and  C_30
REMARK                            x       y       z     vdW  Elec       q    Type
REMARK                         _______ _______ _______ _____ _____    ______ ____
ROOT
ATOM      1  C   UNL     1       0.970  -1.091  -0.797  0.00  0.00    -0.025 A 
ATOM      2  C   UNL     1       0.266  -1.586  -1.878  0.00  0.00    +0.036 A 
ATOM      3  C   UNL     1       0.943  -2.098  -2.970  0.00  0.00    +0.128 A 
ATOM      4  C   UNL     1       2.326  -2.115  -2.984  0.00  0.00    +0.032 A 
ATOM      5  C   UNL     1       3.035  -1.622  -1.907  0.00  0.00    +0.025 A 
ATOM      6  C   UNL     1       2.359  -1.102  -0.811  0.00  0.00    +0.033 A 
ENDROOT
BRANCH   6   7
ATOM      7  N   UNL     1       3.074  -0.597   0.278  0.00  0.00    -0.331 N 
ATOM      8  C   UNL     1       3.462  -1.468   1.397  0.00  0.00    +0.086 C 
ATOM      9  C   UNL     1       3.035  -0.796   2.707  0.00  0.00    -0.061 C 
ATOM     10  N   UNL     1       3.600   0.558   2.768  0.00  0.00    +0.398 N 
ATOM     11  C   UNL     1       3.032   1.385   1.696  0.00  0.00    +0.133 C 
ATOM     12  C   UNL     1       3.465   0.820   0.334  0.00  0.00    +0.115 C 
ATOM     13  H   UNL     1       3.381   0.972   3.662  0.00  0.00    -0.083 HD
ATOM     14  H   UNL     1       4.601   0.508   2.659  0.00  0.00    -0.083 HD
BRANCH  11  15
ATOM     15  S   UNL     1       3.636   3.088   1.862  0.00  0.00    +0.109 S 
ATOM     16  O   UNL     1       5.057   3.101   1.907  0.00  0.00    -0.138 OA
ATOM     17  O   UNL     1       2.932   3.946   0.975  0.00  0.00    -0.138 OA
BRANCH  15  18
ATOM     18  O   UNL     1       3.199   3.524   3.253  0.00  0.00    -0.347 OA
BRANCH  18  19
ATOM     19  C   UNL     1       1.872   3.797   3.355  0.00  0.00    +0.156 A 
ATOM     20  C   UNL     1       1.404   5.076   3.089  0.00  0.00    +0.048 A 
ATOM     21  C   UNL     1       0.054   5.351   3.192  0.00  0.00    +0.004 A 
ATOM     22  C   UNL     1      -0.830   4.354   3.561  0.00  0.00    +0.000 A 
ATOM     23  C   UNL     1      -0.366   3.079   3.828  0.00  0.00    +0.004 A 
ATOM     24  C   UNL     1       0.982   2.797   3.719  0.00  0.00    +0.048 A 
ENDBRANCH  18  19
ENDBRANCH  15  18
ENDBRANCH  11  15
ENDBRANCH   6   7
BRANCH   3  25
ATOM     25  S   UNL     1       0.041  -2.729  -4.345  0.00  0.00    +0.151 S 
ATOM     26  O   UNL     1       0.899  -3.649  -5.005  0.00  0.00    -0.131 OA
ATOM     27  O   UNL     1      -1.240  -3.099  -3.855  0.00  0.00    -0.131 OA
BRANCH  25  28
ATOM     28  O   UNL     1      -0.179  -1.572  -5.309  0.00  0.00    -0.342 OA
BRANCH  28  29
ATOM     29  C   UNL     1       0.929  -1.220  -6.013  0.00  0.00    +0.157 A 
ATOM     30  C   UNL     1       1.801  -0.267  -5.505  0.00  0.00    +0.048 A 
ATOM     31  C   UNL     1       2.926   0.088  -6.223  0.00  0.00    +0.004 A 
ATOM     32  C   UNL     1       3.184  -0.504  -7.445  0.00  0.00    +0.000 A 
ATOM     33  C   UNL     1       2.317  -1.453  -7.953  0.00  0.00    +0.004 A 
ATOM     34  C   UNL     1       1.193  -1.817  -7.237  0.00  0.00    +0.048 A 
ENDBRANCH  28  29
ENDBRANCH  25  28
ENDBRANCH   3  25
BRANCH   1  36
ATOM     35  C   UNL     1       0.096   0.983   0.244  0.00  0.00    +0.009 C 
ATOM     36  C   UNL     1       0.232  -0.533   0.393  0.00  0.00    +0.033 C 
ENDBRANCH   1  36
TORSDOF 8
