REMARK  Name = ZINC09033359
REMARK  13 active torsions:
REMARK  status: ('A' for Active; 'I' for Inactive)
REMARK    1  A    between atoms: C_1  and  C_2
REMARK    2  A    between atoms: C_13  and  C_14
REMARK    3  A    between atoms: C_13  and  O_15
REMARK    4  A    between atoms: N_21  and  O_22
REMARK    5  A    between atoms: O_22  and  C_23
REMARK    6  A    between atoms: C_23  and  C_24
REMARK    7  A    between atoms: N_26  and  C_27
REMARK    8  A    between atoms: C_27  and  C_29
REMARK    9  A    between atoms: C_27  and  C_36
REMARK   10  A    between atoms: C_29  and  C_30
REMARK   11  A    between atoms: C_36  and  O_38
REMARK   12  A    between atoms: O_38  and  C_39
REMARK   13  A    between atoms: C_42  and  C_43
REMARK                            x       y       z     vdW  Elec       q    Type
REMARK                         _______ _______ _______ _____ _____    ______ ____
ROOT
ATOM      1  C   UNL     1      -0.019   1.526   0.010  0.00  0.00    +0.014 C 
ATOM      2  C   UNL     1       0.002  -0.004   0.002  0.00  0.00    -0.000 C 
ATOM      3  C   UNL     1       0.536  -0.504  -1.327  0.00  0.00    +0.010 C 
ATOM      4  C   UNL     1      -0.325   0.134  -2.429  0.00  0.00    +0.005 C 
ATOM      5  C   UNL     1      -1.805  -0.193  -2.254  0.00  0.00    +0.006 C 
ATOM      6  C   UNL     1      -2.310   0.181  -0.851  0.00  0.00    -0.003 C 
ATOM      7  C   UNL     1      -1.442  -0.551   0.156  0.00  0.00    +0.001 C 
ATOM      8  C   UNL     1      -1.733  -0.249   1.630  0.00  0.00    +0.007 C 
ATOM      9  C   UNL     1      -0.400  -0.626   2.332  0.00  0.00    +0.035 C 
ATOM     10  C   UNL     1       0.707  -0.519   1.253  0.00  0.00    +0.069 C 
ATOM     11  C   UNL     1       1.325  -1.893   0.986  0.00  0.00    +0.042 C 
ATOM     12  C   UNL     1      -3.768  -0.257  -0.698  0.00  0.00    +0.008 C 
ATOM     13  C   UNL     1      -4.646   0.511  -1.690  0.00  0.00    +0.032 C 
ATOM     14  C   UNL     1      -4.081   0.302  -3.083  0.00  0.00    -0.058 C 
ATOM     15  C   UNL     1      -4.888  -0.107  -4.047  0.00  0.00    +0.031 C 
ATOM     16  C   UNL     1      -4.369  -0.342  -5.409  0.00  0.00    +0.102 C 
ATOM     17  N   UNL     1      -5.167  -0.709  -6.375  0.00  0.00    -0.085 NA
ATOM     18  C   UNL     1      -2.923  -0.150  -5.653  0.00  0.00    +0.027 C 
ATOM     19  C   UNL     1      -2.143   0.266  -4.674  0.00  0.00    -0.014 C 
ATOM     20  C   UNL     1      -2.622   0.575  -3.297  0.00  0.00    +0.011 C 
ATOM     21  C   UNL     1      -2.383   2.064  -3.042  0.00  0.00    +0.020 C 
ENDROOT
BRANCH  10  22
ATOM     22  O   UNL     1       1.715   0.405   1.669  0.00  0.00    -0.388 OA
ATOM     23  H   UNL     1       2.197   0.131   2.461  0.00  0.00    +0.210 HD
ENDBRANCH  10  22
BRANCH  17  24
ATOM     24  O   UNL     1      -4.651  -0.929  -7.675  0.00  0.00    -0.384 OA
BRANCH  24  25
ATOM     25  C   UNL     1      -5.635  -1.326  -8.632  0.00  0.00    +0.358 C 
BRANCH  25  26
ATOM     26  C   UNL     1      -4.979  -1.531  -9.972  0.00  0.00    +0.254 C 
ATOM     27  O   UNL     1      -3.785  -1.355 -10.097  0.00  0.00    -0.272 OA
ATOM     28  N   UNL     1      -5.718  -1.911 -11.034  0.00  0.00    -0.299 N 
ATOM     29  H   UNL     1      -6.672  -2.053 -10.934  0.00  0.00    +0.150 HD
BRANCH  28  30
ATOM     30  C   UNL     1      -5.079  -2.111 -12.337  0.00  0.00    +0.186 C 
BRANCH  30  31
ATOM     31  C   UNL     1      -4.986  -0.790 -13.058  0.00  0.00    +0.328 C 
ATOM     32  O   UNL     1      -5.409   0.214 -12.536  0.00  0.00    -0.249 OA
BRANCH  31  33
ATOM     33  O   UNL     1      -4.432  -0.730 -14.279  0.00  0.00    -0.467 OA
ATOM     34  C   UNL     1      -4.376   0.575 -14.914  0.00  0.00    +0.280 C 
ENDBRANCH  31  33
ENDBRANCH  30  31
BRANCH  30  35
ATOM     35  C   UNL     1      -5.913  -3.088 -13.169  0.00  0.00    +0.069 C 
BRANCH  35  36
ATOM     36  C   UNL     1      -5.904  -4.443 -12.509  0.00  0.00    -0.045 A 
ATOM     37  C   UNL     1      -4.928  -5.365 -12.837  0.00  0.00    +0.004 A 
ATOM     38  C   UNL     1      -4.918  -6.606 -12.229  0.00  0.00    +0.000 A 
ATOM     39  C   UNL     1      -5.889  -6.929 -11.300  0.00  0.00    +0.000 A 
ATOM     40  C   UNL     1      -6.869  -6.008 -10.976  0.00  0.00    +0.000 A 
ATOM     41  C   UNL     1      -6.876  -4.765 -11.581  0.00  0.00    +0.004 A 
ENDBRANCH  35  36
ENDBRANCH  30  35
ENDBRANCH  28  30
ENDBRANCH  25  26
ENDBRANCH  24  25
ENDBRANCH  17  24
TORSDOF 9
