REMARK  Name = ZINC08926601
REMARK  9 active torsions:
REMARK  status: ('A' for Active; 'I' for Inactive)
REMARK    1  A    between atoms: C_1  and  C_2
REMARK    2  A    between atoms: C_3  and  C_31
REMARK    3  A    between atoms: C_4  and  N_21
REMARK    4  A    between atoms: C_6  and  C_7
REMARK    5  A    between atoms: N_9  and  C_10
REMARK    6  A    between atoms: C_12  and  C_17
REMARK    7  A    between atoms: C_22  and  C_24
REMARK    8  A    between atoms: C_31  and  O_33
REMARK    9  A    between atoms: O_33  and  C_34
REMARK                            x       y       z     vdW  Elec       q    Type
REMARK                         _______ _______ _______ _____ _____    ______ ____
ROOT
ATOM      1  C   UNL     1      -0.374   4.388   0.016  0.00  0.00    +0.046 C 
ATOM      2  C   UNL     1      -1.518   3.408   0.008  0.00  0.00    -0.015 A 
ATOM      3  C   UNL     1      -2.836   3.842   0.005  0.00  0.00    +0.091 A 
ATOM      4  C   UNL     1      -3.841   2.869  -0.002  0.00  0.00    +0.087 A 
ATOM      5  S   UNL     1      -2.945   1.386  -0.011  0.00  0.00    -0.068 S 
ATOM      6  C   UNL     1      -1.294   2.058   0.004  0.00  0.00    +0.080 A 
ENDROOT
BRANCH   6   7
ATOM      7  C   UNL     1      -0.017   1.344   0.006  0.00  0.00    +0.255 C 
ATOM      8  O   UNL     1       1.029   1.967   0.006  0.00  0.00    -0.269 OA
ATOM      9  N   UNL     1       0.002  -0.004   0.002  0.00  0.00    -0.280 N 
ATOM     10  H   UNL     1      -0.827  -0.501   0.083  0.00  0.00    +0.155 HD
BRANCH   9  11
ATOM     11  C   UNL     1       1.217  -0.686  -0.119  0.00  0.00    +0.053 A 
ATOM     12  C   UNL     1       2.302  -0.073  -0.732  0.00  0.00    +0.037 A 
ATOM     13  C   UNL     1       3.500  -0.749  -0.850  0.00  0.00    +0.057 A 
ATOM     14  C   UNL     1       3.622  -2.036  -0.358  0.00  0.00    +0.014 A 
ATOM     15  C   UNL     1       2.544  -2.651   0.253  0.00  0.00    +0.022 A 
ATOM     16  C   UNL     1       1.343  -1.978   0.379  0.00  0.00    +0.062 A 
ATOM     17 CL   UNL     1      -0.007  -2.747   1.153  0.00  0.00    -0.082 Cl
BRANCH  13  18
ATOM     18  C   UNL     1       4.678  -0.084  -1.514  0.00  0.00    +0.417 C 
ATOM     19  F   UNL     1       5.428   0.603  -0.554  0.00  0.00    -0.166 F 
ATOM     20  F   UNL     1       5.479  -1.055  -2.125  0.00  0.00    -0.166 F 
ATOM     21  F   UNL     1       4.219   0.818  -2.481  0.00  0.00    -0.166 F 
ENDBRANCH  13  18
ENDBRANCH   9  11
ENDBRANCH   6   7
BRANCH   4  22
ATOM     22  N   UNL     1      -5.210   3.048  -0.007  0.00  0.00    -0.275 N 
ATOM     23  C   UNL     1      -6.029   1.977  -0.014  0.00  0.00    +0.249 C 
ATOM     24  O   UNL     1      -5.562   0.855  -0.015  0.00  0.00    -0.270 OA
ATOM     25  H   UNL     1      -5.582   3.943  -0.006  0.00  0.00    +0.156 HD
BRANCH  23  26
ATOM     26  C   UNL     1      -7.493   2.168  -0.019  0.00  0.00    +0.037 A 
ATOM     27  C   UNL     1      -8.032   3.456  -0.011  0.00  0.00    +0.016 A 
ATOM     28  C   UNL     1      -9.400   3.628  -0.023  0.00  0.00    +0.039 A 
ATOM     29  C   UNL     1     -10.240   2.525  -0.029  0.00  0.00    +0.123 A 
ATOM     30  C   UNL     1      -9.710   1.244  -0.030  0.00  0.00    +0.039 A 
ATOM     31  C   UNL     1      -8.344   1.060  -0.025  0.00  0.00    +0.016 A 
ATOM     32  F   UNL     1     -11.580   2.700  -0.034  0.00  0.00    -0.205 F 
ENDBRANCH  23  26
ENDBRANCH   4  22
BRANCH   3  33
ATOM     33  C   UNL     1      -3.163   5.272   0.007  0.00  0.00    +0.342 C 
ATOM     34  O   UNL     1      -3.295   5.868  -1.044  0.00  0.00    -0.245 OA
BRANCH  33  35
ATOM     35  O   UNL     1      -3.318   5.926   1.177  0.00  0.00    -0.464 OA
ATOM     36  C   UNL     1      -3.641   7.340   1.103  0.00  0.00    +0.280 C 
ENDBRANCH  33  35
ENDBRANCH   3  33
TORSDOF 7
