REMARK  Name = ZINC08735181
REMARK  9 active torsions:
REMARK  status: ('A' for Active; 'I' for Inactive)
REMARK    1  A    between atoms: C_1  and  C_2
REMARK    2  A    between atoms: C_9  and  N_14
REMARK    3  A    between atoms: C_10  and  C_11
REMARK    4  A    between atoms: C_15  and  C_17
REMARK    5  A    between atoms: C_17  and  S_18
REMARK    6  A    between atoms: S_18  and  C_19
REMARK    7  A    between atoms: C_22  and  C_27
REMARK    8  A    between atoms: N_23  and  C_24
REMARK    9  A    between atoms: C_27  and  C_28
REMARK                            x       y       z     vdW  Elec       q    Type
REMARK                         _______ _______ _______ _____ _____    ______ ____
ROOT
ATOM      1  N   UNL     1       4.861  -0.415   4.207  0.00  0.00    -0.279 N 
ATOM      2  C   UNL     1       6.111  -0.026   3.884  0.00  0.00    +0.228 C 
ATOM      3  O   UNL     1       6.406   0.164   2.723  0.00  0.00    -0.275 OA
ATOM      4  H   UNL     1       4.626  -0.567   5.135  0.00  0.00    +0.155 HD
ENDROOT
BRANCH   1  12
ATOM      5  C   UNL     1      -0.160  -1.425  -1.706  0.00  0.00    +0.008 C 
ATOM      6  C   UNL     1       0.579  -1.628  -0.382  0.00  0.00    -0.009 C 
ATOM      7  C   UNL     1      -0.280  -1.106   0.774  0.00  0.00    +0.008 C 
ATOM      8  C   UNL     1       0.333  -1.526   2.110  0.00  0.00    +0.037 C 
ATOM      9  C   UNL     1       1.798  -1.108   2.130  0.00  0.00    -0.023 A 
ATOM     10  C   UNL     1       2.454  -0.816   0.986  0.00  0.00    -0.004 A 
ATOM     11  S   UNL     1       4.094  -0.391   1.501  0.00  0.00    -0.077 S 
ATOM     12  C   UNL     1       3.913  -0.598   3.211  0.00  0.00    +0.084 A 
ATOM     13  C   UNL     1       2.589  -0.991   3.344  0.00  0.00    +0.068 A 
ATOM     14  C   UNL     1       1.902  -0.850  -0.405  0.00  0.00    +0.046 C 
BRANCH  13  15
ATOM     15  C   UNL     1       2.009  -1.276   4.660  0.00  0.00    +0.244 C 
ATOM     16  O   UNL     1       1.478  -0.386   5.297  0.00  0.00    -0.270 OA
ATOM     17  N   UNL     1       2.063  -2.525   5.164  0.00  0.00    -0.325 N 
ATOM     18  H   UNL     1       2.486  -3.235   4.656  0.00  0.00    +0.145 HD
ATOM     19  H   UNL     1       1.679  -2.714   6.034  0.00  0.00    +0.145 HD
ENDBRANCH  13  15
ENDBRANCH   1  12
BRANCH   2  20
ATOM     20  C   UNL     1       7.141   0.172   4.965  0.00  0.00    +0.173 C 
BRANCH  20  21
ATOM     21  S   UNL     1       8.707   0.691   4.219  0.00  0.00    -0.077 S 
BRANCH  21  22
ATOM     22  C   UNL     1       9.699   0.845   5.667  0.00  0.00    +0.192 A 
ATOM     23  N   UNL     1       9.315   0.629   6.903  0.00  0.00    -0.122 NA
ATOM     24  N   UNL     1      10.297   0.834   7.707  0.00  0.00    -0.133 NA
ATOM     25  C   UNL     1      11.354   1.198   7.039  0.00  0.00    +0.139 A 
ATOM     26  N   UNL     1      11.012   1.219   5.715  0.00  0.00    -0.303 N 
BRANCH  26  27
ATOM     27  C   UNL     1      11.874   1.569   4.584  0.00  0.00    +0.091 C 
ATOM     28  C   UNL     1      11.194   1.904   3.254  0.00  0.00    +0.027 C 
ATOM     29  C   UNL     1      11.947   0.581   3.418  0.00  0.00    +0.027 C 
ENDBRANCH  26  27
BRANCH  25  30
ATOM     30  C   UNL     1      12.704   1.535   7.617  0.00  0.00    +0.118 C 
BRANCH  30  31
ATOM     31  C   UNL     1      12.763   3.007   7.933  0.00  0.00    -0.003 A 
ATOM     32  C   UNL     1      12.429   3.648   9.079  0.00  0.00    +0.011 A 
ATOM     33  C   UNL     1      12.566   5.022   9.143  0.00  0.00    +0.008 A 
ATOM     34  C   UNL     1      13.030   5.688   8.058  0.00  0.00    +0.045 A 
ATOM     35  S   UNL     1      13.297   4.359   6.896  0.00  0.00    -0.101 S 
ENDBRANCH  30  31
ENDBRANCH  25  30
ENDBRANCH  21  22
ENDBRANCH  20  21
ENDBRANCH   2  20
TORSDOF 8
