REMARK  Name = ZINC30978323
REMARK  7 active torsions:
REMARK  status: ('A' for Active; 'I' for Inactive)
REMARK    1  A    between atoms: C_1  and  C_2
REMARK    2  A    between atoms: C_6  and  N_9
REMARK    3  A    between atoms: C_7  and  C_8
REMARK    4  A    between atoms: C_10  and  C_12
REMARK    5  A    between atoms: N_15  and  C_18
REMARK    6  A    between atoms: C_18  and  C_19
REMARK    7  A    between atoms: C_21  and  C_24
REMARK                            x       y       z     vdW  Elec       q    Type
REMARK                         _______ _______ _______ _____ _____    ______ ____
ROOT
ATOM      1  C   UNL     1       3.602   1.792   3.515  0.00  0.00    +0.072 C 
ATOM      2  C   UNL     1       3.992   0.337   3.244  0.00  0.00    -0.006 C 
ATOM      3  C   UNL     1       5.516   0.205   3.291  0.00  0.00    -0.077 C 
ATOM      4  N   UNL     1       6.005   0.624   4.611  0.00  0.00    +0.386 N 
ATOM      5  C   UNL     1       5.683   2.033   4.873  0.00  0.00    -0.077 C 
ATOM      6  C   UNL     1       4.164   2.219   4.874  0.00  0.00    -0.006 C 
ATOM      7  H   UNL     1       5.489   0.016   5.368  0.00  0.00    -0.081 HD
ENDROOT
BRANCH   1   9
ATOM      8  N   UNL     1       1.386   1.593   2.434  0.00  0.00    -0.285 N 
ATOM      9  C   UNL     1       2.100   1.917   3.530  0.00  0.00    +0.220 C 
ATOM     10  O   UNL     1       1.534   2.308   4.529  0.00  0.00    -0.275 OA
ATOM     11  H   UNL     1       1.892   1.169   1.554  0.00  0.00    +0.155 HD
BRANCH   8  17
ATOM     12  C   UNL     1      -2.682   2.791  -0.054  0.00  0.00    +0.044 C 
ATOM     13  C   UNL     1      -1.996   2.378   1.223  0.00  0.00    -0.046 A 
ATOM     14  C   UNL     1      -2.735   2.201   2.378  0.00  0.00    +0.004 A 
ATOM     15  C   UNL     1      -2.109   1.828   3.553  0.00  0.00    +0.002 A 
ATOM     16  C   UNL     1      -0.743   1.625   3.575  0.00  0.00    +0.023 A 
ATOM     17  C   UNL     1       0.002   1.797   2.415  0.00  0.00    +0.037 A 
ATOM     18  C   UNL     1      -0.630   2.172   1.237  0.00  0.00    -0.026 A 
ATOM     19  C   UNL     1       0.174   2.360  -0.024  0.00  0.00    +0.046 C 
ENDBRANCH   8  17
ENDBRANCH   1   9
BRANCH   4  20
ATOM     20  C   UNL     1       7.448   0.381   4.739  0.00  0.00    +0.022 C 
BRANCH  20  21
ATOM     21  C   UNL     1       7.712  -1.102   4.707  0.00  0.00    +0.211 A 
ATOM     22  N   UNL     1       7.949  -1.828   3.643  0.00  0.00    -0.193 NA
ATOM     23  C   UNL     1       8.125  -3.090   4.096  0.00  0.00    +0.202 A 
ATOM     24  N   UNL     1       7.986  -3.057   5.395  0.00  0.00    -0.056 NA
ATOM     25  O   UNL     1       7.755  -1.923   5.761  0.00  0.00    -0.340 OA
BRANCH  23  26
ATOM     26  C   UNL     1       8.421  -4.288   3.271  0.00  0.00    +0.023 A 
ATOM     27  C   UNL     1       8.578  -5.532   3.878  0.00  0.00    +0.012 A 
ATOM     28  C   UNL     1       8.853  -6.644   3.107  0.00  0.00    +0.002 A 
ATOM     29  C   UNL     1       8.972  -6.524   1.734  0.00  0.00    +0.015 A 
ATOM     30  C   UNL     1       8.816  -5.291   1.126  0.00  0.00    +0.019 A 
ATOM     31  C   UNL     1       8.537  -4.173   1.888  0.00  0.00    +0.027 A 
ATOM     32 BR   UNL     1       8.980  -5.137  -0.751  0.00  0.00    -0.050 Br
ENDBRANCH  23  26
ENDBRANCH  20  21
ENDBRANCH   4  20
TORSDOF 5
