REMARK  Name = ZINC09430609
REMARK  10 active torsions:
REMARK  status: ('A' for Active; 'I' for Inactive)
REMARK    1  A    between atoms: C_1  and  C_2
REMARK    2  A    between atoms: C_5  and  N_9
REMARK    3  A    between atoms: C_6  and  C_8
REMARK    4  A    between atoms: C_10  and  C_12
REMARK    5  A    between atoms: C_15  and  C_18
REMARK    6  A    between atoms: C_18  and  N_19
REMARK    7  A    between atoms: N_19  and  S_20
REMARK    8  A    between atoms: S_20  and  C_23
REMARK    9  A    between atoms: C_30  and  C_36
REMARK   10  A    between atoms: C_33  and  C_35
REMARK                            x       y       z     vdW  Elec       q    Type
REMARK                         _______ _______ _______ _____ _____    ______ ____
ROOT
ATOM      1  C   UNL     1       0.074   1.388   0.260  0.00  0.00    +0.109 C 
ENDROOT
BRANCH   1   5
ATOM      2  C   UNL     1      -4.249   1.189   0.200  0.00  0.00    +0.075 C 
ATOM      3  C   UNL     1      -3.489   0.745  -1.051  0.00  0.00    +0.013 C 
ATOM      4  C   UNL     1      -2.071   1.321  -1.018  0.00  0.00    +0.005 C 
ATOM      5  C   UNL     1      -1.343   0.812   0.228  0.00  0.00    +0.005 C 
ATOM      6  C   UNL     1      -2.103   1.256   1.479  0.00  0.00    +0.005 C 
ATOM      7  C   UNL     1      -3.520   0.681   1.446  0.00  0.00    +0.013 C 
BRANCH   2   9
ATOM      8  N   UNL     1      -6.501   0.883   1.175  0.00  0.00    -0.285 N 
ATOM      9  C   UNL     1      -5.644   0.622   0.168  0.00  0.00    +0.220 C 
ATOM     10  O   UNL     1      -5.997  -0.069  -0.764  0.00  0.00    -0.275 OA
ATOM     11  H   UNL     1      -6.243   1.489   1.887  0.00  0.00    +0.155 HD
BRANCH   8  16
ATOM     12  C   UNL     1     -11.619  -1.564   1.252  0.00  0.00    +0.044 C 
ATOM     13  C   UNL     1     -10.259  -0.914   1.231  0.00  0.00    -0.050 A 
ATOM     14  C   UNL     1      -9.681  -0.562   0.025  0.00  0.00    +0.005 A 
ATOM     15  C   UNL     1      -8.438   0.039   0.004  0.00  0.00    +0.024 A 
ATOM     16  C   UNL     1      -7.763   0.279   1.194  0.00  0.00    +0.036 A 
ATOM     17  C   UNL     1      -8.347  -0.076   2.403  0.00  0.00    -0.029 A 
ATOM     18  C   UNL     1      -9.593  -0.672   2.418  0.00  0.00    +0.008 A 
ATOM     19  C   UNL     1      -7.621   0.188   3.697  0.00  0.00    +0.045 C 
ENDBRANCH   8  16
ENDBRANCH   2   9
ENDBRANCH   1   5
BRANCH   1  20
ATOM     20  N   UNL     1       0.810   0.809   1.387  0.00  0.00    -0.190 NA
ATOM     21  H   UNL     1       0.332   0.342   2.090  0.00  0.00    +0.148 HD
BRANCH  20  22
ATOM     22  S   UNL     1       2.458   0.952   1.460  0.00  0.00    +0.058 S 
ATOM     23  O   UNL     1       2.868   0.321   2.665  0.00  0.00    -0.153 OA
ATOM     24  O   UNL     1       2.957   0.561   0.188  0.00  0.00    -0.153 OA
BRANCH  22  25
ATOM     25  C   UNL     1       2.825   2.666   1.639  0.00  0.00    +0.106 A 
ATOM     26  C   UNL     1       2.927   3.225   2.900  0.00  0.00    +0.030 A 
ATOM     27  C   UNL     1       3.214   4.566   3.043  0.00  0.00    +0.026 A 
ATOM     28  C   UNL     1       3.404   5.369   1.917  0.00  0.00    +0.040 A 
ATOM     29  C   UNL     1       3.299   4.800   0.658  0.00  0.00    -0.022 A 
ATOM     30  C   UNL     1       3.018   3.454   0.520  0.00  0.00    +0.034 A 
ATOM     31  C   UNL     1       3.546   5.873  -0.378  0.00  0.00    +0.059 C 
ATOM     32  C   UNL     1       3.809   7.148   0.441  0.00  0.00    +0.083 C 
ATOM     33  N   UNL     1       3.699   6.734   1.842  0.00  0.00    -0.268 N 
ATOM     34  C   UNL     1       3.859   7.550   2.903  0.00  0.00    +0.217 C 
ATOM     35  O   UNL     1       3.654   7.134   4.024  0.00  0.00    -0.276 OA
ATOM     36  C   UNL     1       4.294   8.978   2.697  0.00  0.00    +0.109 C 
ATOM     37  C   UNL     1       2.759   8.213   0.116  0.00  0.00    +0.029 C 
ENDBRANCH  22  25
ENDBRANCH  20  22
ENDBRANCH   1  20
TORSDOF 6
