REMARK  Name = ZINC35729464
REMARK  3 active torsions:
REMARK  status: ('A' for Active; 'I' for Inactive)
REMARK    1  A    between atoms: C_3  and  N_8
REMARK    2  A    between atoms: C_15  and  C_17
REMARK    3  A    between atoms: C_23  and  C_25
REMARK                            x       y       z     vdW  Elec       q    Type
REMARK                         _______ _______ _______ _____ _____    ______ ____
ROOT
ATOM      1  C   UNL     1       7.555   0.764  -0.973  0.00  0.00    +0.239 C 
ATOM      2  O   UNL     1       6.907   0.935  -1.984  0.00  0.00    -0.273 OA
ATOM      3  N   UNL     1       8.543  -0.153  -0.953  0.00  0.00    -0.262 N 
ATOM      4  C   UNL     1       8.819  -0.902  -2.090  0.00  0.00    +0.188 A 
ATOM      5  N   UNL     1       8.248  -0.876  -3.287  0.00  0.00    -0.125 NA
ATOM      6  N   UNL     1       8.625  -1.634  -4.222  0.00  0.00    -0.140 NA
ATOM      7  C   UNL     1       9.616  -2.503  -4.064  0.00  0.00    +0.134 A 
ATOM      8  S   UNL     1      10.051  -2.173  -2.359  0.00  0.00    -0.030 S 
ATOM      9  H   UNL     1       9.061  -0.289  -0.144  0.00  0.00    +0.157 HD
ENDROOT
BRANCH   1  17
ATOM     10  N   UNL     1       3.584   2.125  -0.021  0.00  0.00    -0.269 N 
ATOM     11  C   UNL     1       4.758   1.470   0.066  0.00  0.00    +0.307 C 
ATOM     12  O   UNL     1       4.778   0.254   0.060  0.00  0.00    -0.252 OA
ATOM     13  N   UNL     1       5.911   2.162   0.160  0.00  0.00    -0.274 N 
ATOM     14  C   UNL     1       6.031   3.631   0.185  0.00  0.00    +0.110 C 
ATOM     15  C   UNL     1       7.376   3.907   0.903  0.00  0.00    +0.021 C 
ATOM     16  C   UNL     1       8.257   2.746   0.370  0.00  0.00    +0.033 C 
ATOM     17  C   UNL     1       7.256   1.577   0.260  0.00  0.00    +0.164 C 
ATOM     18  H   UNL     1       3.572   3.092  -0.094  0.00  0.00    +0.156 HD
BRANCH  10  21
ATOM     19  C   UNL     1       1.085  -0.460   0.753  0.00  0.00    +0.003 A 
ATOM     20  C   UNL     1       2.274   0.244   0.740  0.00  0.00    +0.023 A 
ATOM     21  C   UNL     1       2.381   1.410  -0.006  0.00  0.00    +0.036 A 
ATOM     22  C   UNL     1       1.292   1.866  -0.737  0.00  0.00    +0.038 A 
ATOM     23  C   UNL     1       0.105   1.158  -0.720  0.00  0.00    +0.020 A 
ATOM     24  C   UNL     1       0.002  -0.004   0.025  0.00  0.00    +0.015 A 
ATOM     25 BR   UNL     1      -1.379   1.778  -1.713  0.00  0.00    -0.050 Br
ENDBRANCH  10  21
ENDBRANCH   1  17
BRANCH   7  26
ATOM     26  C   UNL     1      10.197  -3.465  -5.024  0.00  0.00    +0.013 A 
ATOM     27  C   UNL     1      11.246  -4.298  -4.631  0.00  0.00    +0.014 A 
ATOM     28  C   UNL     1      11.788  -5.195  -5.527  0.00  0.00    +0.050 A 
ATOM     29  C   UNL     1      11.293  -5.274  -6.821  0.00  0.00    +0.166 A 
ATOM     30  C   UNL     1      10.245  -4.445  -7.220  0.00  0.00    +0.167 A 
ATOM     31  C   UNL     1       9.695  -3.547  -6.324  0.00  0.00    +0.060 A 
ATOM     32  O   UNL     1       9.947  -4.716  -8.524  0.00  0.00    -0.453 OA
ATOM     33  C   UNL     1      11.088  -5.426  -9.040  0.00  0.00    +0.466 C 
ATOM     34  O   UNL     1      11.649  -6.063  -7.877  0.00  0.00    -0.453 OA
ENDBRANCH   7  26
TORSDOF 3
