REMARK  Name = ZINC54108327
REMARK  1 active torsions:
REMARK  status: ('A' for Active; 'I' for Inactive)
REMARK    1  A    between atoms: C_5  and  N_11
REMARK                            x       y       z     vdW  Elec       q    Type
REMARK                         _______ _______ _______ _____ _____    ______ ____
ROOT
ATOM      1  N   UNL     1       6.007   1.901  -0.044  0.00  0.00    -0.281 N 
ATOM      2  C   UNL     1       6.944   1.870  -1.067  0.00  0.00    +0.075 A 
ATOM      3  C   UNL     1       6.987   1.261  -2.312  0.00  0.00    +0.031 A 
ATOM      4  C   UNL     1       8.092   1.426  -3.120  0.00  0.00    +0.040 A 
ATOM      5  C   UNL     1       9.165   2.200  -2.694  0.00  0.00    +0.126 A 
ATOM      6  C   UNL     1       9.138   2.812  -1.459  0.00  0.00    +0.068 A 
ATOM      7  C   UNL     1       8.024   2.653  -0.631  0.00  0.00    +0.094 A 
ATOM      8  N   UNL     1       7.709   3.117   0.608  0.00  0.00    -0.214 NA
ATOM      9  C   UNL     1       6.523   2.682   0.953  0.00  0.00    +0.199 A 
ATOM     10  N   UNL     1       5.891   2.966   2.146  0.00  0.00    -0.329 N 
ATOM     11  F   UNL     1      10.241   2.353  -3.496  0.00  0.00    -0.205 F 
ATOM     12  H   UNL     1       5.011   2.601   2.327  0.00  0.00    +0.145 HD
ATOM     13  H   UNL     1       6.327   3.530   2.803  0.00  0.00    +0.145 HD
ENDROOT
BRANCH   1  18
ATOM     14  C   UNL     1      -0.017   1.389   0.010  0.00  0.00    +0.020 A 
ATOM     15  C   UNL     1       1.158   2.086   0.002  0.00  0.00    +0.011 A 
ATOM     16  C   UNL     1       2.362   1.358  -0.013  0.00  0.00    +0.002 A 
ATOM     17  C   UNL     1       3.607   2.007  -0.021  0.00  0.00    +0.036 A 
ATOM     18  C   UNL     1       4.762   1.258  -0.036  0.00  0.00    +0.050 A 
ATOM     19  C   UNL     1       4.703  -0.140  -0.043  0.00  0.00    +0.028 A 
ATOM     20  C   UNL     1       3.510  -0.791  -0.036  0.00  0.00    +0.030 A 
ATOM     21  C   UNL     1       2.310  -0.058  -0.020  0.00  0.00    +0.071 A 
ATOM     22  N   UNL     1       1.126  -0.679  -0.012  0.00  0.00    -0.255 NA
ATOM     23  C   UNL     1       0.002  -0.004   0.002  0.00  0.00    +0.111 A 
ENDBRANCH   1  18
TORSDOF 1
