REMARK  Name = ZINC21492520
REMARK  8 active torsions:
REMARK  status: ('A' for Active; 'I' for Inactive)
REMARK    1  A    between atoms: C_1  and  C_2
REMARK    2  A    between atoms: C_2  and  C_4
REMARK    3  A    between atoms: C_2  and  S_20
REMARK    4  A    between atoms: N_9  and  C_10
REMARK    5  A    between atoms: S_20  and  C_21
REMARK    6  A    between atoms: N_25  and  C_26
REMARK    7  A    between atoms: C_29  and  O_32
REMARK    8  A    between atoms: O_32  and  C_33
REMARK                            x       y       z     vdW  Elec       q    Type
REMARK                         _______ _______ _______ _____ _____    ______ ____
ROOT
ATOM      1  C   UNL     1      -7.192   1.201   2.099  0.00  0.00    +0.233 C 
ATOM      2  O   UNL     1      -6.796   1.898   3.008  0.00  0.00    -0.274 OA
ATOM      3  N   UNL     1      -6.368   0.892   1.079  0.00  0.00    -0.239 N 
ATOM      4  C   UNL     1      -5.103   1.358   1.069  0.00  0.00    +0.306 C 
ATOM      5  O   UNL     1      -4.707   2.057   1.980  0.00  0.00    -0.252 OA
ATOM      6  N   UNL     1      -4.279   1.049   0.049  0.00  0.00    -0.294 N 
ATOM      7  H   UNL     1      -6.727   0.259   0.254  0.00  0.00    +0.159 HD
ATOM      8  H   UNL     1      -4.638   0.417  -0.776  0.00  0.00    +0.151 HD
ENDROOT
BRANCH   6   9
ATOM      9  C   UNL     1      -2.904   1.556   0.038  0.00  0.00    +0.037 C 
ATOM     10  C   UNL     1      -2.188   1.063  -1.221  0.00  0.00    +0.029 C 
ATOM     11  C   UNL     1      -0.753   1.593  -1.232  0.00  0.00    -0.008 C 
ATOM     12  C   UNL     1      -0.013   1.086   0.008  0.00  0.00    +0.007 C 
ATOM     13  C   UNL     1      -0.729   1.579   1.267  0.00  0.00    -0.008 C 
ATOM     14  C   UNL     1      -2.164   1.050   1.278  0.00  0.00    +0.029 C 
ATOM     15  C   UNL     1      -0.750   3.109   1.275  0.00  0.00    +0.007 C 
ATOM     16  C   UNL     1      -1.490   3.616   0.036  0.00  0.00    -0.008 C 
ATOM     17  C   UNL     1      -0.773   3.123  -1.223  0.00  0.00    +0.007 C 
ATOM     18  C   UNL     1      -2.925   3.086   0.047  0.00  0.00    +0.029 C 
ENDBRANCH   6   9
BRANCH   1  20
ATOM     19  C   UNL     1      -8.626  -0.727   2.712  0.00  0.00    +0.029 C 
ATOM     20  C   UNL     1      -8.606   0.679   2.110  0.00  0.00    +0.137 C 
BRANCH  20  21
ATOM     21  S   UNL     1      -9.646   1.776   3.104  0.00  0.00    -0.075 S 
BRANCH  21  22
ATOM     22  C   UNL     1     -11.222   1.039   2.826  0.00  0.00    +0.174 A 
ATOM     23  N   UNL     1     -11.456  -0.017   2.082  0.00  0.00    -0.230 NA
ATOM     24  C   UNL     1     -12.771  -0.294   2.102  0.00  0.00    +0.131 A 
ATOM     25  C   UNL     1     -13.383   0.614   2.881  0.00  0.00    +0.113 A 
ATOM     26  N   UNL     1     -12.406   1.464   3.353  0.00  0.00    -0.295 N 
BRANCH  26  27
ATOM     27  C   UNL     1     -12.594   2.560   4.209  0.00  0.00    +0.049 A 
ATOM     28  C   UNL     1     -11.806   2.699   5.343  0.00  0.00    +0.030 A 
ATOM     29  C   UNL     1     -11.988   3.779   6.182  0.00  0.00    +0.047 A 
ATOM     30  C   UNL     1     -12.966   4.721   5.898  0.00  0.00    +0.120 A 
ATOM     31  C   UNL     1     -13.758   4.580   4.768  0.00  0.00    +0.047 A 
ATOM     32  C   UNL     1     -13.573   3.502   3.925  0.00  0.00    +0.030 A 
BRANCH  30  33
ATOM     33  O   UNL     1     -13.149   5.783   6.728  0.00  0.00    -0.495 OA
ATOM     34  C   UNL     1     -12.298   5.865   7.873  0.00  0.00    +0.277 C 
ENDBRANCH  30  33
ENDBRANCH  26  27
ENDBRANCH  21  22
ENDBRANCH  20  21
ENDBRANCH   1  20
TORSDOF 6
