REMARK  Name = ZINC43528178
REMARK  7 active torsions:
REMARK  status: ('A' for Active; 'I' for Inactive)
REMARK    1  A    between atoms: C_1  and  O_2
REMARK    2  A    between atoms: O_2  and  C_3
REMARK    3  A    between atoms: C_6  and  N_9
REMARK    4  A    between atoms: N_12  and  C_13
REMARK    5  A    between atoms: C_13  and  C_14
REMARK    6  A    between atoms: C_23  and  C_25
REMARK    7  A    between atoms: C_25  and  N_26
REMARK                            x       y       z     vdW  Elec       q    Type
REMARK                         _______ _______ _______ _____ _____    ______ ____
ROOT
ATOM      1  C   UNL     1       3.808  -5.703  -6.844  0.00  0.00    -0.051 C 
ATOM      2  C   UNL     1       3.962  -7.219  -6.708  0.00  0.00    -0.010 C 
ATOM      3  C   UNL     1       3.481  -7.884  -8.004  0.00  0.00    -0.012 C 
ATOM      4  C   UNL     1       2.009  -7.509  -8.223  0.00  0.00    -0.015 C 
ATOM      5  C   UNL     1       1.894  -5.985  -8.301  0.00  0.00    -0.078 C 
ATOM      6  N   UNL     1       3.253  -5.373  -8.159  0.00  0.00    +0.383 N 
ATOM      7  C   UNL     1       4.153  -5.821  -9.225  0.00  0.00    -0.073 C 
ATOM      8  C   UNL     1       4.319  -7.338  -9.168  0.00  0.00    -0.011 C 
ATOM      9  H   UNL     1       3.164  -4.371  -8.226  0.00  0.00    -0.081 HD
ENDROOT
BRANCH   1  10
ATOM     10  C   UNL     1       2.867  -5.188  -5.753  0.00  0.00    +0.090 C 
BRANCH  10  14
ATOM     11  N   UNL     1       1.603  -1.768  -5.283  0.00  0.00    -0.269 N 
ATOM     12  C   UNL     1       1.823  -3.085  -5.101  0.00  0.00    +0.304 C 
ATOM     13  O   UNL     1       1.297  -3.667  -4.173  0.00  0.00    -0.253 OA
ATOM     14  N   UNL     1       2.627  -3.757  -5.949  0.00  0.00    -0.301 N 
ATOM     15  H   UNL     1       1.960  -1.319  -6.065  0.00  0.00    +0.156 HD
ATOM     16  H   UNL     1       3.047  -3.292  -6.690  0.00  0.00    +0.150 HD
BRANCH  11  20
ATOM     17  C   UNL     1      -0.613   0.382  -2.478  0.00  0.00    +0.120 A 
ATOM     18  C   UNL     1       0.189  -0.673  -2.068  0.00  0.00    +0.047 A 
ATOM     19  C   UNL     1       0.923  -1.385  -2.996  0.00  0.00    +0.027 A 
ATOM     20  C   UNL     1       0.858  -1.046  -4.340  0.00  0.00    +0.035 A 
ATOM     21  C   UNL     1       0.055   0.010  -4.751  0.00  0.00    +0.027 A 
ATOM     22  C   UNL     1      -0.682   0.718  -3.822  0.00  0.00    +0.047 A 
BRANCH  17  24
ATOM     23  C   UNL     1      -1.216   0.681  -0.198  0.00  0.00    +0.277 C 
ATOM     24  O   UNL     1      -1.335   1.082  -1.564  0.00  0.00    -0.495 OA
ENDBRANCH  17  24
ENDBRANCH  11  20
ENDBRANCH  10  14
ENDBRANCH   1  10
BRANCH   8  25
ATOM     25  C   UNL     1       3.837  -7.956 -10.482  0.00  0.00    +0.086 C 
BRANCH  25  26
ATOM     26  N   UNL     1       4.719  -7.531 -11.576  0.00  0.00    -0.301 NA
ATOM     27  C   UNL     1       4.044  -7.649 -12.870  0.00  0.00    +0.095 C 
ATOM     28  C   UNL     1       4.772  -6.796 -13.916  0.00  0.00    +0.084 C 
ATOM     29  S   UNL     1       6.472  -7.424 -14.085  0.00  0.00    -0.158 S 
ATOM     30  C   UNL     1       7.044  -7.502 -12.359  0.00  0.00    +0.084 C 
ATOM     31  C   UNL     1       5.992  -8.254 -11.536  0.00  0.00    +0.095 C 
ENDBRANCH  25  26
ENDBRANCH   8  25
TORSDOF 6
