REMARK  Name = ZINC35970459
REMARK  10 active torsions:
REMARK  status: ('A' for Active; 'I' for Inactive)
REMARK    1  A    between atoms: C_1  and  C_2
REMARK    2  A    between atoms: C_4  and  C_32
REMARK    3  A    between atoms: C_6  and  N_8
REMARK    4  A    between atoms: N_8  and  C_9
REMARK    5  A    between atoms: C_11  and  C_12
REMARK    6  A    between atoms: C_17  and  C_31
REMARK    7  A    between atoms: C_18  and  C_27
REMARK    8  A    between atoms: C_19  and  C_22
REMARK    9  A    between atoms: C_27  and  O_29
REMARK   10  A    between atoms: O_29  and  C_30
REMARK                            x       y       z     vdW  Elec       q    Type
REMARK                         _______ _______ _______ _____ _____    ______ ____
ROOT
ATOM      1  C   UNL     1      -0.657  -2.250   5.893  0.00  0.00    +0.048 C 
ATOM      2  C   UNL     1      -0.536  -2.982   7.022  0.00  0.00    +0.072 C 
ATOM      3  S   UNL     1      -0.747  -1.745   8.287  0.00  0.00    -0.060 S 
ATOM      4  C   UNL     1      -0.971  -0.405   7.302  0.00  0.00    +0.166 C 
ATOM      5  N   UNL     1      -1.185   0.863   7.588  0.00  0.00    -0.230 NA
ATOM      6  C   UNL     1      -1.345   1.823   6.692  0.00  0.00    +0.053 C 
ATOM      7  C   UNL     1      -1.294   1.535   5.341  0.00  0.00    +0.082 C 
ATOM      8  C   UNL     1      -1.051   0.099   4.935  0.00  0.00    +0.150 C 
ATOM      9  N   UNL     1      -0.880  -0.894   6.029  0.00  0.00    -0.267 N 
ATOM     10  C   UNL     1      -1.585   3.239   7.147  0.00  0.00    +0.066 C 
ENDROOT
BRANCH   8  11
ATOM     11  C   UNL     1       0.192   0.061   4.083  0.00  0.00    -0.015 A 
ATOM     12  C   UNL     1       0.096  -0.013   2.706  0.00  0.00    +0.013 A 
ATOM     13  C   UNL     1       1.233  -0.045   1.969  0.00  0.00    +0.045 A 
ATOM     14  S   UNL     1       2.494   0.031   3.232  0.00  0.00    -0.105 S 
ATOM     15  C   UNL     1       1.419   0.106   4.656  0.00  0.00    +0.051 A 
ENDBRANCH   8  11
BRANCH   1  18
ATOM     16  C   UNL     1      -0.461  -4.214   4.458  0.00  0.00    +0.243 C 
ATOM     17  O   UNL     1      -0.355  -4.979   5.572  0.00  0.00    -0.270 OA
ATOM     18  C   UNL     1      -0.549  -2.874   4.566  0.00  0.00    +0.091 C 
BRANCH  16  19
ATOM     19  N   UNL     1      -0.479  -4.810   3.207  0.00  0.00    -0.282 N 
ATOM     20  H   UNL     1      -0.461  -4.261   2.408  0.00  0.00    +0.155 HD
BRANCH  19  26
ATOM     21  C   UNL     1      -2.013  -9.144   4.945  0.00  0.00    +0.044 C 
ATOM     22  C   UNL     1      -1.259  -8.329   3.926  0.00  0.00    -0.048 A 
ATOM     23  C   UNL     1      -0.609  -8.959   2.881  0.00  0.00    +0.006 A 
ATOM     24  C   UNL     1       0.084  -8.215   1.944  0.00  0.00    -0.048 A 
ATOM     25  C   UNL     1       0.130  -6.839   2.049  0.00  0.00    +0.026 A 
ATOM     26  C   UNL     1      -0.522  -6.202   3.098  0.00  0.00    +0.034 A 
ATOM     27  C   UNL     1      -1.222  -6.953   4.034  0.00  0.00    +0.026 A 
ATOM     28  C   UNL     1       0.791  -8.907   0.807  0.00  0.00    +0.044 C 
ENDBRANCH  19  26
ENDBRANCH  16  19
ENDBRANCH   1  18
BRANCH   7  29
ATOM     29  C   UNL     1      -1.462   2.540   4.381  0.00  0.00    +0.339 C 
ATOM     30  O   UNL     1      -1.553   3.705   4.728  0.00  0.00    -0.245 OA
BRANCH  29  31
ATOM     31  O   UNL     1      -1.523   2.219   3.070  0.00  0.00    -0.465 OA
ATOM     32  C   UNL     1      -1.583   3.301   2.139  0.00  0.00    +0.280 C 
ENDBRANCH  29  31
ENDBRANCH   7  29
TORSDOF 6
