REMARK  Name = ZINC02905546
REMARK  9 active torsions:
REMARK  status: ('A' for Active; 'I' for Inactive)
REMARK    1  A    between atoms: C_1  and  C_2
REMARK    2  A    between atoms: C_7  and  C_8
REMARK    3  A    between atoms: N_10  and  C_11
REMARK    4  A    between atoms: C_11  and  C_13
REMARK    5  A    between atoms: C_11  and  N_17
REMARK    6  A    between atoms: N_17  and  C_19
REMARK    7  A    between atoms: C_19  and  N_21
REMARK    8  A    between atoms: N_21  and  C_22
REMARK    9  A    between atoms: C_23  and  C_31
REMARK                            x       y       z     vdW  Elec       q    Type
REMARK                         _______ _______ _______ _____ _____    ______ ____
ROOT
ATOM      1  N   UNL     1      -3.384   8.671  -4.051  0.00  0.00    -0.305 N 
ATOM      2  H   UNL     1      -3.493   9.383  -3.402  0.00  0.00    +0.150 HD
ENDROOT
BRANCH   1   3
ATOM      3  C   UNL     1      -3.174   7.407  -3.635  0.00  0.00    +0.136 C 
ATOM      4  S   UNL     1      -2.981   6.149  -4.781  0.00  0.00    -0.019 S 
BRANCH   3   5
ATOM      5  N   UNL     1      -3.118   7.131  -2.317  0.00  0.00    -0.290 N 
ATOM      6  H   UNL     1      -3.227   7.844  -1.667  0.00  0.00    +0.154 HD
BRANCH   5   7
ATOM      7  C   UNL     1      -2.902   5.830  -1.888  0.00  0.00    +0.089 A 
ATOM      8  C   UNL     1      -2.813   5.354  -0.588  0.00  0.00    +0.084 A 
ATOM      9  C   UNL     1      -2.580   3.931  -0.408  0.00  0.00    -0.018 A 
ATOM     10  C   UNL     1      -2.473   3.217  -1.550  0.00  0.00    -0.004 A 
ATOM     11  S   UNL     1      -2.679   4.404  -2.847  0.00  0.00    -0.077 S 
ATOM     12  C   UNL     1      -2.233   1.744  -1.675  0.00  0.00    +0.043 C 
ATOM     13  C   UNL     1      -1.751   1.216  -0.316  0.00  0.00    +0.005 C 
ATOM     14  C   UNL     1      -2.674   1.754   0.782  0.00  0.00    +0.005 C 
ATOM     15  C   UNL     1      -2.459   3.257   0.953  0.00  0.00    +0.037 C 
BRANCH   8  16
ATOM     16  C   UNL     1      -2.946   6.232   0.535  0.00  0.00    +0.102 C 
ATOM     17  N   UNL     1      -3.052   6.929   1.425  0.00  0.00    -0.191 NA
ENDBRANCH   8  16
ENDBRANCH   5   7
ENDBRANCH   3   5
ENDBRANCH   1   3
BRANCH   1  18
ATOM     18  C   UNL     1      -3.445   8.970  -5.484  0.00  0.00    +0.211 C 
BRANCH  18  21
ATOM     19  C   UNL     1      -1.281   8.944  -6.603  0.00  0.00    +0.246 C 
ATOM     20  O   UNL     1      -1.477   7.780  -6.892  0.00  0.00    -0.270 OA
ATOM     21  N   UNL     1      -2.204   9.629  -5.899  0.00  0.00    -0.289 N 
ATOM     22  H   UNL     1      -2.048  10.558  -5.668  0.00  0.00    +0.151 HD
BRANCH  19  29
ATOM     23  C   UNL     1       0.802   7.397  -7.883  0.00  0.00    +0.044 C 
ATOM     24  C   UNL     1       0.983   8.873  -7.640  0.00  0.00    -0.038 A 
ATOM     25  C   UNL     1       2.149   9.500  -8.029  0.00  0.00    +0.004 A 
ATOM     26  C   UNL     1       2.316  10.855  -7.808  0.00  0.00    +0.000 A 
ATOM     27  C   UNL     1       1.317  11.591  -7.195  0.00  0.00    +0.001 A 
ATOM     28  C   UNL     1       0.145  10.978  -6.806  0.00  0.00    +0.013 A 
ATOM     29  C   UNL     1      -0.029   9.609  -7.022  0.00  0.00    +0.040 A 
ENDBRANCH  19  29
ENDBRANCH  18  21
BRANCH  18  30
ATOM     30  C   UNL     1      -4.632   9.896  -5.761  0.00  0.00    +0.225 C 
ATOM     31 CL   UNL     1      -4.427  11.429  -4.836  0.00  0.00    -0.080 Cl
ATOM     32 CL   UNL     1      -4.708  10.263  -7.525  0.00  0.00    -0.080 Cl
ATOM     33 CL   UNL     1      -6.159   9.085  -5.250  0.00  0.00    -0.080 Cl
ENDBRANCH  18  30
ENDBRANCH   1  18
TORSDOF 8
