REMARK  Name = ZINC34808479
REMARK  4 active torsions:
REMARK  status: ('A' for Active; 'I' for Inactive)
REMARK    1  A    between atoms: C_1  and  C_2
REMARK    2  A    between atoms: C_9  and  C_27
REMARK    3  A    between atoms: C_27  and  C_29
REMARK    4  A    between atoms: C_33  and  N_35
REMARK                            x       y       z     vdW  Elec       q    Type
REMARK                         _______ _______ _______ _____ _____    ______ ____
ROOT
ATOM      1  C   UNL     1      -0.018   1.503   0.010  0.00  0.00    +0.044 C 
ATOM      2  C   UNL     1       0.002  -0.004   0.002  0.00  0.00    -0.050 A 
ATOM      3  C   UNL     1      -0.004  -0.691  -1.198  0.00  0.00    +0.005 A 
ATOM      4  C   UNL     1       0.038  -2.070  -1.208  0.00  0.00    +0.024 A 
ATOM      5  C   UNL     1       0.071  -2.779  -0.009  0.00  0.00    +0.039 A 
ATOM      6  C   UNL     1       0.027  -2.080   1.193  0.00  0.00    +0.004 A 
ATOM      7  C   UNL     1       0.023  -0.703   1.196  0.00  0.00    +0.011 A 
ATOM      8  C   UNL     1      -0.019  -3.123   2.282  0.00  0.00    +0.137 C 
ATOM      9  C   UNL     1      -1.378  -3.130   2.999  0.00  0.00    +0.115 C 
ATOM     10  C   UNL     1      -1.146  -2.349   4.298  0.00  0.00    +0.102 C 
ATOM     11  C   UNL     1      -1.865  -3.023   5.436  0.00  0.00    -0.009 A 
ATOM     12  C   UNL     1      -1.876  -4.310   5.925  0.00  0.00    +0.006 A 
ATOM     13  C   UNL     1      -2.651  -4.633   7.025  0.00  0.00    +0.000 A 
ATOM     14  C   UNL     1      -3.432  -3.662   7.625  0.00  0.00    +0.002 A 
ATOM     15  C   UNL     1      -3.451  -2.379   7.121  0.00  0.00    +0.023 A 
ATOM     16  C   UNL     1      -2.679  -2.052   6.009  0.00  0.00    +0.038 A 
ATOM     17  N   UNL     1      -2.585  -0.860   5.289  0.00  0.00    -0.284 N 
ATOM     18  C   UNL     1      -1.735  -0.963   4.248  0.00  0.00    +0.230 C 
ATOM     19  O   UNL     1      -1.489  -0.080   3.455  0.00  0.00    -0.274 OA
ATOM     20  C   UNL     1       0.364  -2.275   4.488  0.00  0.00    +0.078 C 
ATOM     21  N   UNL     1       1.004  -2.863   3.288  0.00  0.00    -0.280 NA
ATOM     22  C   UNL     1       1.741  -4.066   3.714  0.00  0.00    +0.086 C 
ATOM     23  C   UNL     1       2.163  -3.732   5.174  0.00  0.00    +0.017 C 
ATOM     24  C   UNL     1       0.851  -3.082   5.703  0.00  0.00    +0.021 C 
ATOM     25  C   UNL     1       0.172  -4.428   1.554  0.00  0.00    +0.243 C 
ATOM     26  O   UNL     1       0.290  -5.535   2.033  0.00  0.00    -0.273 OA
ATOM     27  N   UNL     1       0.165  -4.149   0.236  0.00  0.00    -0.283 N 
ATOM     28  H   UNL     1      -3.073  -0.051   5.510  0.00  0.00    +0.155 HD
ATOM     29  H   UNL     1       0.217  -4.822  -0.459  0.00  0.00    +0.155 HD
ENDROOT
BRANCH   9  30
ATOM     30  C   UNL     1      -2.462  -2.522   2.157  0.00  0.00    +0.170 C 
ATOM     31  O   UNL     1      -2.672  -1.329   2.207  0.00  0.00    -0.292 OA
BRANCH  30  32
ATOM     32  C   UNL     1      -3.271  -3.375   1.271  0.00  0.00    +0.020 A 
ATOM     33  C   UNL     1      -3.036  -4.753   1.216  0.00  0.00    +0.011 A 
ATOM     34  C   UNL     1      -3.798  -5.545   0.383  0.00  0.00    +0.003 A 
ATOM     35  C   UNL     1      -4.794  -4.981  -0.396  0.00  0.00    +0.033 A 
ATOM     36  C   UNL     1      -5.032  -3.618  -0.346  0.00  0.00    +0.127 A 
ATOM     37  C   UNL     1      -4.282  -2.813   0.486  0.00  0.00    +0.044 A 
BRANCH  36  38
ATOM     38  N   UNL     1      -6.099  -3.025  -1.183  0.00  0.00    +0.056 N 
ATOM     39  O   UNL     1      -6.760  -3.730  -1.909  0.00  0.00    -0.126 OA
ATOM     40  O   UNL     1      -6.308  -1.835  -1.141  0.00  0.00    -0.126 OA
ENDBRANCH  36  38
ENDBRANCH  30  32
ENDBRANCH   9  30
TORSDOF 3
