REMARK  Name = ZINC27856295
REMARK  5 active torsions:
REMARK  status: ('A' for Active; 'I' for Inactive)
REMARK    1  A    between atoms: C_3  and  N_18
REMARK    2  A    between atoms: C_6  and  N_7
REMARK    3  A    between atoms: C_8  and  C_10
REMARK    4  A    between atoms: N_21  and  C_22
REMARK    5  A    between atoms: C_22  and  C_23
REMARK                            x       y       z     vdW  Elec       q    Type
REMARK                         _______ _______ _______ _____ _____    ______ ____
ROOT
ATOM      1  C   UNL     1      -0.075   1.402  -0.324  0.00  0.00    +0.025 A 
ATOM      2  C   UNL     1       1.094   2.135  -0.353  0.00  0.00    +0.025 A 
ATOM      3  C   UNL     1       2.310   1.513  -0.102  0.00  0.00    +0.035 A 
ATOM      4  C   UNL     1       2.350   0.153   0.178  0.00  0.00    +0.025 A 
ATOM      5  C   UNL     1       1.180  -0.580   0.207  0.00  0.00    +0.025 A 
ATOM      6  C   UNL     1      -0.036   0.043  -0.043  0.00  0.00    +0.034 A 
ENDROOT
BRANCH   3   7
ATOM      7  N   UNL     1       3.497   2.257  -0.132  0.00  0.00    -0.269 N 
ATOM      8  C   UNL     1       3.507   3.528   0.317  0.00  0.00    +0.304 C 
ATOM      9  O   UNL     1       2.470   4.057   0.668  0.00  0.00    -0.253 OA
ATOM     10  N   UNL     1       4.667   4.212   0.375  0.00  0.00    -0.297 N 
ATOM     11  H   UNL     1       4.311   1.857  -0.475  0.00  0.00    +0.156 HD
ATOM     12  H   UNL     1       5.494   3.790   0.095  0.00  0.00    +0.150 HD
BRANCH  10  13
ATOM     13  C   UNL     1       4.678   5.594   0.862  0.00  0.00    +0.137 C 
BRANCH  13  14
ATOM     14  C   UNL     1       6.108   6.136   0.827  0.00  0.00    +0.135 C 
ATOM     15  C   UNL     1       6.148   7.586   1.372  0.00  0.00    +0.035 C 
ATOM     16  C   UNL     1       7.623   7.681   1.849  0.00  0.00    +0.031 C 
ATOM     17  C   UNL     1       7.902   6.245   2.341  0.00  0.00    +0.160 C 
ATOM     18  O   UNL     1       6.950   5.378   1.711  0.00  0.00    -0.375 OA
ENDBRANCH  13  14
ENDBRANCH  10  13
ENDBRANCH   3   7
BRANCH   6  19
ATOM     19  N   UNL     1      -1.222  -0.701  -0.014  0.00  0.00    -0.281 N 
ATOM     20  C   UNL     1      -2.240  -0.379  -0.837  0.00  0.00    +0.249 C 
ATOM     21  O   UNL     1      -2.094   0.494  -1.671  0.00  0.00    -0.270 OA
ATOM     22  H   UNL     1      -1.312  -1.447   0.600  0.00  0.00    +0.155 HD
BRANCH  20  23
ATOM     23  C   UNL     1      -3.530  -1.088  -0.727  0.00  0.00    +0.051 A 
ATOM     24  C   UNL     1      -3.702  -2.088   0.233  0.00  0.00    +0.017 A 
ATOM     25  C   UNL     1      -4.908  -2.746   0.332  0.00  0.00    +0.039 A 
ATOM     26  C   UNL     1      -5.952  -2.418  -0.521  0.00  0.00    +0.124 A 
ATOM     27  C   UNL     1      -5.789  -1.427  -1.476  0.00  0.00    +0.054 A 
ATOM     28  C   UNL     1      -4.587  -0.757  -1.580  0.00  0.00    +0.033 A 
ATOM     29 BR   UNL     1      -4.368   0.601  -2.878  0.00  0.00    -0.049 Br
ATOM     30  F   UNL     1      -7.132  -3.067  -0.420  0.00  0.00    -0.205 F 
ENDBRANCH  20  23
ENDBRANCH   6  19
TORSDOF 5
