REMARK  Name = ZINC39694883
REMARK  8 active torsions:
REMARK  status: ('A' for Active; 'I' for Inactive)
REMARK    1  A    between atoms: C_1  and  C_2
REMARK    2  A    between atoms: C_4  and  C_35
REMARK    3  A    between atoms: C_6  and  C_8
REMARK    4  A    between atoms: C_8  and  N_9
REMARK    5  A    between atoms: C_10  and  C_12
REMARK    6  A    between atoms: C_23  and  C_25
REMARK    7  A    between atoms: C_28  and  O_32
REMARK    8  A    between atoms: O_32  and  C_33
REMARK                            x       y       z     vdW  Elec       q    Type
REMARK                         _______ _______ _______ _____ _____    ______ ____
ROOT
ATOM      1  C   UNL     1       3.810  -3.964   4.433  0.00  0.00    +0.100 C 
ATOM      2  C   UNL     1       4.226  -2.486   4.599  0.00  0.00    +0.121 C 
ATOM      3  N   UNL     1       4.037  -2.204   6.042  0.00  0.00    -0.296 N 
ATOM      4  C   UNL     1       4.500  -3.437   6.722  0.00  0.00    +0.115 C 
ATOM      5  C   UNL     1       3.994  -4.586   5.827  0.00  0.00    -0.004 C 
ATOM      6  C   UNL     1       2.662  -5.114   6.351  0.00  0.00    -0.010 C 
ATOM      7  C   UNL     1       2.881  -5.777   7.713  0.00  0.00    -0.082 C 
ATOM      8  N   UNL     1       3.845  -6.875   7.575  0.00  0.00    +0.379 N 
ATOM      9  C   UNL     1       5.150  -6.347   7.160  0.00  0.00    -0.082 C 
ATOM     10  C   UNL     1       5.027  -5.707   5.775  0.00  0.00    -0.010 C 
ATOM     11  C   UNL     1       3.554  -1.080   6.607  0.00  0.00    +0.247 C 
ATOM     12  O   UNL     1       3.095  -0.196   5.909  0.00  0.00    -0.270 OA
ATOM     13  H   UNL     1       3.942  -7.350   8.461  0.00  0.00    -0.086 HD
ATOM     14  H   UNL     1       3.512  -7.528   6.882  0.00  0.00    -0.086 HD
ENDROOT
BRANCH  11  15
ATOM     15  C   UNL     1       3.581  -0.921   8.074  0.00  0.00    +0.040 A 
ATOM     16  C   UNL     1       4.466  -1.680   8.845  0.00  0.00    +0.036 A 
ATOM     17  C   UNL     1       4.488  -1.530  10.214  0.00  0.00    +0.085 A 
ATOM     18  C   UNL     1       3.631  -0.624  10.830  0.00  0.00    +0.157 A 
ATOM     19  C   UNL     1       2.749   0.133  10.067  0.00  0.00    +0.085 A 
ATOM     20  C   UNL     1       2.725  -0.008   8.696  0.00  0.00    +0.036 A 
ATOM     21 CL   UNL     1       1.681   1.262  10.841  0.00  0.00    -0.080 Cl
ATOM     22 CL   UNL     1       5.587  -2.472  11.172  0.00  0.00    -0.080 Cl
BRANCH  18  23
ATOM     23  O   UNL     1       3.655  -0.479  12.180  0.00  0.00    -0.492 OA
ATOM     24  C   UNL     1       4.549   0.502  12.711  0.00  0.00    +0.277 C 
ENDBRANCH  18  23
ENDBRANCH  11  15
BRANCH   1  26
ATOM     25  N   UNL     1       1.931  -5.154   3.351  0.00  0.00    -0.311 N 
ATOM     26  C   UNL     1       2.369  -4.059   4.002  0.00  0.00    +0.218 C 
ATOM     27  O   UNL     1       1.604  -3.149   4.242  0.00  0.00    -0.275 OA
ATOM     28  H   UNL     1       2.543  -5.882   3.159  0.00  0.00    +0.149 HD
BRANCH  25  29
ATOM     29  C   UNL     1       0.530  -5.246   2.932  0.00  0.00    +0.139 C 
BRANCH  29  35
ATOM     30  C   UNL     1       0.450  -7.955  -1.275  0.00  0.00    +0.044 C 
ATOM     31  C   UNL     1       0.261  -7.855   0.217  0.00  0.00    -0.050 A 
ATOM     32  C   UNL     1      -0.122  -8.968   0.941  0.00  0.00    +0.006 A 
ATOM     33  C   UNL     1      -0.295  -8.877   2.310  0.00  0.00    -0.050 A 
ATOM     34  C   UNL     1      -0.084  -7.672   2.954  0.00  0.00    +0.008 A 
ATOM     35  C   UNL     1       0.300  -6.559   2.230  0.00  0.00    -0.030 A 
ATOM     36  C   UNL     1       0.477  -6.652   0.862  0.00  0.00    +0.008 A 
ATOM     37  C   UNL     1      -0.715 -10.090   3.099  0.00  0.00    +0.044 C 
ENDBRANCH  29  35
ENDBRANCH  25  29
ENDBRANCH   1  26
TORSDOF 5
