REMARK  Name = ZINC06613772
REMARK  7 active torsions:
REMARK  status: ('A' for Active; 'I' for Inactive)
REMARK    1  A    between atoms: C_1  and  C_2
REMARK    2  A    between atoms: C_5  and  S_8
REMARK    3  A    between atoms: S_8  and  N_11
REMARK    4  A    between atoms: N_11  and  N_12
REMARK    5  A    between atoms: N_12  and  C_13
REMARK    6  A    between atoms: C_13  and  N_15
REMARK    7  A    between atoms: N_15  and  C_16
REMARK                            x       y       z     vdW  Elec       q    Type
REMARK                         _______ _______ _______ _____ _____    ______ ____
ROOT
ATOM      1  N   UNL     1       2.531  -2.594  -2.159  0.00  0.00    -0.243 N 
ATOM      2  H   UNL     1       2.919  -1.712  -2.047  0.00  0.00    +0.170 HD
ENDROOT
BRANCH   1   3
ATOM      3  N   UNL     1       1.273  -2.880  -1.613  0.00  0.00    -0.109 NA
ATOM      4  H   UNL     1       0.564  -3.221  -2.180  0.00  0.00    +0.172 HD
BRANCH   3   5
ATOM      5  S   UNL     1       0.996  -2.636   0.002  0.00  0.00    +0.074 S 
ATOM      6  O   UNL     1       2.009  -3.347   0.700  0.00  0.00    -0.152 OA
ATOM      7  O   UNL     1      -0.388  -2.874   0.217  0.00  0.00    -0.152 OA
BRANCH   5  12
ATOM      8  C   UNL     1       1.928   3.222   1.107  0.00  0.00    +0.044 C 
ATOM      9  C   UNL     1       1.695   1.759   0.831  0.00  0.00    -0.050 A 
ATOM     10  C   UNL     1       0.436   1.315   0.471  0.00  0.00    +0.005 A 
ATOM     11  C   UNL     1       0.223  -0.027   0.218  0.00  0.00    +0.029 A 
ATOM     12  C   UNL     1       1.268  -0.925   0.324  0.00  0.00    +0.107 A 
ATOM     13  C   UNL     1       2.527  -0.481   0.682  0.00  0.00    +0.029 A 
ATOM     14  C   UNL     1       2.741   0.861   0.935  0.00  0.00    +0.005 A 
ENDBRANCH   5  12
ENDBRANCH   3   5
ENDBRANCH   1   3
BRANCH   1  15
ATOM     15  C   UNL     1       3.201  -3.544  -2.841  0.00  0.00    +0.150 C 
ATOM     16  S   UNL     1       4.739  -3.194  -3.508  0.00  0.00    -0.017 S 
BRANCH  15  17
ATOM     17  N   UNL     1       2.662  -4.769  -2.997  0.00  0.00    -0.296 N 
ATOM     18  H   UNL     1       1.820  -4.987  -2.567  0.00  0.00    +0.154 HD
BRANCH  17  19
ATOM     19  C   UNL     1       3.316  -5.727  -3.779  0.00  0.00    +0.033 A 
ATOM     20  C   UNL     1       2.599  -6.483  -4.697  0.00  0.00    +0.024 A 
ATOM     21  C   UNL     1       3.249  -7.424  -5.471  0.00  0.00    +0.017 A 
ATOM     22  C   UNL     1       4.610  -7.622  -5.325  0.00  0.00    +0.018 A 
ATOM     23  C   UNL     1       5.326  -6.875  -4.407  0.00  0.00    +0.017 A 
ATOM     24  C   UNL     1       4.683  -5.928  -3.634  0.00  0.00    +0.024 A 
ATOM     25 BR   UNL     1       5.495  -8.918  -6.382  0.00  0.00    -0.050 Br
ENDBRANCH  17  19
ENDBRANCH  15  17
ENDBRANCH   1  15
TORSDOF 6
