REMARK  Name = ZINC15511008
REMARK  8 active torsions:
REMARK  status: ('A' for Active; 'I' for Inactive)
REMARK    1  A    between atoms: C_1  and  C_2
REMARK    2  A    between atoms: C_5  and  N_8
REMARK    3  A    between atoms: N_8  and  C_9
REMARK    4  A    between atoms: N_8  and  S_10
REMARK    5  A    between atoms: S_10  and  C_13
REMARK    6  A    between atoms: C_17  and  C_19
REMARK    7  A    between atoms: N_21  and  N_22
REMARK    8  A    between atoms: C_23  and  C_25
REMARK                            x       y       z     vdW  Elec       q    Type
REMARK                         _______ _______ _______ _____ _____    ______ ____
ROOT
ATOM      1  C   UNL     1       5.108   1.489   1.004  0.00  0.00    +0.109 A 
ATOM      2  C   UNL     1       5.739   2.629   1.470  0.00  0.00    +0.029 A 
ATOM      3  C   UNL     1       5.074   3.498   2.317  0.00  0.00    +0.003 A 
ATOM      4  C   UNL     1       3.775   3.234   2.699  0.00  0.00    +0.013 A 
ATOM      5  C   UNL     1       3.135   2.083   2.237  0.00  0.00    +0.040 A 
ATOM      6  C   UNL     1       3.811   1.211   1.383  0.00  0.00    +0.042 A 
ENDROOT
BRANCH   5   7
ATOM      7  C   UNL     1       1.744   1.792   2.647  0.00  0.00    +0.260 C 
ATOM      8  O   UNL     1       1.188   0.791   2.240  0.00  0.00    -0.269 OA
ATOM      9  N   UNL     1       1.092   2.639   3.468  0.00  0.00    -0.230 N 
ATOM     10  H   UNL     1       1.536   3.438   3.793  0.00  0.00    +0.173 HD
BRANCH   9  11
ATOM     11  N   UNL     1      -0.228   2.366   3.851  0.00  0.00    -0.230 N 
ATOM     12  C   UNL     1      -0.880   3.213   4.672  0.00  0.00    +0.260 C 
ATOM     13  O   UNL     1      -0.323   4.214   5.079  0.00  0.00    -0.269 OA
ATOM     14  H   UNL     1      -0.672   1.567   3.526  0.00  0.00    +0.173 HD
BRANCH  12  15
ATOM     15  C   UNL     1      -2.272   2.925   5.077  0.00  0.00    +0.038 A 
ATOM     16  C   UNL     1      -2.916   1.779   4.606  0.00  0.00    +0.014 A 
ATOM     17  C   UNL     1      -4.213   1.513   4.991  0.00  0.00    +0.021 A 
ATOM     18  C   UNL     1      -4.880   2.385   5.834  0.00  0.00    +0.041 A 
ATOM     19  C   UNL     1      -4.249   3.526   6.300  0.00  0.00    +0.021 A 
ATOM     20  C   UNL     1      -2.950   3.800   5.927  0.00  0.00    +0.014 A 
ATOM     21 CL   UNL     1      -6.515   2.046   6.310  0.00  0.00    -0.084 Cl
ENDBRANCH  12  15
ENDBRANCH   9  11
ENDBRANCH   5   7
BRANCH   1  22
ATOM     22  S   UNL     1       5.964   0.389  -0.074  0.00  0.00    +0.074 S 
ATOM     23  O   UNL     1       7.348   0.681   0.062  0.00  0.00    -0.150 OA
ATOM     24  O   UNL     1       5.432  -0.907   0.162  0.00  0.00    -0.150 OA
BRANCH  22  25
ATOM     25  N   UNL     1       5.544   0.798  -1.623  0.00  0.00    -0.206 N 
ATOM     26  C   UNL     1       4.316   0.262  -2.216  0.00  0.00    +0.157 C 
BRANCH  25  31
ATOM     27  C   UNL     1       8.859   4.277  -4.635  0.00  0.00    +0.044 C 
ATOM     28  C   UNL     1       7.978   3.352  -3.835  0.00  0.00    -0.050 A 
ATOM     29  C   UNL     1       7.797   2.045  -4.246  0.00  0.00    +0.005 A 
ATOM     30  C   UNL     1       6.990   1.195  -3.515  0.00  0.00    +0.025 A 
ATOM     31  C   UNL     1       6.361   1.655  -2.365  0.00  0.00    +0.051 A 
ATOM     32  C   UNL     1       6.541   2.971  -1.958  0.00  0.00    +0.025 A 
ATOM     33  C   UNL     1       7.353   3.814  -2.691  0.00  0.00    +0.005 A 
ENDBRANCH  25  31
ENDBRANCH  22  25
ENDBRANCH   1  22
TORSDOF 6
