REMARK  Name = ZINC35674681
REMARK  13 active torsions:
REMARK  status: ('A' for Active; 'I' for Inactive)
REMARK    1  A    between atoms: C_1  and  C_2
REMARK    2  A    between atoms: C_2  and  C_3
REMARK    3  A    between atoms: C_3  and  N_4
REMARK    4  A    between atoms: C_12  and  O_34
REMARK    5  A    between atoms: C_13  and  O_32
REMARK    6  A    between atoms: C_16  and  C_18
REMARK    7  A    between atoms: C_18  and  C_20
REMARK    8  A    between atoms: C_18  and  N_22
REMARK    9  A    between atoms: C_20  and  C_21
REMARK   10  A    between atoms: C_23  and  C_25
REMARK   11  A    between atoms: C_28  and  C_31
REMARK   12  A    between atoms: O_32  and  C_33
REMARK   13  A    between atoms: O_34  and  C_35
REMARK                            x       y       z     vdW  Elec       q    Type
REMARK                         _______ _______ _______ _____ _____    ______ ____
ROOT
ATOM      1  N   UNL     1       2.477  -1.766   3.245  0.00  0.00    -0.299 N 
ATOM      2  C   UNL     1       1.823  -2.328   2.209  0.00  0.00    +0.303 C 
ATOM      3  O   UNL     1       1.334  -1.625   1.346  0.00  0.00    -0.253 OA
ATOM      4  N   UNL     1       1.712  -3.669   2.130  0.00  0.00    -0.276 N 
ATOM      5  C   UNL     1       1.109  -4.319   0.954  0.00  0.00    +0.114 C 
ATOM      6  C   UNL     1      -0.165  -5.028   1.412  0.00  0.00    +0.054 C 
ATOM      7  C   UNL     1       0.090  -5.838   2.656  0.00  0.00    -0.037 A 
ATOM      8  C   UNL     1      -0.808  -6.857   2.954  0.00  0.00    +0.053 A 
ATOM      9  C   UNL     1      -0.641  -7.635   4.084  0.00  0.00    +0.162 A 
ATOM     10  C   UNL     1       0.436  -7.394   4.933  0.00  0.00    +0.162 A 
ATOM     11  C   UNL     1       1.329  -6.382   4.632  0.00  0.00    +0.055 A 
ATOM     12  C   UNL     1       1.160  -5.607   3.491  0.00  0.00    -0.018 A 
ATOM     13  C   UNL     1       2.192  -4.539   3.208  0.00  0.00    +0.128 C 
ATOM     14  H   UNL     1       2.805  -2.321   3.970  0.00  0.00    +0.150 HD
ENDROOT
BRANCH  10  15
ATOM     15  O   UNL     1       0.609  -8.149   6.051  0.00  0.00    -0.491 OA
ATOM     16  C   UNL     1       1.736  -7.842   6.873  0.00  0.00    +0.277 C 
ENDBRANCH  10  15
BRANCH   9  17
ATOM     17  O   UNL     1      -1.524  -8.629   4.366  0.00  0.00    -0.491 OA
ATOM     18  C   UNL     1      -2.604  -8.817   3.449  0.00  0.00    +0.277 C 
ENDBRANCH   9  17
BRANCH   1  19
ATOM     19  C   UNL     1       2.693  -0.318   3.277  0.00  0.00    +0.105 C 
BRANCH  19  21
ATOM     20  C   UNL     1       3.679   1.570   4.583  0.00  0.00    +0.005 C 
ATOM     21  C   UNL     1       3.454   0.057   4.550  0.00  0.00    +0.015 C 
ENDBRANCH  19  21
ENDBRANCH   1  19
BRANCH  13  22
ATOM     22  C   UNL     1       3.508  -5.196   2.784  0.00  0.00    +0.098 C 
BRANCH  22  23
ATOM     23  N   UNL     1       4.444  -4.165   2.330  0.00  0.00    -0.306 N 
ATOM     24  C   UNL     1       5.306  -4.431   1.329  0.00  0.00    +0.244 C 
ATOM     25  O   UNL     1       5.307  -5.527   0.804  0.00  0.00    -0.270 OA
ATOM     26  H   UNL     1       4.443  -3.290   2.749  0.00  0.00    +0.149 HD
BRANCH  24  27
ATOM     27  C   UNL     1       6.251  -3.391   0.871  0.00  0.00    +0.037 A 
ATOM     28  C   UNL     1       6.257  -2.133   1.476  0.00  0.00    +0.013 A 
ATOM     29  C   UNL     1       7.141  -1.167   1.043  0.00  0.00    +0.004 A 
ATOM     30  C   UNL     1       8.021  -1.442   0.012  0.00  0.00    -0.050 A 
ATOM     31  C   UNL     1       8.021  -2.686  -0.593  0.00  0.00    +0.004 A 
ATOM     32  C   UNL     1       7.146  -3.664  -0.166  0.00  0.00    +0.013 A 
ATOM     33  C   UNL     1       8.984  -0.381  -0.456  0.00  0.00    +0.044 C 
ENDBRANCH  24  27
ENDBRANCH  22  23
BRANCH  22  34
ATOM     34  C   UNL     1       4.111  -5.944   3.975  0.00  0.00    +0.021 C 
ATOM     35  C   UNL     1       5.425  -6.603   3.551  0.00  0.00    +0.006 C 
ENDBRANCH  22  34
ENDBRANCH  13  22
TORSDOF 8
