REMARK  Name = ZINC32738597
REMARK  5 active torsions:
REMARK  status: ('A' for Active; 'I' for Inactive)
REMARK    1  A    between atoms: C_1  and  C_2
REMARK    2  A    between atoms: C_3  and  N_21
REMARK    3  A    between atoms: C_5  and  S_9
REMARK    4  A    between atoms: S_9  and  N_12
REMARK    5  A    between atoms: C_15  and  C_18
REMARK                            x       y       z     vdW  Elec       q    Type
REMARK                         _______ _______ _______ _____ _____    ______ ____
ROOT
ATOM      1  S   UNL     1       0.974   3.841  -0.048  0.00  0.00    +0.061 S 
ATOM      2  O   UNL     1       2.272   4.333  -0.352  0.00  0.00    -0.153 OA
ATOM      3  O   UNL     1      -0.165   4.158  -0.837  0.00  0.00    -0.153 OA
ENDROOT
BRANCH   1   8
ATOM      4  C   UNL     1       1.386  -2.179   0.034  0.00  0.00    +0.047 C 
ATOM      5  C   UNL     1       1.284  -0.676   0.013  0.00  0.00    -0.002 A 
ATOM      6  C   UNL     1       0.065  -0.069  -0.229  0.00  0.00    +0.132 A 
ATOM      7  C   UNL     1      -0.029   1.310  -0.248  0.00  0.00    +0.061 A 
ATOM      8  C   UNL     1       1.095   2.083  -0.024  0.00  0.00    +0.109 A 
ATOM      9  C   UNL     1       2.314   1.478   0.218  0.00  0.00    +0.049 A 
ATOM     10  C   UNL     1       2.409   0.097   0.237  0.00  0.00    +0.048 A 
ATOM     11 CL   UNL     1       3.939  -0.664   0.541  0.00  0.00    -0.083 Cl
BRANCH   6  12
ATOM     12  N   UNL     1      -1.138  -0.896  -0.469  0.00  0.00    +0.057 N 
ATOM     13  O   UNL     1      -1.047  -1.938  -1.095  0.00  0.00    -0.126 OA
ATOM     14  O   UNL     1      -2.220  -0.536  -0.041  0.00  0.00    -0.126 OA
ENDBRANCH   6  12
ENDBRANCH   1   8
BRANCH   1  15
ATOM     15  N   UNL     1       0.632   4.329   1.496  0.00  0.00    -0.177 NA
ATOM     16  C   UNL     1      -0.760   4.468   1.947  0.00  0.00    +0.110 C 
ATOM     17  C   UNL     1      -0.960   5.869   2.522  0.00  0.00    +0.030 C 
ATOM     18  C   UNL     1       0.083   6.123   3.613  0.00  0.00    +0.077 C 
ATOM     19  C   UNL     1       1.486   6.043   3.009  0.00  0.00    +0.030 C 
ATOM     20  C   UNL     1       1.714   4.639   2.441  0.00  0.00    +0.110 C 
BRANCH  18  21
ATOM     21  C   UNL     1      -0.132   7.493   4.203  0.00  0.00    +0.214 C 
ATOM     22  O   UNL     1       0.750   8.323   4.146  0.00  0.00    -0.276 OA
ATOM     23  N   UNL     1      -1.305   7.795   4.794  0.00  0.00    -0.329 N 
ATOM     24  H   UNL     1      -1.462   8.795   5.225  0.00  0.00    +0.145 HD
ATOM     25  H   UNL     1      -2.105   7.042   4.846  0.00  0.00    +0.145 HD
ENDBRANCH  18  21
ENDBRANCH   1  15
TORSDOF 4
