REMARK  Name = ZINC65074634
REMARK  7 active torsions:
REMARK  status: ('A' for Active; 'I' for Inactive)
REMARK    1  A    between atoms: C_1  and  C_2
REMARK    2  A    between atoms: C_2  and  C_3
REMARK    3  A    between atoms: C_3  and  C_4
REMARK    4  A    between atoms: C_7  and  S_10
REMARK    5  A    between atoms: S_10  and  N_13
REMARK    6  A    between atoms: N_24  and  C_25
REMARK    7  A    between atoms: C_25  and  C_26
REMARK                            x       y       z     vdW  Elec       q    Type
REMARK                         _______ _______ _______ _____ _____    ______ ____
ROOT
ATOM      1  N   UNL     1       0.236  -7.036  -0.032  0.00  0.00    -0.176 NA
ATOM      2  C   UNL     1       0.949  -7.235  -1.301  0.00  0.00    +0.111 C 
ATOM      3  C   UNL     1       1.570  -8.635  -1.303  0.00  0.00    +0.047 C 
ATOM      4  C   UNL     1       2.447  -8.802  -0.059  0.00  0.00    +0.075 C 
ATOM      5  C   UNL     1       1.581  -8.660   1.196  0.00  0.00    +0.047 C 
ATOM      6  C   UNL     1       0.961  -7.255   1.227  0.00  0.00    +0.111 C 
ATOM      7  C   UNL     1       3.089 -10.161  -0.075  0.00  0.00    +0.089 C 
ATOM      8  N   UNL     1       4.314 -10.360  -0.385  0.00  0.00    -0.374 N 
ATOM      9  C   UNL     1       5.242  -9.295  -0.750  0.00  0.00    +0.129 C 
ATOM     10  C   UNL     1       4.469  -8.026  -1.114  0.00  0.00    +0.102 C 
ATOM     11  N   UNL     1       3.483  -7.759  -0.053  0.00  0.00    -0.303 NA
ATOM     12  N   UNL     1       2.320 -11.244   0.260  0.00  0.00    -0.329 N 
ATOM     13  H   UNL     1       3.074  -6.843  -0.161  0.00  0.00    +0.123 HD
ATOM     14  H   UNL     1       1.388 -11.123   0.499  0.00  0.00    +0.147 HD
ATOM     15  H   UNL     1       4.645 -11.272  -0.376  0.00  0.00    +0.161 HD
ENDROOT
BRANCH   1  16
ATOM     16  S   UNL     1      -1.352  -6.567  -0.020  0.00  0.00    +0.061 S 
ATOM     17  O   UNL     1      -1.891  -6.987   1.226  0.00  0.00    -0.153 OA
ATOM     18  O   UNL     1      -1.905  -6.973  -1.265  0.00  0.00    -0.153 OA
BRANCH  16  22
ATOM     19  C   UNL     1      -1.413  -2.041   0.005  0.00  0.00    -0.047 A 
ATOM     20  C   UNL     1      -1.409  -2.725  -1.196  0.00  0.00    +0.005 A 
ATOM     21  C   UNL     1      -1.391  -4.107  -1.204  0.00  0.00    +0.029 A 
ATOM     22  C   UNL     1      -1.375  -4.805  -0.011  0.00  0.00    +0.105 A 
ATOM     23  C   UNL     1      -1.378  -4.120   1.190  0.00  0.00    +0.029 A 
ATOM     24  C   UNL     1      -1.392  -2.738   1.198  0.00  0.00    +0.005 A 
BRANCH  19  25
ATOM     25  C   UNL     1      -1.433  -0.534   0.013  0.00  0.00    +0.035 C 
BRANCH  25  27
ATOM     26  C   UNL     1      -0.019   1.526   0.010  0.00  0.00    +0.004 C 
ATOM     27  C   UNL     1       0.002  -0.004   0.002  0.00  0.00    +0.001 C 
ENDBRANCH  25  27
ENDBRANCH  19  25
ENDBRANCH  16  22
ENDBRANCH   1  16
BRANCH  12  28
ATOM     28  C   UNL     1       2.906 -12.587   0.256  0.00  0.00    +0.138 C 
BRANCH  28  29
ATOM     29  C   UNL     1       1.859 -13.593   0.658  0.00  0.00    -0.028 A 
ATOM     30  C   UNL     1       1.687 -13.917   1.991  0.00  0.00    +0.005 A 
ATOM     31  C   UNL     1       0.727 -14.840   2.361  0.00  0.00    +0.003 A 
ATOM     32  C   UNL     1      -0.062 -15.441   1.399  0.00  0.00    +0.038 A 
ATOM     33  C   UNL     1       0.109 -15.117   0.063  0.00  0.00    +0.124 A 
ATOM     34  C   UNL     1       1.067 -14.188  -0.306  0.00  0.00    +0.043 A 
ATOM     35  F   UNL     1      -0.662 -15.704  -0.878  0.00  0.00    -0.205 F 
ENDBRANCH  28  29
ENDBRANCH  12  28
TORSDOF 6
