REMARK  Name = ZINC10013734
REMARK  8 active torsions:
REMARK  status: ('A' for Active; 'I' for Inactive)
REMARK    1  A    between atoms: C_1  and  C_2
REMARK    2  A    between atoms: C_3  and  C_30
REMARK    3  A    between atoms: C_4  and  C_21
REMARK    4  A    between atoms: C_10  and  C_15
REMARK    5  A    between atoms: C_24  and  N_27
REMARK    6  A    between atoms: N_27  and  C_28
REMARK    7  A    between atoms: N_27  and  C_29
REMARK    8  A    between atoms: N_32  and  C_33
REMARK                            x       y       z     vdW  Elec       q    Type
REMARK                         _______ _______ _______ _____ _____    ______ ____
ROOT
ATOM      1  C   UNL     1       6.373   6.372  -3.797  0.00  0.00    +0.061 C 
ATOM      2  C   UNL     1       5.648   6.410  -2.477  0.00  0.00    +0.014 C 
ATOM      3  C   UNL     1       6.298   6.804  -1.370  0.00  0.00    +0.043 C 
ATOM      4  C   UNL     1       5.607   6.862  -0.039  0.00  0.00    +0.090 C 
ATOM      5  C   UNL     1       4.337   6.049  -0.054  0.00  0.00    +0.024 C 
ATOM      6  C   UNL     1       3.761   5.691  -1.221  0.00  0.00    +0.016 C 
ATOM      7  N   UNL     1       4.331   6.044  -2.414  0.00  0.00    -0.321 N 
ATOM      8  C   UNL     1       2.481   4.892  -1.244  0.00  0.00    +0.059 C 
ATOM      9  C   UNL     1       2.421   3.984  -0.013  0.00  0.00    +0.032 C 
ATOM     10  C   UNL     1       2.511   4.859   1.242  0.00  0.00    +0.088 C 
ATOM     11  C   UNL     1       3.770   5.679   1.178  0.00  0.00    +0.162 C 
ATOM     12  O   UNL     1       4.308   6.027   2.211  0.00  0.00    -0.292 OA
ATOM     13  H   UNL     1       3.720   6.032  -3.329  0.00  0.00    +0.152 HD
ENDROOT
BRANCH   9  14
ATOM     14  C   UNL     1       1.120   3.224  -0.008  0.00  0.00    -0.044 A 
ATOM     15  C   UNL     1       1.128   1.841  -0.017  0.00  0.00    +0.004 A 
ATOM     16  C   UNL     1      -0.066   1.143  -0.013  0.00  0.00    +0.000 A 
ATOM     17  C   UNL     1      -1.267   1.828  -0.004  0.00  0.00    +0.000 A 
ATOM     18  C   UNL     1      -1.274   3.210   0.009  0.00  0.00    +0.000 A 
ATOM     19  C   UNL     1      -0.081   3.908   0.004  0.00  0.00    +0.004 A 
ENDBRANCH   9  14
BRANCH   4  20
ATOM     20  C   UNL     1       5.273   8.296   0.283  0.00  0.00    -0.035 A 
ATOM     21  C   UNL     1       4.428   9.010  -0.546  0.00  0.00    +0.006 A 
ATOM     22  C   UNL     1       4.115  10.322  -0.251  0.00  0.00    +0.023 A 
ATOM     23  C   UNL     1       4.660  10.928   0.874  0.00  0.00    +0.029 A 
ATOM     24  C   UNL     1       5.513  10.210   1.702  0.00  0.00    +0.023 A 
ATOM     25  C   UNL     1       5.817   8.896   1.403  0.00  0.00    +0.006 A 
BRANCH  23  26
ATOM     26  N   UNL     1       4.350  12.257   1.172  0.00  0.00    -0.336 N 
ATOM     27  C   UNL     1       4.926  12.895   2.359  0.00  0.00    +0.129 C 
ATOM     28  C   UNL     1       3.450  13.014   0.298  0.00  0.00    +0.129 C 
ENDBRANCH  23  26
ENDBRANCH   4  20
BRANCH   3  29
ATOM     29  C   UNL     1       7.664   7.171  -1.460  0.00  0.00    +0.247 C 
ATOM     30  O   UNL     1       8.236   7.128  -2.533  0.00  0.00    -0.270 OA
ATOM     31  N   UNL     1       8.329   7.568  -0.357  0.00  0.00    -0.279 N 
ATOM     32  H   UNL     1       7.794   7.677   0.599  0.00  0.00    +0.155 HD
BRANCH  31  33
ATOM     33  C   UNL     1       9.700   7.841  -0.426  0.00  0.00    +0.069 A 
ATOM     34  C   UNL     1      10.239   8.404  -1.575  0.00  0.00    +0.026 A 
ATOM     35  C   UNL     1      11.593   8.672  -1.641  0.00  0.00    +0.002 A 
ATOM     36  C   UNL     1      12.411   8.381  -0.565  0.00  0.00    +0.003 A 
ATOM     37  C   UNL     1      11.879   7.820   0.581  0.00  0.00    +0.040 A 
ATOM     38  C   UNL     1      10.524   7.554   0.656  0.00  0.00    +0.144 A 
ATOM     39  F   UNL     1      10.002   7.011   1.778  0.00  0.00    -0.204 F 
ENDBRANCH  31  33
ENDBRANCH   3  29
TORSDOF 5
