REMARK  Name = ZINC04176873
REMARK  3 active torsions:
REMARK  status: ('A' for Active; 'I' for Inactive)
REMARK    1  A    between atoms: C_6  and  C_11
REMARK    2  A    between atoms: N_13  and  C_14
REMARK    3  A    between atoms: C_15  and  C_24
REMARK                            x       y       z     vdW  Elec       q    Type
REMARK                         _______ _______ _______ _____ _____    ______ ____
ROOT
ATOM      1  C   UNL     1       2.222   9.495   0.033  0.00  0.00    +0.085 A 
ATOM      2  C   UNL     1       3.300  10.365   0.033  0.00  0.00    +0.068 A 
ATOM      3  C   UNL     1       3.018  11.794   0.034  0.00  0.00    -0.023 A 
ATOM      4  C   UNL     1       1.706  12.115   0.054  0.00  0.00    -0.004 A 
ATOM      5  S   UNL     1       0.856  10.560   0.053  0.00  0.00    -0.077 S 
ATOM      6  C   UNL     1       1.099  13.483   0.085  0.00  0.00    +0.043 C 
ATOM      7  C   UNL     1       1.755  14.354  -0.995  0.00  0.00    +0.005 C 
ATOM      8  C   UNL     1       2.973  15.040  -0.386  0.00  0.00    +0.001 C 
ATOM      9  C   UNL     1       3.619  14.135   0.660  0.00  0.00    +0.005 C 
ATOM     10  C   UNL     1       4.119  12.847   0.015  0.00  0.00    +0.037 C 
ENDROOT
BRANCH   2  11
ATOM     11  C   UNL     1       4.678   9.865   0.027  0.00  0.00    +0.244 C 
ATOM     12  O   UNL     1       5.248   9.662  -1.029  0.00  0.00    -0.270 OA
ATOM     13  N   UNL     1       5.315   9.631   1.192  0.00  0.00    -0.325 N 
ATOM     14  H   UNL     1       4.862   9.793   2.034  0.00  0.00    +0.145 HD
ATOM     15  H   UNL     1       6.227   9.300   1.188  0.00  0.00    +0.145 HD
ENDBRANCH   2  11
BRANCH   1  18
ATOM     16  C   UNL     1       1.072   7.426   0.032  0.00  0.00    +0.249 C 
ATOM     17  O   UNL     1       0.014   8.025   0.046  0.00  0.00    -0.270 OA
ATOM     18  N   UNL     1       2.233   8.109   0.025  0.00  0.00    -0.275 N 
ATOM     19  H   UNL     1       3.077   7.631   0.013  0.00  0.00    +0.156 HD
BRANCH  16  25
ATOM     20  C   UNL     1      -0.013   1.076   0.008  0.00  0.00    +0.001 A 
ATOM     21  C   UNL     1      -1.235   1.745   0.018  0.00  0.00    +0.001 A 
ATOM     22  C   UNL     1      -1.288   3.105   0.031  0.00  0.00    +0.008 A 
ATOM     23  C   UNL     1      -0.094   3.849   0.024  0.00  0.00    -0.017 A 
ATOM     24  C   UNL     1      -0.113   5.251   0.032  0.00  0.00    +0.021 A 
ATOM     25  C   UNL     1       1.084   5.949   0.023  0.00  0.00    +0.038 A 
ATOM     26  C   UNL     1       2.311   5.261   0.007  0.00  0.00    +0.013 A 
ATOM     27  C   UNL     1       2.348   3.904   0.000  0.00  0.00    +0.009 A 
ATOM     28  C   UNL     1       1.150   3.167   0.008  0.00  0.00    -0.018 A 
ATOM     29  C   UNL     1       1.163   1.762   0.000  0.00  0.00    +0.008 A 
ENDBRANCH  16  25
ENDBRANCH   1  18
TORSDOF 3
