REMARK  Name = ZINC09367603
REMARK  2 active torsions:
REMARK  status: ('A' for Active; 'I' for Inactive)
REMARK    1  A    between atoms: C_3  and  C_19
REMARK    2  A    between atoms: C_5  and  C_7
REMARK                            x       y       z     vdW  Elec       q    Type
REMARK                         _______ _______ _______ _____ _____    ______ ____
ROOT
ATOM      1  C   UNL     1       2.296   5.648   0.011  0.00  0.00    +0.004 A 
ATOM      2  C   UNL     1       1.066   6.285   0.026  0.00  0.00    +0.033 A 
ATOM      3  C   UNL     1      -0.100   5.517   0.033  0.00  0.00    +0.127 A 
ATOM      4  N   UNL     1      -0.038   4.195   0.025  0.00  0.00    -0.237 NA
ATOM      5  C   UNL     1       1.121   3.556   0.011  0.00  0.00    +0.127 A 
ATOM      6  C   UNL     1       2.325   4.263   0.009  0.00  0.00    +0.033 A 
ENDROOT
BRANCH   5   7
ATOM      7  C   UNL     1       1.141   2.074   0.002  0.00  0.00    +0.268 C 
ATOM      8  O   UNL     1       2.202   1.481  -0.011  0.00  0.00    -0.268 OA
ATOM      9  N   UNL     1      -0.017   1.385   0.010  0.00  0.00    -0.259 N 
ATOM     10  C   UNL     1       0.002  -0.004   0.002  0.00  0.00    +0.165 A 
ATOM     11  N   UNL     1       1.037  -0.818  -0.018  0.00  0.00    -0.229 NA
ATOM     12  C   UNL     1       0.899  -2.141  -0.018  0.00  0.00    +0.054 A 
ATOM     13  C   UNL     1      -0.377  -2.607  -0.009  0.00  0.00    +0.014 A 
ATOM     14  S   UNL     1      -1.335  -1.115   0.009  0.00  0.00    -0.057 S 
ATOM     15  C   UNL     1      -0.834  -4.026  -0.013  0.00  0.00    +0.044 C 
ATOM     16  C   UNL     1       0.360  -4.914  -0.399  0.00  0.00    +0.006 C 
ATOM     17  C   UNL     1       1.577  -4.488   0.427  0.00  0.00    +0.006 C 
ATOM     18  C   UNL     1       2.071  -3.115  -0.034  0.00  0.00    +0.056 C 
ATOM     19  H   UNL     1      -0.863   1.858   0.016  0.00  0.00    +0.157 HD
ENDBRANCH   5   7
BRANCH   3  20
ATOM     20  C   UNL     1      -1.420   6.189   0.050  0.00  0.00    +0.268 C 
ATOM     21  O   UNL     1      -1.485   7.403   0.057  0.00  0.00    -0.268 OA
ATOM     22  N   UNL     1      -2.550   5.455   0.057  0.00  0.00    -0.259 N 
ATOM     23  C   UNL     1      -3.788   6.084   0.072  0.00  0.00    +0.165 A 
ATOM     24  N   UNL     1      -4.061   7.373   0.088  0.00  0.00    -0.229 NA
ATOM     25  C   UNL     1      -5.310   7.833   0.097  0.00  0.00    +0.054 A 
ATOM     26  C   UNL     1      -6.291   6.893   0.102  0.00  0.00    +0.014 A 
ATOM     27  S   UNL     1      -5.375   5.375   0.084  0.00  0.00    -0.057 S 
ATOM     28  C   UNL     1      -7.766   7.110   0.119  0.00  0.00    +0.044 C 
ATOM     29  C   UNL     1      -8.032   8.575   0.499  0.00  0.00    +0.006 C 
ATOM     30  C   UNL     1      -7.120   9.475  -0.340  0.00  0.00    +0.006 C 
ATOM     31  C   UNL     1      -5.666   9.315   0.108  0.00  0.00    +0.056 C 
ATOM     32  H   UNL     1      -2.499   4.486   0.051  0.00  0.00    +0.157 HD
ENDBRANCH   3  20
TORSDOF 2
