REMARK  Name = ZINC01035687
REMARK  6 active torsions:
REMARK  status: ('A' for Active; 'I' for Inactive)
REMARK    1  A    between atoms: C_1  and  N_2
REMARK    2  A    between atoms: C_6  and  C_8
REMARK    3  A    between atoms: C_8  and  S_9
REMARK    4  A    between atoms: S_9  and  C_10
REMARK    5  A    between atoms: C_13  and  C_22
REMARK    6  A    between atoms: N_14  and  C_15
REMARK                            x       y       z     vdW  Elec       q    Type
REMARK                         _______ _______ _______ _____ _____    ______ ____
ROOT
ATOM      1  C   UNL     1       1.062   2.241   0.004  0.00  0.00    +0.197 A 
ATOM      2  N   UNL     1       0.597   3.469   0.015  0.00  0.00    -0.122 NA
ATOM      3  N   UNL     1      -0.688   3.457   0.027  0.00  0.00    -0.127 NA
ATOM      4  C   UNL     1      -1.126   2.217   0.019  0.00  0.00    +0.176 A 
ATOM      5  N   UNL     1      -0.017   1.398   0.010  0.00  0.00    -0.270 N 
ENDROOT
BRANCH   5   6
ATOM      6  C   UNL     1       0.002  -0.004   0.002  0.00  0.00    +0.051 A 
ATOM      7  C   UNL     1      -0.511  -0.700  -1.084  0.00  0.00    +0.028 A 
ATOM      8  C   UNL     1      -0.487  -2.081  -1.091  0.00  0.00    +0.022 A 
ATOM      9  C   UNL     1       0.038  -2.771  -0.013  0.00  0.00    +0.041 A 
ATOM     10  C   UNL     1       0.546  -2.079   1.073  0.00  0.00    +0.022 A 
ATOM     11  C   UNL     1       0.529  -0.698   1.083  0.00  0.00    +0.028 A 
ATOM     12 CL   UNL     1       0.061  -4.507  -0.022  0.00  0.00    -0.084 Cl
ENDBRANCH   5   6
BRANCH   4  13
ATOM     13  C   UNL     1      -2.533   1.786   0.021  0.00  0.00    +0.057 A 
ATOM     14  C   UNL     1      -3.661   2.515   0.305  0.00  0.00    +0.019 A 
ATOM     15  C   UNL     1      -4.885   1.889   0.242  0.00  0.00    +0.008 A 
ATOM     16  C   UNL     1      -4.941   0.575  -0.098  0.00  0.00    +0.046 A 
ATOM     17  S   UNL     1      -3.218   0.180  -0.352  0.00  0.00    -0.094 S 
ENDBRANCH   4  13
BRANCH   1  18
ATOM     18  S   UNL     1       2.759   1.767  -0.015  0.00  0.00    -0.076 S 
BRANCH  18  19
ATOM     19  C   UNL     1       3.542   3.399  -0.013  0.00  0.00    +0.173 C 
BRANCH  19  25
ATOM     20  C   UNL     1       9.427   5.113  -0.060  0.00  0.00    +0.129 C 
ATOM     21  N   UNL     1       7.970   5.270  -0.046  0.00  0.00    -0.302 N 
ATOM     22  C   UNL     1       7.175   4.181  -0.044  0.00  0.00    +0.306 C 
ATOM     23  O   UNL     1       7.666   3.070  -0.055  0.00  0.00    -0.252 OA
ATOM     24  N   UNL     1       5.835   4.326  -0.030  0.00  0.00    -0.240 N 
ATOM     25  C   UNL     1       5.040   3.237  -0.029  0.00  0.00    +0.231 C 
ATOM     26  O   UNL     1       5.530   2.129  -0.039  0.00  0.00    -0.274 OA
ATOM     27  H   UNL     1       7.578   6.157  -0.037  0.00  0.00    +0.150 HD
ATOM     28  H   UNL     1       5.443   5.213  -0.022  0.00  0.00    +0.159 HD
ENDBRANCH  19  25
ENDBRANCH  18  19
ENDBRANCH   1  18
TORSDOF 5
