REMARK  Name = ZINC38651702
REMARK  9 active torsions:
REMARK  status: ('A' for Active; 'I' for Inactive)
REMARK    1  A    between atoms: C_1  and  C_2
REMARK    2  A    between atoms: C_2  and  C_4
REMARK    3  A    between atoms: C_2  and  O_28
REMARK    4  A    between atoms: C_4  and  O_6
REMARK    5  A    between atoms: O_6  and  C_7
REMARK    6  A    between atoms: C_14  and  N_27
REMARK    7  A    between atoms: C_15  and  C_25
REMARK    8  A    between atoms: C_16  and  C_18
REMARK    9  A    between atoms: O_28  and  C_29
REMARK                            x       y       z     vdW  Elec       q    Type
REMARK                         _______ _______ _______ _____ _____    ______ ____
ROOT
ATOM      1  C   UNL     1       1.553  -1.271   3.254  0.00  0.00    +0.135 A 
ATOM      2  C   UNL     1       2.778  -1.579   2.678  0.00  0.00    +0.047 A 
ATOM      3  C   UNL     1       3.751  -2.215   3.424  0.00  0.00    +0.012 A 
ATOM      4  C   UNL     1       3.510  -2.547   4.746  0.00  0.00    +0.008 A 
ATOM      5  C   UNL     1       2.288  -2.242   5.325  0.00  0.00    +0.138 A 
ATOM      6  C   UNL     1       1.311  -1.597   4.578  0.00  0.00    +0.093 A 
ATOM      7  O   UNL     1       2.033  -2.559   6.619  0.00  0.00    -0.441 OA
ATOM      8  C   UNL     1       3.050  -2.814   7.459  0.00  0.00    +0.199 C 
ATOM      9  C   UNL     1       4.285  -3.143   7.012  0.00  0.00    +0.098 C 
ATOM     10  C   UNL     1       4.583  -3.241   5.542  0.00  0.00    +0.098 C 
ENDROOT
BRANCH  10  11
ATOM     11  C   UNL     1       4.642  -4.693   5.141  0.00  0.00    -0.035 A 
ATOM     12  C   UNL     1       3.529  -5.498   5.295  0.00  0.00    +0.005 A 
ATOM     13  C   UNL     1       3.583  -6.829   4.926  0.00  0.00    +0.015 A 
ATOM     14  C   UNL     1       4.751  -7.356   4.404  0.00  0.00    +0.018 A 
ATOM     15  C   UNL     1       5.864  -6.549   4.251  0.00  0.00    +0.015 A 
ATOM     16  C   UNL     1       5.808  -5.217   4.614  0.00  0.00    +0.005 A 
ATOM     17 BR   UNL     1       4.826  -9.177   3.901  0.00  0.00    -0.050 Br
ENDBRANCH  10  11
BRANCH   8  18
ATOM     18  N   UNL     1       2.830  -2.737   8.812  0.00  0.00    -0.328 N 
ATOM     19  H   UNL     1       1.951  -2.503   9.148  0.00  0.00    +0.145 HD
ATOM     20  H   UNL     1       3.554  -2.918   9.432  0.00  0.00    +0.145 HD
ENDBRANCH   8  18
BRANCH   9  21
ATOM     21  C   UNL     1       5.328  -3.401   7.958  0.00  0.00    +0.101 C 
ATOM     22  N   UNL     1       6.156  -3.606   8.708  0.00  0.00    -0.191 NA
ENDBRANCH   9  21
BRANCH   1  23
ATOM     23  O   UNL     1       0.595  -0.645   2.520  0.00  0.00    -0.423 OA
BRANCH  23  24
ATOM     24  C   UNL     1      -0.095  -1.376   1.630  0.00  0.00    +0.353 C 
ATOM     25  O   UNL     1       0.107  -2.564   1.538  0.00  0.00    -0.246 OA
BRANCH  24  27
ATOM     26  C   UNL     1      -0.427   0.273  -0.192  0.00  0.00    +0.064 C 
ATOM     27  C   UNL     1      -1.122  -0.715   0.747  0.00  0.00    +0.279 C 
BRANCH  27  28
ATOM     28  O   UNL     1      -1.798  -1.710  -0.024  0.00  0.00    -0.475 OA
BRANCH  28  29
ATOM     29  C   UNL     1      -3.035  -1.394  -0.491  0.00  0.00    +0.157 A 
ATOM     30  C   UNL     1      -3.567  -0.136  -0.253  0.00  0.00    +0.048 A 
ATOM     31  C   UNL     1      -4.824   0.183  -0.729  0.00  0.00    +0.004 A 
ATOM     32  C   UNL     1      -5.554  -0.750  -1.441  0.00  0.00    +0.003 A 
ATOM     33  C   UNL     1      -5.028  -2.006  -1.680  0.00  0.00    +0.042 A 
ATOM     34  C   UNL     1      -3.767  -2.329  -1.212  0.00  0.00    +0.165 A 
ATOM     35  F   UNL     1      -3.250  -3.554  -1.451  0.00  0.00    -0.202 F 
ENDBRANCH  28  29
ENDBRANCH  27  28
ENDBRANCH  24  27
ENDBRANCH  23  24
ENDBRANCH   1  23
TORSDOF 8
