REMARK  Name = ZINC37934304
REMARK  4 active torsions:
REMARK  status: ('A' for Active; 'I' for Inactive)
REMARK    1  A    between atoms: C_2  and  N_23
REMARK    2  A    between atoms: C_4  and  S_19
REMARK    3  A    between atoms: C_6  and  N_7
REMARK    4  A    between atoms: S_19  and  N_22
REMARK                            x       y       z     vdW  Elec       q    Type
REMARK                         _______ _______ _______ _____ _____    ______ ____
ROOT
ATOM      1  C   UNL     1       0.828  -0.046  -1.112  0.00  0.00    +0.046 A 
ATOM      2  C   UNL     1       2.019   0.667  -1.116  0.00  0.00    +0.028 A 
ATOM      3  C   UNL     1       2.380   1.420  -0.005  0.00  0.00    +0.051 A 
ATOM      4  C   UNL     1       1.555   1.459   1.103  0.00  0.00    +0.108 A 
ATOM      5  C   UNL     1       0.370   0.750   1.110  0.00  0.00    +0.051 A 
ATOM      6  C   UNL     1       0.002  -0.004   0.002  0.00  0.00    +0.034 A 
ENDROOT
BRANCH   6   7
ATOM      7  N   UNL     1      -1.197  -0.720   0.010  0.00  0.00    -0.326 N 
ATOM      8  C   UNL     1      -1.199  -2.186  -0.102  0.00  0.00    +0.105 C 
ATOM      9  C   UNL     1      -2.128  -2.594  -1.249  0.00  0.00    +0.019 C 
ATOM     10  C   UNL     1      -3.511  -1.973  -1.033  0.00  0.00    +0.007 C 
ATOM     11  C   UNL     1      -3.385  -0.445  -1.033  0.00  0.00    +0.009 C 
ATOM     12  C   UNL     1      -2.484  -0.026   0.137  0.00  0.00    +0.077 C 
ATOM     13  C   UNL     1      -2.270   1.485   0.129  0.00  0.00    +0.023 C 
ATOM     14  C   UNL     1      -1.642   1.916  -1.197  0.00  0.00    +0.002 C 
ATOM     15  C   UNL     1      -2.574   1.524  -2.347  0.00  0.00    +0.000 C 
ATOM     16  C   UNL     1      -2.773  -0.002  -2.364  0.00  0.00    +0.005 C 
ENDBRANCH   6   7
BRANCH   4  17
ATOM     17  S   UNL     1       2.017   2.415   2.509  0.00  0.00    +0.056 S 
ATOM     18  O   UNL     1       1.340   1.851   3.623  0.00  0.00    -0.153 OA
ATOM     19  O   UNL     1       3.431   2.546   2.464  0.00  0.00    -0.153 OA
BRANCH  17  20
ATOM     20  N   UNL     1       1.393   3.934   2.295  0.00  0.00    -0.204 NA
ATOM     21  H   UNL     1       1.142   4.468   3.065  0.00  0.00    +0.144 HD
ATOM     22  H   UNL     1       1.279   4.289   1.400  0.00  0.00    +0.144 HD
ENDBRANCH  17  20
ENDBRANCH   4  17
BRANCH   2  23
ATOM     23  N   UNL     1       2.854   0.628  -2.235  0.00  0.00    -0.358 N 
ATOM     24  H   UNL     1       2.601   0.102  -3.010  0.00  0.00    +0.142 HD
ATOM     25  H   UNL     1       3.686   1.126  -2.238  0.00  0.00    +0.142 HD
ENDBRANCH   2  23
TORSDOF 4
