REMARK  Name = ZINC21114060
REMARK  7 active torsions:
REMARK  status: ('A' for Active; 'I' for Inactive)
REMARK    1  A    between atoms: C_1  and  C_2
REMARK    2  A    between atoms: C_4  and  C_36
REMARK    3  A    between atoms: C_6  and  N_8
REMARK    4  A    between atoms: C_9  and  C_11
REMARK    5  A    between atoms: N_14  and  S_17
REMARK    6  A    between atoms: S_17  and  C_20
REMARK    7  A    between atoms: C_30  and  C_32
REMARK                            x       y       z     vdW  Elec       q    Type
REMARK                         _______ _______ _______ _____ _____    ______ ____
ROOT
ATOM      1  S   UNL     1      -2.594  10.989   1.595  0.00  0.00    +0.061 S 
ATOM      2  O   UNL     1      -1.518  11.749   2.127  0.00  0.00    -0.153 OA
ATOM      3  O   UNL     1      -3.621  11.573   0.806  0.00  0.00    -0.153 OA
ENDROOT
BRANCH   1   4
ATOM      4  C   UNL     1      -3.388  10.213   2.963  0.00  0.00    +0.106 A 
ATOM      5  C   UNL     1      -4.713   9.830   2.864  0.00  0.00    +0.030 A 
ATOM      6  C   UNL     1      -5.334   9.219   3.935  0.00  0.00    +0.026 A 
ATOM      7  C   UNL     1      -4.631   8.999   5.114  0.00  0.00    +0.040 A 
ATOM      8  C   UNL     1      -3.304   9.385   5.213  0.00  0.00    -0.024 A 
ATOM      9  C   UNL     1      -2.688   9.995   4.133  0.00  0.00    +0.034 A 
ATOM     10  C   UNL     1      -2.509   9.153   6.470  0.00  0.00    +0.038 C 
ATOM     11  C   UNL     1      -3.441   8.959   7.666  0.00  0.00    +0.024 C 
ATOM     12  C   UNL     1      -4.479   7.885   7.316  0.00  0.00    +0.114 C 
ATOM     13  N   UNL     1      -5.283   8.386   6.193  0.00  0.00    -0.271 N 
ATOM     14  C   UNL     1      -6.625   8.259   6.200  0.00  0.00    +0.223 C 
ATOM     15  O   UNL     1      -7.275   8.633   5.247  0.00  0.00    -0.275 OA
BRANCH  14  16
ATOM     16  C   UNL     1      -7.318   7.653   7.394  0.00  0.00    +0.076 C 
ATOM     17  C   UNL     1      -7.436   6.121   7.325  0.00  0.00    +0.013 C 
ATOM     18  C   UNL     1      -8.850   6.282   7.907  0.00  0.00    +0.001 C 
ATOM     19  C   UNL     1      -8.852   7.696   7.303  0.00  0.00    +0.013 C 
ENDBRANCH  14  16
ENDBRANCH   1   4
BRANCH   1  23
ATOM     20  C   UNL     1      -1.215   7.158  -0.088  0.00  0.00    +0.078 C 
ATOM     21  C   UNL     1      -0.551   7.816   1.123  0.00  0.00    +0.030 C 
ATOM     22  C   UNL     1      -0.542   9.336   0.932  0.00  0.00    +0.110 C 
ATOM     23  N   UNL     1      -1.916   9.789   0.677  0.00  0.00    -0.177 NA
ATOM     24  C   UNL     1      -2.678   9.157  -0.409  0.00  0.00    +0.110 C 
ATOM     25  C   UNL     1      -2.663   7.639  -0.203  0.00  0.00    +0.030 C 
BRANCH  20  27
ATOM     26  N   UNL     1      -0.020   5.011   0.202  0.00  0.00    -0.285 N 
ATOM     27  C   UNL     1      -1.195   5.660   0.080  0.00  0.00    +0.220 C 
ATOM     28  O   UNL     1      -2.236   5.039   0.106  0.00  0.00    -0.275 OA
ATOM     29  H   UNL     1       0.919   5.581   0.264  0.00  0.00    +0.155 HD
BRANCH  26  35
ATOM     30  C   UNL     1      -2.045   0.698  -1.006  0.00  0.00    +0.044 C 
ATOM     31  C   UNL     1      -0.964   1.497  -0.327  0.00  0.00    -0.048 A 
ATOM     32  C   UNL     1       0.056   0.848   0.345  0.00  0.00    +0.006 A 
ATOM     33  C   UNL     1       1.047   1.579   0.975  0.00  0.00    -0.048 A 
ATOM     34  C   UNL     1       1.028   2.959   0.925  0.00  0.00    +0.026 A 
ATOM     35  C   UNL     1       0.005   3.613   0.251  0.00  0.00    +0.034 A 
ATOM     36  C   UNL     1      -0.992   2.877  -0.376  0.00  0.00    +0.026 A 
ATOM     37  C   UNL     1       2.153   0.868   1.712  0.00  0.00    +0.044 C 
ENDBRANCH  26  35
ENDBRANCH  20  27
ENDBRANCH   1  23
TORSDOF 5
