REMARK  Name = ZINC63104772
REMARK  3 active torsions:
REMARK  status: ('A' for Active; 'I' for Inactive)
REMARK    1  A    between atoms: C_1  and  C_2
REMARK    2  A    between atoms: C_7  and  C_8
REMARK    3  A    between atoms: C_17  and  N_21
REMARK                            x       y       z     vdW  Elec       q    Type
REMARK                         _______ _______ _______ _____ _____    ______ ____
ROOT
ATOM      1  C   UNL     1      -0.018   1.503   0.010  0.00  0.00    +0.044 C 
ATOM      2  C   UNL     1       0.002  -0.004   0.002  0.00  0.00    -0.045 A 
ATOM      3  C   UNL     1       0.006  -0.680  -1.197  0.00  0.00    +0.033 A 
ATOM      4  C   UNL     1       0.025  -2.077  -1.206  0.00  0.00    +0.090 A 
ATOM      5  C   UNL     1       0.040  -2.776   0.014  0.00  0.00    +0.075 A 
ATOM      6  C   UNL     1       0.036  -2.078   1.212  0.00  0.00    +0.032 A 
ATOM      7  C   UNL     1       0.023  -0.699   1.203  0.00  0.00    -0.045 A 
ATOM      8  C   UNL     1       0.025   0.059   2.506  0.00  0.00    +0.044 C 
ATOM      9  N   UNL     1       0.057  -4.120  -0.317  0.00  0.00    -0.277 N 
ATOM     10  C   UNL     1       0.051  -4.200  -1.679  0.00  0.00    +0.206 A 
ATOM     11  N   UNL     1       0.033  -3.006  -2.196  0.00  0.00    -0.235 NA
ATOM     12  C   UNL     1       0.076  -5.187   0.572  0.00  0.00    +0.180 A 
ATOM     13  N   UNL     1       0.076  -5.166   1.883  0.00  0.00    -0.222 NA
ATOM     14  C   UNL     1       0.096  -6.293   2.628  0.00  0.00    +0.081 A 
ATOM     15  C   UNL     1       0.099  -6.407   4.038  0.00  0.00    +0.031 A 
ATOM     16  C   UNL     1       0.120  -7.626   4.641  0.00  0.00    +0.025 A 
ATOM     17  C   UNL     1       0.139  -8.806   3.900  0.00  0.00    +0.026 A 
ATOM     18  C   UNL     1       0.137  -8.735   2.513  0.00  0.00    +0.040 A 
ATOM     19  C   UNL     1       0.115  -7.506   1.902  0.00  0.00    +0.043 A 
ATOM     20  S   UNL     1       0.098  -6.939   0.218  0.00  0.00    -0.049 S 
ENDROOT
BRANCH  17  21
ATOM     21  N   UNL     1       0.161 -10.047   4.546  0.00  0.00    -0.358 N 
ATOM     22  H   UNL     1       0.163 -10.089   5.515  0.00  0.00    +0.142 HD
ATOM     23  H   UNL     1       0.175 -10.865   4.025  0.00  0.00    +0.142 HD
ENDBRANCH  17  21
TORSDOF 1
