REMARK  Name = ZINC08984482
REMARK  6 active torsions:
REMARK  status: ('A' for Active; 'I' for Inactive)
REMARK    1  A    between atoms: C_5  and  N_7
REMARK    2  A    between atoms: C_8  and  C_10
REMARK    3  A    between atoms: C_10  and  S_11
REMARK    4  A    between atoms: S_11  and  C_12
REMARK    5  A    between atoms: C_15  and  C_18
REMARK    6  A    between atoms: N_16  and  N_17
REMARK                            x       y       z     vdW  Elec       q    Type
REMARK                         _______ _______ _______ _____ _____    ______ ____
ROOT
ATOM      1  C   UNL     1      -2.071   1.800  -1.045  0.00  0.00    +0.209 A 
ATOM      2  N   UNL     1      -2.355   2.248  -2.245  0.00  0.00    -0.121 NA
ATOM      3  N   UNL     1      -1.291   2.273  -2.966  0.00  0.00    -0.132 NA
ATOM      4  C   UNL     1      -0.272   1.851  -2.273  0.00  0.00    +0.154 A 
ATOM      5  N   UNL     1      -0.732   1.529  -1.026  0.00  0.00    -0.228 N 
ENDROOT
BRANCH   4   6
ATOM      6  C   UNL     1       1.151   1.736  -2.756  0.00  0.00    +0.059 C 
ATOM      7  C   UNL     1       1.658   3.115  -3.181  0.00  0.00    +0.011 C 
ATOM      8  C   UNL     1       3.103   2.998  -3.672  0.00  0.00    +0.001 C 
ATOM      9  C   UNL     1       3.160   2.044  -4.867  0.00  0.00    +0.000 C 
ATOM     10  C   UNL     1       2.652   0.664  -4.441  0.00  0.00    +0.001 C 
ATOM     11  C   UNL     1       1.208   0.781  -3.950  0.00  0.00    +0.011 C 
ENDBRANCH   4   6
BRANCH   5  12
ATOM     12  N   UNL     1      -0.004   1.043   0.022  0.00  0.00    -0.295 N 
ATOM     13  H   UNL     1       0.015   0.034   0.013  0.00  0.00    +0.163 HD
ATOM     14  H   UNL     1       0.931   1.422   0.020  0.00  0.00    +0.163 HD
ENDBRANCH   5  12
BRANCH   1  15
ATOM     15  S   UNL     1      -3.201   1.586   0.289  0.00  0.00    -0.075 S 
BRANCH  15  16
ATOM     16  C   UNL     1      -4.730   2.148  -0.501  0.00  0.00    +0.173 C 
BRANCH  16  18
ATOM     17  N   UNL     1      -7.111   2.418   0.110  0.00  0.00    -0.284 N 
ATOM     18  C   UNL     1      -5.869   2.051   0.481  0.00  0.00    +0.228 C 
ATOM     19  O   UNL     1      -5.667   1.643   1.605  0.00  0.00    -0.275 OA
ATOM     20  H   UNL     1      -7.261   2.806  -0.766  0.00  0.00    +0.155 HD
BRANCH  17  25
ATOM     21  C   UNL     1      -9.060   2.223   3.223  0.00  0.00    +0.002 A 
ATOM     22  C   UNL     1     -10.308   1.888   2.729  0.00  0.00    +0.001 A 
ATOM     23  C   UNL     1     -10.498   1.729   1.369  0.00  0.00    +0.016 A 
ATOM     24  C   UNL     1      -9.440   1.905   0.498  0.00  0.00    +0.035 A 
ATOM     25  C   UNL     1      -8.185   2.241   0.990  0.00  0.00    +0.047 A 
ATOM     26  C   UNL     1      -7.997   2.394   2.357  0.00  0.00    +0.024 A 
ATOM     27  I   UNL     1      -9.728   1.663  -1.563  0.00  0.00    -0.042 I 
ENDBRANCH  17  25
ENDBRANCH  16  18
ENDBRANCH  15  16
ENDBRANCH   1  15
TORSDOF 6
