REMARK  Name = ZINC39442270
REMARK  10 active torsions:
REMARK  status: ('A' for Active; 'I' for Inactive)
REMARK    1  A    between atoms: C_1  and  C_2
REMARK    2  A    between atoms: C_2  and  C_3
REMARK    3  A    between atoms: C_2  and  C_4
REMARK    4  A    between atoms: C_2  and  O_35
REMARK    5  A    between atoms: C_5  and  C_6
REMARK    6  A    between atoms: C_9  and  C_12
REMARK    7  A    between atoms: C_12  and  N_13
REMARK    8  A    between atoms: C_16  and  C_19
REMARK    9  A    between atoms: C_23  and  C_25
REMARK   10  A    between atoms: C_29  and  C_31
REMARK                            x       y       z     vdW  Elec       q    Type
REMARK                         _______ _______ _______ _____ _____    ______ ____
ROOT
ATOM      1  N   UNL     1      -8.306  -3.063  -1.321  0.00  0.00    +0.382 N 
ATOM      2  C   UNL     1      -7.506  -4.099  -1.986  0.00  0.00    -0.078 C 
ATOM      3  C   UNL     1      -7.938  -4.221  -3.449  0.00  0.00    -0.009 C 
ATOM      4  C   UNL     1      -9.420  -4.602  -3.508  0.00  0.00    +0.033 C 
ATOM      5  C   UNL     1     -10.237  -3.554  -2.747  0.00  0.00    -0.009 C 
ATOM      6  C   UNL     1      -9.720  -3.457  -1.310  0.00  0.00    -0.078 C 
ATOM      7  H   UNL     1      -8.204  -2.191  -1.818  0.00  0.00    -0.081 HD
ENDROOT
BRANCH   4   8
ATOM      8  C   UNL     1      -9.872  -4.648  -4.945  0.00  0.00    +0.057 C 
ATOM      9  N   UNL     1      -9.180  -4.329  -5.989  0.00  0.00    -0.158 NA
ATOM     10  N   UNL     1      -9.898  -4.487  -7.170  0.00  0.00    -0.161 NA
ATOM     11  C   UNL     1     -11.099  -4.917  -6.964  0.00  0.00    +0.121 C 
ATOM     12  C   UNL     1     -11.229  -5.082  -5.463  0.00  0.00    +0.108 C 
BRANCH  12  13
ATOM     13  C   UNL     1     -12.315  -4.188  -4.923  0.00  0.00    -0.033 A 
ATOM     14  C   UNL     1     -12.296  -2.833  -5.199  0.00  0.00    +0.004 A 
ATOM     15  C   UNL     1     -13.292  -2.013  -4.705  0.00  0.00    +0.001 A 
ATOM     16  C   UNL     1     -14.308  -2.547  -3.934  0.00  0.00    +0.012 A 
ATOM     17  C   UNL     1     -14.328  -3.901  -3.659  0.00  0.00    +0.055 A 
ATOM     18  C   UNL     1     -13.334  -4.723  -4.157  0.00  0.00    +0.017 A 
BRANCH  17  19
ATOM     19  C   UNL     1     -15.435  -4.483  -2.819  0.00  0.00    +0.417 C 
ATOM     20  F   UNL     1     -16.316  -3.465  -2.437  0.00  0.00    -0.166 F 
ATOM     21  F   UNL     1     -16.128  -5.445  -3.562  0.00  0.00    -0.166 F 
ATOM     22  F   UNL     1     -14.890  -5.080  -1.677  0.00  0.00    -0.166 F 
ENDBRANCH  17  19
ENDBRANCH  12  13
ENDBRANCH   4   8
BRANCH   1  23
ATOM     23  C   UNL     1      -7.835  -2.896   0.060  0.00  0.00    -0.043 C 
BRANCH  23  27
ATOM     24  C   UNL     1      -3.824  -1.416   0.031  0.00  0.00    +0.025 A 
ATOM     25  C   UNL     1      -4.899  -0.526   0.040  0.00  0.00    +0.017 A 
ATOM     26  C   UNL     1      -6.191  -1.010   0.050  0.00  0.00    +0.003 A 
ATOM     27  C   UNL     1      -6.422  -2.374   0.050  0.00  0.00    -0.064 A 
ATOM     28  C   UNL     1      -5.360  -3.261   0.041  0.00  0.00    +0.003 A 
ATOM     29  C   UNL     1      -4.064  -2.790   0.026  0.00  0.00    +0.017 A 
BRANCH  24  31
ATOM     30  C   UNL     1      -1.379  -0.514   0.013  0.00  0.00    -0.063 C 
ATOM     31  C   UNL     1      -2.480  -0.920   0.021  0.00  0.00    -0.063 C 
BRANCH  30  33
ATOM     32  C   UNL     1      -0.019   1.526   0.010  0.00  0.00    +0.055 C 
ATOM     33  C   UNL     1       0.002  -0.004   0.002  0.00  0.00    +0.121 C 
ATOM     34  C   UNL     1       0.742  -0.511   1.242  0.00  0.00    +0.055 C 
BRANCH  33  35
ATOM     35  O   UNL     1       0.671  -0.465  -1.174  0.00  0.00    -0.377 OA
ATOM     36  H   UNL     1       0.256  -0.181  -1.999  0.00  0.00    +0.211 HD
ENDBRANCH  33  35
ENDBRANCH  30  33
ENDBRANCH  24  31
ENDBRANCH  23  27
ENDBRANCH   1  23
TORSDOF 8
