REMARK  Name = ZINC14855608
REMARK  6 active torsions:
REMARK  status: ('A' for Active; 'I' for Inactive)
REMARK    1  A    between atoms: C_1  and  C_2
REMARK    2  A    between atoms: C_10  and  N_20
REMARK    3  A    between atoms: C_12  and  C_14
REMARK    4  A    between atoms: N_23  and  C_26
REMARK    5  A    between atoms: C_26  and  C_27
REMARK    6  A    between atoms: C_26  and  C_33
REMARK                            x       y       z     vdW  Elec       q    Type
REMARK                         _______ _______ _______ _____ _____    ______ ____
ROOT
ATOM      1  C   UNL     1       0.030   1.511  -0.048  0.00  0.00    +0.008 C 
ATOM      2  C   UNL     1       0.039  -0.019  -0.044  0.00  0.00    -0.009 C 
ATOM      3  C   UNL     1      -1.400  -0.542  -0.004  0.00  0.00    +0.008 C 
ATOM      4  C   UNL     1      -1.411  -2.051  -0.249  0.00  0.00    +0.037 C 
ATOM      5  C   UNL     1      -0.446  -2.717   0.728  0.00  0.00    -0.025 A 
ATOM      6  C   UNL     1       0.514  -1.993   1.349  0.00  0.00    -0.004 A 
ATOM      7  S   UNL     1       1.386  -3.152   2.372  0.00  0.00    -0.073 S 
ATOM      8  C   UNL     1       0.467  -4.603   1.971  0.00  0.00    +0.114 A 
ATOM      9  C   UNL     1      -0.499  -4.135   1.043  0.00  0.00    +0.051 A 
ATOM     10  C   UNL     1      -1.414  -5.096   0.522  0.00  0.00    +0.134 A 
ATOM     11  N   UNL     1      -1.264  -6.341   0.964  0.00  0.00    -0.212 NA
ATOM     12  C   UNL     1      -0.335  -6.710   1.835  0.00  0.00    +0.164 A 
ATOM     13  N   UNL     1       0.551  -5.858   2.360  0.00  0.00    -0.220 NA
ATOM     14  C   UNL     1       0.781  -0.527   1.201  0.00  0.00    +0.046 C 
ENDROOT
BRANCH  12  15
ATOM     15  C   UNL     1      -0.276  -8.133   2.247  0.00  0.00    +0.037 A 
ATOM     16  C   UNL     1       0.683  -8.567   3.168  0.00  0.00    +0.014 A 
ATOM     17  C   UNL     1       0.696  -9.905   3.520  0.00  0.00    +0.020 A 
ATOM     18  C   UNL     1      -0.230 -10.762   2.955  0.00  0.00    +0.111 A 
ATOM     19  N   UNL     1      -1.123 -10.324   2.089  0.00  0.00    -0.263 NA
ATOM     20  C   UNL     1      -1.179  -9.058   1.728  0.00  0.00    +0.122 A 
ENDBRANCH  12  15
BRANCH  10  21
ATOM     21  N   UNL     1      -2.398  -4.755  -0.388  0.00  0.00    -0.312 N 
ATOM     22  C   UNL     1      -2.107  -4.696  -1.829  0.00  0.00    +0.122 C 
ATOM     23  C   UNL     1      -3.157  -5.527  -2.572  0.00  0.00    +0.104 C 
ATOM     24  N   UNL     1      -4.500  -5.068  -2.191  0.00  0.00    -0.285 NA
ATOM     25  C   UNL     1      -4.749  -5.282  -0.759  0.00  0.00    +0.104 C 
ATOM     26  C   UNL     1      -3.765  -4.446   0.058  0.00  0.00    +0.122 C 
BRANCH  24  27
ATOM     27  C   UNL     1      -5.531  -5.721  -3.009  0.00  0.00    +0.174 C 
BRANCH  27  28
ATOM     28  C   UNL     1      -6.892  -5.226  -2.590  0.00  0.00    -0.021 A 
ATOM     29  C   UNL     1      -7.078  -3.890  -2.287  0.00  0.00    +0.005 A 
ATOM     30  C   UNL     1      -8.326  -3.436  -1.903  0.00  0.00    +0.000 A 
ATOM     31  C   UNL     1      -9.387  -4.318  -1.821  0.00  0.00    +0.000 A 
ATOM     32  C   UNL     1      -9.201  -5.654  -2.125  0.00  0.00    +0.000 A 
ATOM     33  C   UNL     1      -7.954  -6.107  -2.513  0.00  0.00    +0.005 A 
ENDBRANCH  27  28
BRANCH  27  34
ATOM     34  C   UNL     1      -5.303  -5.393  -4.462  0.00  0.00    +0.232 C 
ATOM     35  O   UNL     1      -4.373  -4.685  -4.784  0.00  0.00    -0.274 OA
ATOM     36  N   UNL     1      -6.133  -5.886  -5.402  0.00  0.00    -0.328 N 
ATOM     37  H   UNL     1      -6.877  -6.452  -5.144  0.00  0.00    +0.145 HD
ATOM     38  H   UNL     1      -5.986  -5.675  -6.337  0.00  0.00    +0.145 HD
ENDBRANCH  27  34
ENDBRANCH  24  27
ENDBRANCH  10  21
TORSDOF 5
