REMARK  Name = ZINC36218362
REMARK  7 active torsions:
REMARK  status: ('A' for Active; 'I' for Inactive)
REMARK    1  A    between atoms: C_4  and  C_7
REMARK    2  A    between atoms: C_7  and  N_8
REMARK    3  A    between atoms: C_9  and  C_30
REMARK    4  A    between atoms: C_11  and  C_16
REMARK    5  A    between atoms: C_20  and  N_22
REMARK    6  A    between atoms: C_23  and  C_25
REMARK    7  A    between atoms: N_32  and  C_33
REMARK                            x       y       z     vdW  Elec       q    Type
REMARK                         _______ _______ _______ _____ _____    ______ ____
ROOT
ATOM      1  N   UNL     1       4.543  -0.547   1.442  0.00  0.00    -0.248 N 
ATOM      2  C   UNL     1       5.411   0.046   2.478  0.00  0.00    +0.211 C 
ATOM      3  C   UNL     1       4.976  -0.722   3.748  0.00  0.00    +0.238 C 
ATOM      4  O   UNL     1       4.439  -1.939   3.195  0.00  0.00    -0.440 OA
ATOM      5  C   UNL     1       4.006  -1.672   1.951  0.00  0.00    +0.405 C 
ATOM      6  O   UNL     1       3.217  -2.372   1.349  0.00  0.00    -0.226 OA
ENDROOT
BRANCH   3   7
ATOM      7  C   UNL     1       6.160  -1.009   4.636  0.00  0.00    -0.003 A 
ATOM      8  C   UNL     1       7.001  -2.067   4.343  0.00  0.00    +0.007 A 
ATOM      9  C   UNL     1       8.089  -2.334   5.154  0.00  0.00    +0.002 A 
ATOM     10  C   UNL     1       8.338  -1.545   6.260  0.00  0.00    +0.023 A 
ATOM     11  C   UNL     1       7.495  -0.483   6.557  0.00  0.00    +0.034 A 
ATOM     12  C   UNL     1       6.406  -0.214   5.737  0.00  0.00    +0.030 A 
BRANCH  11  13
ATOM     13  N   UNL     1       7.744   0.318   7.676  0.00  0.00    -0.281 N 
ATOM     14  C   UNL     1       9.012   0.556   8.065  0.00  0.00    +0.255 C 
ATOM     15  O   UNL     1       9.941   0.153   7.391  0.00  0.00    -0.269 OA
ATOM     16  H   UNL     1       7.004   0.701   8.172  0.00  0.00    +0.155 HD
BRANCH  14  17
ATOM     17  C   UNL     1       9.271   1.301   9.300  0.00  0.00    +0.074 A 
ATOM     18  C   UNL     1      10.486   1.655   9.869  0.00  0.00    +0.021 A 
ATOM     19  C   UNL     1      10.411   2.361  11.046  0.00  0.00    +0.008 A 
ATOM     20  C   UNL     1       9.191   2.658  11.559  0.00  0.00    +0.046 A 
ATOM     21  S   UNL     1       8.108   1.996  10.459  0.00  0.00    -0.092 S 
ENDBRANCH  14  17
ENDBRANCH  11  13
ENDBRANCH   3   7
BRANCH   2  22
ATOM     22  C   UNL     1       5.146   1.523   2.620  0.00  0.00    +0.242 C 
ATOM     23  O   UNL     1       4.068   1.978   2.303  0.00  0.00    -0.273 OA
ATOM     24  N   UNL     1       6.107   2.337   3.100  0.00  0.00    -0.284 N 
ATOM     25  H   UNL     1       6.994   1.987   3.280  0.00  0.00    +0.155 HD
BRANCH  24  26
ATOM     26  C   UNL     1       5.826   3.688   3.337  0.00  0.00    +0.034 A 
ATOM     27  C   UNL     1       6.814   4.646   3.154  0.00  0.00    +0.026 A 
ATOM     28  C   UNL     1       6.535   5.978   3.388  0.00  0.00    +0.040 A 
ATOM     29  C   UNL     1       5.271   6.359   3.806  0.00  0.00    +0.124 A 
ATOM     30  C   UNL     1       4.284   5.405   3.989  0.00  0.00    +0.040 A 
ATOM     31  C   UNL     1       4.557   4.072   3.749  0.00  0.00    +0.026 A 
ATOM     32  F   UNL     1       5.000   7.662   4.035  0.00  0.00    -0.205 F 
ENDBRANCH  24  26
ENDBRANCH   2  22
BRANCH   1  33
ATOM     33  C   UNL     1       4.302  -0.004   0.102  0.00  0.00    +0.147 C 
BRANCH  33  37
ATOM     34  C   UNL     1       6.973  -1.842  -2.680  0.00  0.00    +0.000 A 
ATOM     35  C   UNL     1       5.775  -2.456  -2.362  0.00  0.00    +0.000 A 
ATOM     36  C   UNL     1       4.911  -1.861  -1.462  0.00  0.00    +0.005 A 
ATOM     37  C   UNL     1       5.245  -0.653  -0.879  0.00  0.00    -0.030 A 
ATOM     38  C   UNL     1       6.442  -0.040  -1.196  0.00  0.00    +0.005 A 
ATOM     39  C   UNL     1       7.306  -0.634  -2.097  0.00  0.00    +0.000 A 
ENDBRANCH  33  37
ENDBRANCH   1  33
TORSDOF 7
