REMARK  Name = ZINC31056713
REMARK  9 active torsions:
REMARK  status: ('A' for Active; 'I' for Inactive)
REMARK    1  A    between atoms: C_1  and  C_2
REMARK    2  A    between atoms: C_2  and  C_4
REMARK    3  A    between atoms: C_2  and  N_10
REMARK    4  A    between atoms: C_11  and  C_13
REMARK    5  A    between atoms: C_18  and  N_19
REMARK    6  A    between atoms: C_20  and  C_22
REMARK    7  A    between atoms: N_27  and  C_29
REMARK    8  A    between atoms: C_29  and  C_30
REMARK    9  A    between atoms: C_32  and  C_35
REMARK                            x       y       z     vdW  Elec       q    Type
REMARK                         _______ _______ _______ _____ _____    ______ ____
ROOT
ATOM      1  N   UNL     1      -6.903   5.207  -2.480  0.00  0.00    -0.285 N 
ATOM      2  C   UNL     1      -8.047   5.788  -2.891  0.00  0.00    +0.219 C 
ATOM      3  O   UNL     1      -8.893   5.129  -3.457  0.00  0.00    -0.275 OA
ATOM      4  H   UNL     1      -6.174   5.782  -1.891  0.00  0.00    +0.155 HD
ENDROOT
BRANCH   2   5
ATOM      5  C   UNL     1      -8.275   7.258  -2.647  0.00  0.00    +0.059 C 
ATOM      6  C   UNL     1      -7.180   8.068  -3.347  0.00  0.00    +0.009 C 
ATOM      7  C   UNL     1      -7.453   9.561  -3.145  0.00  0.00    -0.018 C 
ATOM      8  C   UNL     1      -8.842   9.900  -3.691  0.00  0.00    -0.078 C 
ATOM      9  N   UNL     1      -9.853   9.100  -2.988  0.00  0.00    +0.386 N 
ATOM     10  C   UNL     1      -9.640   7.663  -3.207  0.00  0.00    -0.065 C 
ATOM     11  H   UNL     1      -9.746   9.294  -1.911  0.00  0.00    -0.081 HD
BRANCH   9  12
ATOM     12  C   UNL     1     -11.210   9.497  -3.388  0.00  0.00    +0.022 C 
BRANCH  12  13
ATOM     13  C   UNL     1     -11.315  11.000  -3.384  0.00  0.00    +0.211 A 
ATOM     14  N   UNL     1     -11.059  11.800  -4.388  0.00  0.00    -0.192 NA
ATOM     15  C   UNL     1     -11.291  13.051  -3.926  0.00  0.00    +0.209 A 
ATOM     16  N   UNL     1     -11.663  12.936  -2.674  0.00  0.00    -0.056 NA
ATOM     17  O   UNL     1     -11.680  11.767  -2.351  0.00  0.00    -0.340 OA
BRANCH  15  18
ATOM     18  C   UNL     1     -11.148  14.309  -4.687  0.00  0.00    +0.060 A 
ATOM     19  C   UNL     1     -11.367  15.597  -4.275  0.00  0.00    +0.019 A 
ATOM     20  C   UNL     1     -11.162  16.622  -5.170  0.00  0.00    +0.008 A 
ATOM     21  C   UNL     1     -10.759  16.327  -6.434  0.00  0.00    +0.046 A 
ATOM     22  S   UNL     1     -10.651  14.546  -6.385  0.00  0.00    -0.093 S 
ENDBRANCH  15  18
ENDBRANCH  12  13
ENDBRANCH   9  12
ENDBRANCH   2   5
BRANCH   1  28
ATOM     23  C   UNL     1      -5.954   3.054  -1.897  0.00  0.00    +0.058 A 
ATOM     24  C   UNL     1      -5.705   1.720  -2.229  0.00  0.00    +0.015 A 
ATOM     25  C   UNL     1      -6.133   1.222  -3.441  0.00  0.00    +0.001 A 
ATOM     26  C   UNL     1      -6.810   2.038  -4.333  0.00  0.00    +0.002 A 
ATOM     27  C   UNL     1      -7.062   3.358  -4.019  0.00  0.00    +0.024 A 
ATOM     28  C   UNL     1      -6.644   3.876  -2.801  0.00  0.00    +0.046 A 
BRANCH  23  30
ATOM     29  N   UNL     1      -4.932   2.776   0.307  0.00  0.00    -0.305 N 
ATOM     30  C   UNL     1      -5.499   3.594  -0.602  0.00  0.00    +0.246 C 
ATOM     31  O   UNL     1      -5.636   4.776  -0.354  0.00  0.00    -0.270 OA
ATOM     32  H   UNL     1      -4.808   1.707   0.083  0.00  0.00    +0.150 HD
BRANCH  29  34
ATOM     33  C   UNL     1      -5.655   3.345   2.573  0.00  0.00    +0.033 C 
ATOM     34  C   UNL     1      -4.480   3.312   1.593  0.00  0.00    +0.100 C 
BRANCH  34  35
ATOM     35  C   UNL     1      -3.388   2.434   2.148  0.00  0.00    -0.027 A 
ATOM     36  C   UNL     1      -3.477   1.060   2.025  0.00  0.00    +0.005 A 
ATOM     37  C   UNL     1      -2.478   0.254   2.538  0.00  0.00    +0.000 A 
ATOM     38  C   UNL     1      -1.384   0.823   3.164  0.00  0.00    +0.000 A 
ATOM     39  C   UNL     1      -1.293   2.197   3.283  0.00  0.00    +0.000 A 
ATOM     40  C   UNL     1      -2.295   3.003   2.774  0.00  0.00    +0.005 A 
ENDBRANCH  34  35
ENDBRANCH  29  34
ENDBRANCH  23  30
ENDBRANCH   1  28
TORSDOF 8
