REMARK  Name = ZINC31160807
REMARK  13 active torsions:
REMARK  status: ('A' for Active; 'I' for Inactive)
REMARK    1  A    between atoms: C_1  and  C_2
REMARK    2  A    between atoms: C_5  and  O_31
REMARK    3  A    between atoms: C_9  and  C_30
REMARK    4  A    between atoms: C_11  and  O_29
REMARK    5  A    between atoms: C_13  and  C_25
REMARK    6  A    between atoms: C_15  and  C_19
REMARK    7  A    between atoms: C_15  and  C_20
REMARK    8  A    between atoms: C_20  and  C_21
REMARK    9  A    between atoms: C_21  and  C_22
REMARK   10  A    between atoms: C_25  and  C_26
REMARK   11  A    between atoms: C_25  and  C_27
REMARK   12  A    between atoms: C_25  and  O_28
REMARK   13  A    between atoms: O_31  and  C_32
REMARK                            x       y       z     vdW  Elec       q    Type
REMARK                         _______ _______ _______ _____ _____    ______ ____
ROOT
ATOM      1  C   UNL     1      -1.518   6.415   1.960  0.00  0.00    +0.048 C 
ATOM      2  C   UNL     1      -1.206   4.954   1.760  0.00  0.00    -0.001 A 
ATOM      3  C   UNL     1      -0.005   4.448   2.180  0.00  0.00    +0.014 A 
ATOM      4  C   UNL     1       0.285   3.088   2.010  0.00  0.00    +0.108 A 
ATOM      5  C   UNL     1      -0.661   2.256   1.393  0.00  0.00    +0.141 A 
ATOM      6  C   UNL     1      -1.868   2.783   0.952  0.00  0.00    +0.037 A 
ATOM      7  C   UNL     1      -2.147   4.123   1.147  0.00  0.00    +0.131 A 
ATOM      8  O   UNL     1      -3.319   4.649   0.744  0.00  0.00    -0.485 OA
ATOM      9  C   UNL     1      -4.430   3.797   0.429  0.00  0.00    +0.114 C 
ATOM     10  C   UNL     1      -5.054   3.284   1.721  0.00  0.00    +0.079 C 
ATOM     11  C   UNL     1      -6.186   2.303   1.458  0.00  0.00    +0.125 C 
ATOM     12  C   UNL     1      -5.771   1.168   0.538  0.00  0.00    +0.055 C 
ATOM     13  C   UNL     1      -5.082   1.634  -0.738  0.00  0.00    -0.017 C 
ATOM     14  C   UNL     1      -3.969   2.639  -0.444  0.00  0.00    +0.044 C 
ATOM     15  C   UNL     1      -2.846   1.869   0.268  0.00  0.00    +0.050 C 
ATOM     16  C   UNL     1      -4.444   0.382  -1.393  0.00  0.00    +0.012 C 
ATOM     17  C   UNL     1      -5.420   4.719  -0.299  0.00  0.00    +0.056 C 
ATOM     18  C   UNL     1       1.619   2.833   2.567  0.00  0.00    +0.343 C 
ATOM     19  O   UNL     1       2.168   1.749   2.589  0.00  0.00    -0.245 OA
ATOM     20  O   UNL     1       2.148   3.969   3.052  0.00  0.00    -0.456 OA
ATOM     21  C   UNL     1       1.204   5.056   2.845  0.00  0.00    +0.269 C 
ENDROOT
BRANCH  12  22
ATOM     22  C   UNL     1      -7.013   0.346   0.161  0.00  0.00    +0.066 C 
ATOM     23  C   UNL     1      -6.648  -0.654  -0.938  0.00  0.00    +0.041 C 
ATOM     24  C   UNL     1      -7.517  -0.410   1.392  0.00  0.00    +0.041 C 
BRANCH  22  25
ATOM     25  O   UNL     1      -8.038   1.221  -0.313  0.00  0.00    -0.389 OA
ATOM     26  H   UNL     1      -9.008   0.811  -0.631  0.00  0.00    +0.210 HD
ENDBRANCH  22  25
ENDBRANCH  12  22
BRANCH  11  27
ATOM     27  O   UNL     1      -7.349   2.964   0.967  0.00  0.00    -0.391 OA
ATOM     28  H   UNL     1      -8.253   2.384   0.731  0.00  0.00    +0.210 HD
ENDBRANCH  11  27
BRANCH   5  29
ATOM     29  O   UNL     1      -0.394   0.938   1.221  0.00  0.00    -0.494 OA
ATOM     30  C   UNL     1       0.259   0.562   0.006  0.00  0.00    +0.277 C 
ENDBRANCH   5  29
BRANCH  13  31
ATOM     31  C   UNL     1      -6.103   2.155  -1.749  0.00  0.00    +0.019 C 
BRANCH  31  32
ATOM     32  C   UNL     1      -5.371   2.713  -2.971  0.00  0.00    +0.126 C 
BRANCH  32  33
ATOM     33  C   UNL     1      -6.377   3.240  -3.962  0.00  0.00    +0.356 C 
ATOM     34  O   UNL     1      -7.558   3.175  -3.716  0.00  0.00    -0.246 OA
ATOM     35  O   UNL     1      -5.960   3.781  -5.118  0.00  0.00    -0.246 OA
ENDBRANCH  32  33
ENDBRANCH  31  32
ENDBRANCH  13  31
TORSDOF 7
