REMARK  Name = ZINC32284615
REMARK  8 active torsions:
REMARK  status: ('A' for Active; 'I' for Inactive)
REMARK    1  A    between atoms: C_1  and  C_2
REMARK    2  A    between atoms: C_5  and  S_9
REMARK    3  A    between atoms: S_9  and  N_12
REMARK    4  A    between atoms: N_12  and  C_13
REMARK    5  A    between atoms: C_17  and  C_19
REMARK    6  A    between atoms: N_21  and  C_22
REMARK    7  A    between atoms: C_22  and  C_24
REMARK    8  A    between atoms: C_22  and  C_25
REMARK                            x       y       z     vdW  Elec       q    Type
REMARK                         _______ _______ _______ _____ _____    ______ ____
ROOT
ATOM      1  C   UNL     1      -4.233   1.127  -4.520  0.00  0.00    +0.049 A 
ATOM      2  C   UNL     1      -3.861   2.322  -5.126  0.00  0.00    +0.024 A 
ATOM      3  C   UNL     1      -2.770   3.029  -4.657  0.00  0.00    +0.003 A 
ATOM      4  C   UNL     1      -2.046   2.557  -3.580  0.00  0.00    +0.013 A 
ATOM      5  C   UNL     1      -2.409   1.355  -2.969  0.00  0.00    +0.038 A 
ATOM      6  C   UNL     1      -3.510   0.641  -3.442  0.00  0.00    +0.037 A 
ENDROOT
BRANCH   5   7
ATOM      7  C   UNL     1      -1.631   0.844  -1.820  0.00  0.00    +0.245 C 
ATOM      8  O   UNL     1      -1.951  -0.200  -1.285  0.00  0.00    -0.270 OA
ATOM      9  N   UNL     1      -0.568   1.536  -1.364  0.00  0.00    -0.305 N 
ATOM     10  H   UNL     1      -0.278   2.480  -1.848  0.00  0.00    +0.150 HD
BRANCH   9  11
ATOM     11  C   UNL     1       0.203   1.029  -0.226  0.00  0.00    +0.101 C 
ATOM     12  C   UNL     1      -0.461   1.476   1.078  0.00  0.00    +0.033 C 
BRANCH  11  13
ATOM     13  C   UNL     1       1.607   1.573  -0.287  0.00  0.00    -0.024 A 
ATOM     14  C   UNL     1       1.821   2.885  -0.667  0.00  0.00    +0.009 A 
ATOM     15  C   UNL     1       3.107   3.392  -0.724  0.00  0.00    +0.050 A 
ATOM     16  C   UNL     1       4.180   2.580  -0.399  0.00  0.00    +0.162 A 
ATOM     17  C   UNL     1       3.965   1.263  -0.019  0.00  0.00    +0.162 A 
ATOM     18  C   UNL     1       2.676   0.760   0.043  0.00  0.00    +0.055 A 
ATOM     19  O   UNL     1       5.029   0.470   0.299  0.00  0.00    -0.488 OA
ATOM     20  C   UNL     1       5.897   0.127  -0.783  0.00  0.00    +0.232 C 
ATOM     21  C   UNL     1       6.926   1.222  -1.018  0.00  0.00    +0.082 C 
ATOM     22  C   UNL     1       6.289   2.526  -1.475  0.00  0.00    +0.232 C 
ATOM     23  O   UNL     1       5.453   3.068  -0.450  0.00  0.00    -0.488 OA
ENDBRANCH  11  13
ENDBRANCH   9  11
ENDBRANCH   5   7
BRANCH   1  24
ATOM     24  N   UNL     1      -5.337   0.416  -4.997  0.00  0.00    -0.216 N 
ATOM     25  H   UNL     1      -5.266  -0.670  -5.154  0.00  0.00    +0.174 HD
BRANCH  24  26
ATOM     26  S   UNL     1      -6.753   1.209  -5.327  0.00  0.00    +0.072 S 
ATOM     27  O   UNL     1      -6.422   2.292  -6.185  0.00  0.00    -0.150 OA
ATOM     28  O   UNL     1      -7.701   0.214  -5.688  0.00  0.00    -0.150 OA
BRANCH  26  33
ATOM     29  C   UNL     1      -8.688   3.632  -0.150  0.00  0.00    +0.047 C 
ATOM     30  C   UNL     1      -8.205   3.028  -1.443  0.00  0.00    -0.015 A 
ATOM     31  C   UNL     1      -8.509   1.715  -1.748  0.00  0.00    +0.008 A 
ATOM     32  C   UNL     1      -8.071   1.162  -2.937  0.00  0.00    +0.029 A 
ATOM     33  C   UNL     1      -7.317   1.918  -3.816  0.00  0.00    +0.111 A 
ATOM     34  C   UNL     1      -7.012   3.231  -3.513  0.00  0.00    +0.067 A 
ATOM     35  C   UNL     1      -7.455   3.788  -2.325  0.00  0.00    +0.128 A 
ATOM     36  F   UNL     1      -7.157   5.071  -2.027  0.00  0.00    -0.205 F 
ENDBRANCH  26  33
ENDBRANCH  24  26
ENDBRANCH   1  24
TORSDOF 6
