REMARK  Name = ZINC01390560
REMARK  3 active torsions:
REMARK  status: ('A' for Active; 'I' for Inactive)
REMARK    1  A    between atoms: C_6  and  C_7
REMARK    2  A    between atoms: C_9  and  N_19
REMARK    3  A    between atoms: N_10  and  C_12
REMARK                            x       y       z     vdW  Elec       q    Type
REMARK                         _______ _______ _______ _____ _____    ______ ____
ROOT
ATOM      1  C   UNL     1       1.227   1.827   0.000  0.00  0.00    +0.095 A 
ATOM      2  C   UNL     1       2.080   0.708  -0.014  0.00  0.00    +0.073 A 
ATOM      3  C   UNL     1       1.303  -0.407  -0.013  0.00  0.00    +0.120 A 
ATOM      4  N   UNL     1       0.002  -0.004   0.002  0.00  0.00    -0.218 N 
ATOM      5  N   UNL     1      -0.017   1.396   0.010  0.00  0.00    -0.165 NA
ENDROOT
BRANCH   1  11
ATOM      6  C   UNL     1       3.012   3.569  -0.002  0.00  0.00    +0.011 A 
ATOM      7  C   UNL     1       3.405   4.892  -0.003  0.00  0.00    +0.016 A 
ATOM      8  C   UNL     1       2.456   5.899   0.012  0.00  0.00    +0.018 A 
ATOM      9  C   UNL     1       1.108   5.585   0.022  0.00  0.00    +0.016 A 
ATOM     10  C   UNL     1       0.704   4.266   0.019  0.00  0.00    +0.011 A 
ATOM     11  C   UNL     1       1.656   3.248   0.004  0.00  0.00    +0.002 A 
ATOM     12 BR   UNL     1       3.002   7.709   0.018  0.00  0.00    -0.050 Br
ENDBRANCH   1  11
BRANCH   4  13
ATOM     13  C   UNL     1      -1.121  -0.843   0.008  0.00  0.00    +0.068 A 
ATOM     14  C   UNL     1      -1.097  -2.041  -0.693  0.00  0.00    +0.030 A 
ATOM     15  C   UNL     1      -2.202  -2.869  -0.682  0.00  0.00    +0.040 A 
ATOM     16  C   UNL     1      -3.338  -2.500   0.020  0.00  0.00    +0.124 A 
ATOM     17  C   UNL     1      -3.365  -1.303   0.716  0.00  0.00    +0.040 A 
ATOM     18  C   UNL     1      -2.260  -0.475   0.711  0.00  0.00    +0.030 A 
ATOM     19  F   UNL     1      -4.420  -3.308   0.025  0.00  0.00    -0.205 F 
ENDBRANCH   4  13
BRANCH   3  20
ATOM     20  N   UNL     1       1.754  -1.724  -0.024  0.00  0.00    -0.343 N 
ATOM     21  H   UNL     1       1.117  -2.455  -0.021  0.00  0.00    +0.144 HD
ATOM     22  H   UNL     1       2.706  -1.910  -0.034  0.00  0.00    +0.144 HD
ENDBRANCH   3  20
TORSDOF 3
