REMARK  Name = ZINC65074659
REMARK  6 active torsions:
REMARK  status: ('A' for Active; 'I' for Inactive)
REMARK    1  A    between atoms: C_1  and  C_2
REMARK    2  A    between atoms: C_4  and  C_30
REMARK    3  A    between atoms: C_5  and  S_9
REMARK    4  A    between atoms: C_6  and  C_8
REMARK    5  A    between atoms: S_9  and  N_12
REMARK    6  A    between atoms: N_23  and  C_24
REMARK                            x       y       z     vdW  Elec       q    Type
REMARK                         _______ _______ _______ _____ _____    ______ ____
ROOT
ATOM      1  N   UNL     1       0.400  -5.328   0.167  0.00  0.00    -0.176 NA
ATOM      2  C   UNL     1       1.079  -5.802  -1.047  0.00  0.00    +0.111 C 
ATOM      3  C   UNL     1       1.215  -7.326  -0.972  0.00  0.00    +0.047 C 
ATOM      4  C   UNL     1       1.923  -7.707   0.332  0.00  0.00    +0.075 C 
ATOM      5  C   UNL     1       1.083  -7.239   1.523  0.00  0.00    +0.047 C 
ATOM      6  C   UNL     1       0.947  -5.709   1.476  0.00  0.00    +0.111 C 
ATOM      7  C   UNL     1       2.094  -9.199   0.393  0.00  0.00    +0.089 C 
ATOM      8  N   UNL     1       3.204  -9.793   0.170  0.00  0.00    -0.374 N 
ATOM      9  C   UNL     1       4.444  -9.099  -0.161  0.00  0.00    +0.129 C 
ATOM     10  C   UNL     1       4.141  -7.667  -0.609  0.00  0.00    +0.102 C 
ATOM     11  N   UNL     1       3.238  -7.051   0.378  0.00  0.00    -0.303 NA
ATOM     12  N   UNL     1       1.001  -9.964   0.704  0.00  0.00    -0.330 N 
ATOM     13  H   UNL     1       3.153  -6.058   0.220  0.00  0.00    +0.123 HD
ATOM     14  H   UNL     1       0.146  -9.540   0.878  0.00  0.00    +0.147 HD
ATOM     15  H   UNL     1       3.223 -10.762   0.224  0.00  0.00    +0.161 HD
ENDROOT
BRANCH  12  16
ATOM     16  C   UNL     1       1.123 -11.422   0.774  0.00  0.00    +0.071 C 
ATOM     17  C   UNL     1       0.956 -12.015  -0.626  0.00  0.00    +0.022 C 
ATOM     18  C   UNL     1       1.083 -13.538  -0.553  0.00  0.00    +0.002 C 
ATOM     19  C   UNL     1      -0.001 -14.097   0.371  0.00  0.00    +0.000 C 
ATOM     20  C   UNL     1       0.166 -13.504   1.771  0.00  0.00    +0.002 C 
ATOM     21  C   UNL     1       0.038 -11.981   1.698  0.00  0.00    +0.022 C 
ENDBRANCH  12  16
BRANCH   1  22
ATOM     22  S   UNL     1      -0.950  -4.376   0.061  0.00  0.00    +0.061 S 
ATOM     23  O   UNL     1      -1.662  -4.544   1.280  0.00  0.00    -0.153 OA
ATOM     24  O   UNL     1      -1.536  -4.641  -1.206  0.00  0.00    -0.153 OA
BRANCH  22  29
ATOM     25  C   UNL     1       0.919   1.360  -0.067  0.00  0.00    +0.044 C 
ATOM     26  C   UNL     1       0.452  -0.073  -0.035  0.00  0.00    -0.050 A 
ATOM     27  C   UNL     1       0.175  -0.682   1.174  0.00  0.00    +0.008 A 
ATOM     28  C   UNL     1      -0.254  -1.996   1.204  0.00  0.00    -0.024 A 
ATOM     29  C   UNL     1      -0.405  -2.700   0.024  0.00  0.00    +0.111 A 
ATOM     30  C   UNL     1      -0.129  -2.090  -1.185  0.00  0.00    -0.024 A 
ATOM     31  C   UNL     1       0.295  -0.775  -1.215  0.00  0.00    +0.008 A 
ATOM     32  C   UNL     1      -0.294  -2.858  -2.472  0.00  0.00    +0.046 C 
ATOM     33  C   UNL     1      -0.555  -2.661   2.522  0.00  0.00    +0.046 C 
ENDBRANCH  22  29
ENDBRANCH   1  22
TORSDOF 3
