REMARK  Name = ZINC03011009
REMARK  10 active torsions:
REMARK  status: ('A' for Active; 'I' for Inactive)
REMARK    1  A    between atoms: C_1  and  C_2
REMARK    2  A    between atoms: C_5  and  N_9
REMARK    3  A    between atoms: C_7  and  C_8
REMARK    4  A    between atoms: C_10  and  C_12
REMARK    5  A    between atoms: C_17  and  C_33
REMARK    6  A    between atoms: C_20  and  C_23
REMARK    7  A    between atoms: C_26  and  O_31
REMARK    8  A    between atoms: C_27  and  O_29
REMARK    9  A    between atoms: O_29  and  C_30
REMARK   10  A    between atoms: O_31  and  C_32
REMARK                            x       y       z     vdW  Elec       q    Type
REMARK                         _______ _______ _______ _____ _____    ______ ____
ROOT
ATOM      1  C   UNL     1      -0.132  -6.312  -1.187  0.00  0.00    +0.149 A 
ATOM      2  C   UNL     1      -0.234  -7.136  -2.331  0.00  0.00    +0.078 A 
ATOM      3  C   UNL     1      -0.294  -8.414  -1.907  0.00  0.00    +0.119 A 
ATOM      4  N   UNL     1      -0.235  -8.413  -0.542  0.00  0.00    -0.238 N 
ATOM      5  N   UNL     1      -0.128  -7.090  -0.118  0.00  0.00    -0.164 NA
ATOM      6  C   UNL     1      -0.279  -9.630   0.274  0.00  0.00    +0.215 C 
ATOM      7  C   UNL     1      -0.870 -10.769  -0.564  0.00  0.00    +0.063 C 
ATOM      8  C   UNL     1      -0.153 -10.849  -1.916  0.00  0.00    +0.104 C 
ATOM      9  N   UNL     1      -0.397  -9.593  -2.652  0.00  0.00    -0.322 N 
ATOM     10  H   UNL     1      -0.616  -9.585  -3.597  0.00  0.00    +0.148 HD
ENDROOT
BRANCH   8  11
ATOM     11  C   UNL     1       1.327 -11.030  -1.694  0.00  0.00    -0.024 A 
ATOM     12  C   UNL     1       2.115  -9.940  -1.374  0.00  0.00    +0.009 A 
ATOM     13  C   UNL     1       3.473 -10.101  -1.169  0.00  0.00    +0.050 A 
ATOM     14  C   UNL     1       4.046 -11.357  -1.284  0.00  0.00    +0.162 A 
ATOM     15  C   UNL     1       3.253 -12.454  -1.605  0.00  0.00    +0.162 A 
ATOM     16  C   UNL     1       1.892 -12.287  -1.804  0.00  0.00    +0.054 A 
BRANCH  15  17
ATOM     17  O   UNL     1       3.812 -13.689  -1.719  0.00  0.00    -0.491 OA
ATOM     18  C   UNL     1       2.936 -14.769  -2.051  0.00  0.00    +0.277 C 
ENDBRANCH  15  17
BRANCH  14  19
ATOM     19  O   UNL     1       5.382 -11.517  -1.083  0.00  0.00    -0.491 OA
ATOM     20  C   UNL     1       6.134 -10.346  -0.757  0.00  0.00    +0.277 C 
ENDBRANCH  14  19
ENDBRANCH   8  11
BRANCH   1  22
ATOM     21  N   UNL     1       0.059  -4.169  -0.021  0.00  0.00    -0.280 N 
ATOM     22  C   UNL     1      -0.040  -4.838  -1.187  0.00  0.00    +0.268 C 
ATOM     23  O   UNL     1      -0.054  -4.228  -2.238  0.00  0.00    -0.268 OA
ATOM     24  H   UNL     1       0.147  -4.657   0.812  0.00  0.00    +0.155 HD
BRANCH  21  29
ATOM     25  C   UNL     1      -0.039   1.502   0.011  0.00  0.00    +0.044 C 
ATOM     26  C   UNL     1      -0.013  -0.004   0.003  0.00  0.00    -0.047 A 
ATOM     27  C   UNL     1       0.749  -0.687   0.934  0.00  0.00    +0.005 A 
ATOM     28  C   UNL     1       0.775  -2.067   0.929  0.00  0.00    +0.023 A 
ATOM     29  C   UNL     1       0.034  -2.771  -0.013  0.00  0.00    +0.034 A 
ATOM     30  C   UNL     1      -0.730  -2.083  -0.946  0.00  0.00    +0.027 A 
ATOM     31  C   UNL     1      -0.755  -0.702  -0.932  0.00  0.00    -0.046 A 
ATOM     32  C   UNL     1      -1.588   0.046  -1.941  0.00  0.00    +0.044 C 
ENDBRANCH  21  29
ENDBRANCH   1  22
BRANCH   6  33
ATOM     33  C   UNL     1      -1.155  -9.389   1.506  0.00  0.00    +0.412 C 
ATOM     34  F   UNL     1      -2.451  -9.055   1.099  0.00  0.00    -0.168 F 
ATOM     35  F   UNL     1      -1.195 -10.551   2.284  0.00  0.00    -0.168 F 
ATOM     36  F   UNL     1      -0.619  -8.341   2.261  0.00  0.00    -0.168 F 
ENDBRANCH   6  33
TORSDOF 6
