REMARK  Name = ZINC48813954
REMARK  3 active torsions:
REMARK  status: ('A' for Active; 'I' for Inactive)
REMARK    1  A    between atoms: C_3  and  C_20
REMARK    2  A    between atoms: C_6  and  N_7
REMARK    3  A    between atoms: N_10  and  C_11
REMARK                            x       y       z     vdW  Elec       q    Type
REMARK                         _______ _______ _______ _____ _____    ______ ____
ROOT
ATOM      1  N   UNL     1      -1.196  -0.715   0.010  0.00  0.00    -0.269 N 
ATOM      2  C   UNL     1      -1.183  -2.058  -0.099  0.00  0.00    +0.304 C 
ATOM      3  O   UNL     1      -0.126  -2.657  -0.113  0.00  0.00    -0.253 OA
ATOM      4  N   UNL     1      -2.344  -2.738  -0.193  0.00  0.00    -0.295 N 
ATOM      5  H   UNL     1      -2.039  -0.243   0.099  0.00  0.00    +0.156 HD
ATOM      6  H   UNL     1      -3.188  -2.260  -0.181  0.00  0.00    +0.151 HD
ENDROOT
BRANCH   1  12
ATOM      7  C   UNL     1       1.068  -0.457  -0.776  0.00  0.00    +0.024 A 
ATOM      8  C   UNL     1       2.246   0.235  -0.796  0.00  0.00    +0.018 A 
ATOM      9  C   UNL     1       2.384   1.404  -0.040  0.00  0.00    +0.082 A 
ATOM     10  C   UNL     1       1.312   1.862   0.737  0.00  0.00    +0.057 A 
ATOM     11  C   UNL     1       0.128   1.158   0.751  0.00  0.00    +0.044 A 
ATOM     12  C   UNL     1       0.002  -0.004  -0.005  0.00  0.00    +0.036 A 
ATOM     13 CL   UNL     1       1.475   3.311   1.679  0.00  0.00    -0.083 Cl
BRANCH   9  14
ATOM     14  C   UNL     1       3.652   2.150  -0.060  0.00  0.00    +0.388 C 
ATOM     15  O   UNL     1       4.588   1.748  -0.739  0.00  0.00    -0.241 OA
ATOM     16  O   UNL     1       3.772   3.172   0.602  0.00  0.00    -0.241 OA
ENDBRANCH   9  14
ENDBRANCH   1  12
BRANCH   4  17
ATOM     17  C   UNL     1      -2.330  -4.198  -0.311  0.00  0.00    +0.097 C 
ATOM     18  C   UNL     1      -2.259  -4.823   1.092  0.00  0.00    +0.046 C 
ATOM     19  C   UNL     1      -2.560  -6.343   0.960  0.00  0.00    +0.168 C 
ATOM     20  S   UNL     1      -3.932  -6.310  -0.270  0.00  0.00    -0.029 S 
ATOM     21  O   UNL     1      -3.706  -7.322  -1.242  0.00  0.00    -0.174 OA
ATOM     22  O   UNL     1      -5.172  -6.269   0.422  0.00  0.00    -0.174 OA
ATOM     23  C   UNL     1      -3.617  -4.667  -1.032  0.00  0.00    +0.188 C 
ENDBRANCH   4  17
TORSDOF 3
