REMARK  Name = ZINC45116489
REMARK  6 active torsions:
REMARK  status: ('A' for Active; 'I' for Inactive)
REMARK    1  A    between atoms: C_1  and  C_2
REMARK    2  A    between atoms: C_2  and  C_19
REMARK    3  A    between atoms: C_4  and  N_6
REMARK    4  A    between atoms: N_6  and  S_7
REMARK    5  A    between atoms: S_7  and  C_10
REMARK    6  A    between atoms: C_11  and  N_18
REMARK                            x       y       z     vdW  Elec       q    Type
REMARK                         _______ _______ _______ _____ _____    ______ ____
ROOT
ATOM      1  C   UNL     1       4.247  -0.450   1.940  0.00  0.00    +0.144 A 
ATOM      2  C   UNL     1       4.280  -1.517   1.052  0.00  0.00    +0.054 A 
ATOM      3  C   UNL     1       4.997  -1.409  -0.133  0.00  0.00    +0.044 A 
ATOM      4  C   UNL     1       5.675  -0.241  -0.426  0.00  0.00    +0.044 A 
ATOM      5  C   UNL     1       5.640   0.821   0.461  0.00  0.00    +0.042 A 
ATOM      6  C   UNL     1       4.923   0.718   1.640  0.00  0.00    +0.070 A 
ATOM      7 CL   UNL     1       4.876   2.055   2.746  0.00  0.00    -0.081 Cl
ATOM      8 CL   UNL     1       6.571  -0.105  -1.906  0.00  0.00    -0.083 Cl
ENDROOT
BRANCH   1   9
ATOM      9  S   UNL     1       3.339  -0.582   3.444  0.00  0.00    +0.062 S 
ATOM     10  O   UNL     1       3.938   0.323   4.361  0.00  0.00    -0.153 OA
ATOM     11  O   UNL     1       3.209  -1.970   3.719  0.00  0.00    -0.153 OA
BRANCH   9  12
ATOM     12  N   UNL     1       1.813  -0.013   3.146  0.00  0.00    -0.186 NA
ATOM     13  H   UNL     1       1.498   0.788   3.592  0.00  0.00    +0.148 HD
BRANCH  12  17
ATOM     14  C   UNL     1       0.031   1.639   1.539  0.00  0.00    +0.012 C 
ATOM     15  C   UNL     1      -0.009   0.121   1.352  0.00  0.00    -0.016 C 
ATOM     16  C   UNL     1      -0.564  -0.718   2.504  0.00  0.00    +0.029 C 
ATOM     17  C   UNL     1       0.937  -0.722   2.209  0.00  0.00    +0.083 C 
ATOM     18  C   UNL     1      -0.290  -0.361  -0.073  0.00  0.00    +0.012 C 
ENDBRANCH  12  17
ENDBRANCH   9  12
ENDBRANCH   1   9
BRANCH   2  19
ATOM     19  N   UNL     1       3.595  -2.697   1.350  0.00  0.00    -0.356 N 
ATOM     20  H   UNL     1       2.851  -2.682   1.972  0.00  0.00    +0.142 HD
ATOM     21  H   UNL     1       3.863  -3.532   0.935  0.00  0.00    +0.142 HD
ENDBRANCH   2  19
TORSDOF 4
