REMARK  Name = ZINC02803210
REMARK  9 active torsions:
REMARK  status: ('A' for Active; 'I' for Inactive)
REMARK    1  A    between atoms: C_1  and  C_2
REMARK    2  A    between atoms: C_4  and  C_33
REMARK    3  A    between atoms: C_6  and  C_8
REMARK    4  A    between atoms: N_10  and  CA_11
REMARK    5  A    between atoms: CA_18  and  C_30
REMARK    6  A    between atoms: C_19  and  C_22
REMARK    7  A    between atoms: C_22  and  S_23
REMARK    8  A    between atoms: S_23  and  C_24
REMARK    9  A    between atoms: C_27  and  C_29
REMARK                            x       y       z     vdW  Elec       q    Type
REMARK                         _______ _______ _______ _____ _____    ______ ____
ROOT
ATOM      1  CA  UNL     1       0.111  -2.755   4.867  0.00  0.00    +0.191 C 
ATOM      2  C   UNL     1       0.606  -1.993   6.085  0.00  0.00    +0.169 C 
ATOM      3  N   UNL     1      -0.656  -2.507   6.695  0.00  0.00    -0.249 N 
ATOM      4  C   UNL     1      -1.219  -2.958   5.558  0.00  0.00    +0.244 C 
ATOM      5  O   UNL     1      -2.317  -3.354   5.228  0.00  0.00    -0.273 OA
ATOM      6  CA  UNL     1      -0.943  -2.580   8.075  0.00  0.00    +0.127 C 
ATOM      7  C   UNL     1       0.037  -2.550   8.965  0.00  0.00    -0.021 C 
ATOM      8  C   UNL     1       1.504  -2.393   8.729  0.00  0.00    +0.104 C 
ATOM      9  S   UNL     1       1.977  -2.778   6.999  0.00  0.00    -0.131 S 
ENDROOT
BRANCH   1  12
ATOM     10  C   UNL     1       0.084  -2.494   2.445  0.00  0.00    +0.245 C 
ATOM     11  O   UNL     1       0.222  -3.697   2.343  0.00  0.00    -0.270 OA
ATOM     12  N   UNL     1       0.017  -1.924   3.664  0.00  0.00    -0.298 N 
ATOM     13  H   UNL     1      -0.093  -0.963   3.746  0.00  0.00    +0.150 HD
BRANCH  10  19
ATOM     14  C   UNL     1      -0.432   1.996   0.328  0.00  0.00    +0.044 C 
ATOM     15  C   UNL     1      -0.260   0.504   0.208  0.00  0.00    -0.049 A 
ATOM     16  C   UNL     1      -0.190  -0.084  -1.043  0.00  0.00    +0.006 A 
ATOM     17  C   UNL     1      -0.032  -1.454  -1.162  0.00  0.00    -0.049 A 
ATOM     18  C   UNL     1       0.058  -2.242  -0.034  0.00  0.00    +0.016 A 
ATOM     19  C   UNL     1      -0.011  -1.655   1.231  0.00  0.00    +0.037 A 
ATOM     20  C   UNL     1      -0.165  -0.272   1.344  0.00  0.00    +0.016 A 
ATOM     21  C   UNL     1       0.043  -2.086  -2.528  0.00  0.00    +0.044 C 
ENDBRANCH  10  19
ENDBRANCH   1  12
BRANCH   6  22
ATOM     22  C   UNL     1      -2.339  -2.690   8.527  0.00  0.00    +0.401 C 
ATOM     23  O   UNL     1      -3.000  -1.679   8.722  0.00  0.00    -0.239 OA
ATOM     24  OXT UNL     1      -2.838  -3.792   8.708  0.00  0.00    -0.239 OA
ENDBRANCH   6  22
BRANCH   7  25
ATOM     25  C   UNL     1      -0.383  -2.691  10.406  0.00  0.00    +0.110 C 
BRANCH  25  26
ATOM     26  S   UNL     1      -0.061  -4.386  10.966  0.00  0.00    -0.093 S 
BRANCH  26  27
ATOM     27  C   UNL     1      -0.598  -4.390  12.644  0.00  0.00    +0.159 A 
ATOM     28  N   UNL     1      -1.127  -3.416  13.373  0.00  0.00    -0.135 NA
ATOM     29  N   UNL     1      -1.460  -3.593  14.577  0.00  0.00    -0.146 NA
ATOM     30  C   UNL     1      -1.304  -4.751  15.186  0.00  0.00    +0.100 A 
ATOM     31  S   UNL     1      -0.594  -5.712  13.852  0.00  0.00    -0.044 S 
ATOM     32  C   UNL     1      -1.636  -5.154  16.599  0.00  0.00    +0.075 C 
ENDBRANCH  26  27
ENDBRANCH  25  26
ENDBRANCH   7  25
TORSDOF 6
