REMARK  Name = ZINC28791841
REMARK  6 active torsions:
REMARK  status: ('A' for Active; 'I' for Inactive)
REMARK    1  A    between atoms: C_4  and  C_7
REMARK    2  A    between atoms: C_9  and  C_12
REMARK    3  A    between atoms: N_14  and  N_15
REMARK    4  A    between atoms: C_16  and  C_18
REMARK    5  A    between atoms: C_22  and  S_24
REMARK    6  A    between atoms: S_24  and  N_27
REMARK                            x       y       z     vdW  Elec       q    Type
REMARK                         _______ _______ _______ _____ _____    ______ ____
ROOT
ATOM      1  N   UNL     1       1.075  -4.215  -0.033  0.00  0.00    -0.230 N 
ATOM      2  C   UNL     1       0.136  -5.183  -0.029  0.00  0.00    +0.260 C 
ATOM      3  O   UNL     1      -1.042  -4.886  -0.016  0.00  0.00    -0.269 OA
ATOM      4  H   UNL     1       2.142  -4.484  -0.044  0.00  0.00    +0.173 HD
ENDROOT
BRANCH   2   5
ATOM      5  C   UNL     1       0.540  -6.605  -0.041  0.00  0.00    +0.040 A 
ATOM      6  C   UNL     1       1.893  -6.949  -0.062  0.00  0.00    +0.013 A 
ATOM      7  C   UNL     1       2.263  -8.278  -0.070  0.00  0.00    +0.003 A 
ATOM      8  C   UNL     1       1.297  -9.268  -0.066  0.00  0.00    +0.029 A 
ATOM      9  C   UNL     1      -0.045  -8.934  -0.050  0.00  0.00    +0.109 A 
ATOM     10  C   UNL     1      -0.429  -7.609  -0.038  0.00  0.00    +0.042 A 
BRANCH   9  11
ATOM     11  S   UNL     1      -1.268 -10.203  -0.045  0.00  0.00    +0.075 S 
ATOM     12  O   UNL     1      -0.647 -11.363   0.492  0.00  0.00    -0.150 OA
ATOM     13  O   UNL     1      -2.441  -9.635   0.521  0.00  0.00    -0.150 OA
BRANCH  11  14
ATOM     14  N   UNL     1      -1.623 -10.546  -1.626  0.00  0.00    -0.202 N 
ATOM     15  C   UNL     1      -0.939 -11.553  -2.441  0.00  0.00    +0.136 C 
ATOM     16  C   UNL     1      -1.624 -11.492  -3.816  0.00  0.00    +0.058 C 
ATOM     17  C   UNL     1      -2.679 -10.419  -3.667  0.00  0.00    -0.023 A 
ATOM     18  C   UNL     1      -2.623  -9.922  -2.374  0.00  0.00    +0.054 A 
ATOM     19  C   UNL     1      -3.514  -8.916  -1.995  0.00  0.00    +0.025 A 
ATOM     20  C   UNL     1      -4.438  -8.430  -2.897  0.00  0.00    +0.002 A 
ATOM     21  C   UNL     1      -4.488  -8.936  -4.183  0.00  0.00    +0.000 A 
ATOM     22  C   UNL     1      -3.603  -9.925  -4.568  0.00  0.00    +0.005 A 
ENDBRANCH  11  14
ENDBRANCH   9  11
ENDBRANCH   2   5
BRANCH   1  25
ATOM     23  C   UNL     1       1.631  -1.901  -0.025  0.00  0.00    +0.282 C 
ATOM     24  O   UNL     1       2.809  -2.197  -0.038  0.00  0.00    -0.267 OA
ATOM     25  N   UNL     1       0.692  -2.868  -0.021  0.00  0.00    -0.229 N 
ATOM     26  H   UNL     1      -0.374  -2.599  -0.009  0.00  0.00    +0.173 HD
BRANCH  23  29
ATOM     27  C   UNL     1       1.228   1.720  -0.000  0.00  0.00    +0.168 A 
ATOM     28  C   UNL     1       2.086   0.655  -0.014  0.00  0.00    +0.086 A 
ATOM     29  C   UNL     1       1.226  -0.473  -0.012  0.00  0.00    +0.170 A 
ATOM     30  N   UNL     1       0.002  -0.004   0.002  0.00  0.00    -0.073 NA
ATOM     31  O   UNL     1      -0.014   1.205   0.009  0.00  0.00    -0.354 OA
BRANCH  27  35
ATOM     32  C   UNL     1       2.277   5.836   0.014  0.00  0.00    +0.000 A 
ATOM     33  C   UNL     1       0.944   5.465   0.025  0.00  0.00    +0.001 A 
ATOM     34  C   UNL     1       0.597   4.129   0.020  0.00  0.00    +0.011 A 
ATOM     35  C   UNL     1       1.593   3.152   0.004  0.00  0.00    +0.020 A 
ATOM     36  C   UNL     1       2.936   3.533  -0.001  0.00  0.00    +0.011 A 
ATOM     37  C   UNL     1       3.270   4.872  -0.001  0.00  0.00    +0.001 A 
ENDBRANCH  27  35
ENDBRANCH  23  29
ENDBRANCH   1  25
TORSDOF 6
