REMARK  Name = ZINC02543751
REMARK  11 active torsions:
REMARK  status: ('A' for Active; 'I' for Inactive)
REMARK    1  A    between atoms: C_1  and  C_2
REMARK    2  A    between atoms: C_6  and  N_8
REMARK    3  A    between atoms: N_8  and  C_9
REMARK    4  A    between atoms: C_9  and  N_11
REMARK    5  A    between atoms: N_11  and  N_12
REMARK    6  A    between atoms: C_13  and  C_14
REMARK    7  A    between atoms: C_17  and  O_22
REMARK    8  A    between atoms: C_18  and  O_20
REMARK    9  A    between atoms: O_20  and  C_21
REMARK   10  A    between atoms: O_22  and  C_23
REMARK   11  A    between atoms: C_23  and  C_25
REMARK                            x       y       z     vdW  Elec       q    Type
REMARK                         _______ _______ _______ _____ _____    ______ ____
ROOT
ATOM      1  C   UNL     1      -1.466   9.978   0.374  0.00  0.00    -0.002 A 
ATOM      2  C   UNL     1      -2.662   9.256   0.407  0.00  0.00    +0.013 A 
ATOM      3  C   UNL     1      -3.869   9.921   0.426  0.00  0.00    +0.051 A 
ATOM      4  C   UNL     1      -3.901  11.308   0.401  0.00  0.00    +0.173 A 
ATOM      5  C   UNL     1      -2.713  12.035   0.362  0.00  0.00    +0.163 A 
ATOM      6  C   UNL     1      -1.499  11.375   0.349  0.00  0.00    +0.059 A 
ENDROOT
BRANCH   1   8
ATOM      7  N   UNL     1      -0.146   7.971   0.383  0.00  0.00    -0.188 NA
ATOM      8  C   UNL     1      -0.174   9.269   0.359  0.00  0.00    +0.138 C 
BRANCH   7   9
ATOM      9  N   UNL     1       1.082   7.297   0.368  0.00  0.00    -0.218 N 
ATOM     10  H   UNL     1       1.911   7.800   0.341  0.00  0.00    +0.176 HD
BRANCH   9  11
ATOM     11  C   UNL     1       1.111   5.950   0.393  0.00  0.00    +0.154 C 
ATOM     12  S   UNL     1       2.612   5.126   0.376  0.00  0.00    -0.017 S 
BRANCH  11  13
ATOM     13  N   UNL     1      -0.041   5.251   0.431  0.00  0.00    -0.296 N 
ATOM     14  H   UNL     1      -0.891   5.713   0.359  0.00  0.00    +0.154 HD
BRANCH  13  20
ATOM     15  C   UNL     1      -1.776   0.830  -0.837  0.00  0.00    +0.044 C 
ATOM     16  C   UNL     1      -0.841   1.693  -0.029  0.00  0.00    -0.049 A 
ATOM     17  C   UNL     1       0.048   1.108   0.855  0.00  0.00    +0.003 A 
ATOM     18  C   UNL     1       0.911   1.896   1.594  0.00  0.00    +0.002 A 
ATOM     19  C   UNL     1       0.884   3.270   1.455  0.00  0.00    +0.023 A 
ATOM     20  C   UNL     1      -0.011   3.860   0.573  0.00  0.00    +0.033 A 
ATOM     21  C   UNL     1      -0.877   3.066  -0.168  0.00  0.00    +0.026 A 
ENDBRANCH  13  20
ENDBRANCH  11  13
ENDBRANCH   9  11
ENDBRANCH   7   9
ENDBRANCH   1   8
BRANCH   5  22
ATOM     22  O   UNL     1      -2.748  13.394   0.338  0.00  0.00    -0.491 OA
ATOM     23  C   UNL     1      -1.492  14.075   0.298  0.00  0.00    +0.277 C 
ENDBRANCH   5  22
BRANCH   4  24
ATOM     24  O   UNL     1      -5.094  11.959   0.413  0.00  0.00    -0.419 OA
BRANCH  24  25
ATOM     25  C   UNL     1      -5.589  12.353  -0.776  0.00  0.00    +0.345 C 
ATOM     26  O   UNL     1      -4.934  12.198  -1.788  0.00  0.00    -0.245 OA
BRANCH  25  27
ATOM     27  C   UNL     1      -6.928  12.973  -0.852  0.00  0.00    +0.060 A 
ATOM     28  C   UNL     1      -7.443  13.382  -2.083  0.00  0.00    +0.015 A 
ATOM     29  C   UNL     1      -8.694  13.960  -2.147  0.00  0.00    +0.002 A 
ATOM     30  C   UNL     1      -9.438  14.135  -0.993  0.00  0.00    +0.015 A 
ATOM     31  C   UNL     1      -8.933  13.732   0.231  0.00  0.00    +0.019 A 
ATOM     32  C   UNL     1      -7.685  13.147   0.308  0.00  0.00    +0.030 A 
ATOM     33 BR   UNL     1      -9.959  13.976   1.801  0.00  0.00    -0.050 Br
ENDBRANCH  25  27
ENDBRANCH  24  25
ENDBRANCH   4  24
TORSDOF 9
