REMARK  Name = ZINC19818669
REMARK  7 active torsions:
REMARK  status: ('A' for Active; 'I' for Inactive)
REMARK    1  A    between atoms: C_5  and  N_7
REMARK    2  A    between atoms: N_10  and  C_13
REMARK    3  A    between atoms: C_13  and  C_14
REMARK    4  A    between atoms: C_22  and  C_24
REMARK    5  A    between atoms: C_24  and  C_25
REMARK    6  A    between atoms: N_27  and  C_28
REMARK    7  A    between atoms: C_32  and  C_34
REMARK                            x       y       z     vdW  Elec       q    Type
REMARK                         _______ _______ _______ _____ _____    ______ ____
ROOT
ATOM      1  C   UNL     1      -7.239   0.457  -1.308  0.00  0.00    +0.200 C 
ATOM      2  O   UNL     1      -6.685   1.077  -2.191  0.00  0.00    -0.278 OA
ATOM      3  N   UNL     1      -8.471  -0.050  -1.510  0.00  0.00    -0.289 N 
ATOM      4  C   UNL     1      -9.171  -0.807  -0.459  0.00  0.00    +0.127 C 
ATOM      5  C   UNL     1     -10.456  -0.057  -0.104  0.00  0.00    +0.123 C 
ATOM      6  N   UNL     1     -11.171   0.341  -1.310  0.00  0.00    -0.312 N 
ATOM      7  C   UNL     1     -10.611   0.473  -2.513  0.00  0.00    +0.234 C 
ATOM      8  O   UNL     1     -11.293   0.888  -3.426  0.00  0.00    -0.274 OA
ATOM      9  C   UNL     1      -9.175   0.137  -2.788  0.00  0.00    +0.170 C 
ATOM     10  H   UNL     1     -12.249   0.555  -1.264  0.00  0.00    +0.149 HD
ENDROOT
BRANCH   1  11
ATOM     11  C   UNL     1      -6.548   0.253   0.016  0.00  0.00    +0.019 C 
BRANCH  11  15
ATOM     12  N   UNL     1      -3.421   2.866   1.129  0.00  0.00    -0.331 N 
ATOM     13  C   UNL     1      -3.151   1.421   1.148  0.00  0.00    +0.086 C 
ATOM     14  C   UNL     1      -4.477   0.658   1.203  0.00  0.00    -0.059 C 
ATOM     15  N   UNL     1      -5.297   1.023   0.040  0.00  0.00    +0.387 N 
ATOM     16  C   UNL     1      -5.567   2.467   0.021  0.00  0.00    -0.059 C 
ATOM     17  C   UNL     1      -4.242   3.230  -0.034  0.00  0.00    +0.086 C 
ATOM     18  H   UNL     1      -4.730   0.771  -0.869  0.00  0.00    -0.081 HD
BRANCH  12  23
ATOM     19  C   UNL     1      -0.157   4.226   0.121  0.00  0.00    +0.002 A 
ATOM     20  C   UNL     1       0.131   5.044   1.198  0.00  0.00    +0.003 A 
ATOM     21  C   UNL     1      -0.759   5.144   2.252  0.00  0.00    +0.040 A 
ATOM     22  C   UNL     1      -1.941   4.426   2.232  0.00  0.00    +0.144 A 
ATOM     23  C   UNL     1      -2.230   3.599   1.151  0.00  0.00    +0.065 A 
ATOM     24  C   UNL     1      -1.336   3.506   0.094  0.00  0.00    +0.026 A 
ATOM     25  F   UNL     1      -2.810   4.523   3.261  0.00  0.00    -0.204 F 
ENDBRANCH  12  23
ENDBRANCH  11  15
ENDBRANCH   1  11
BRANCH   9  26
ATOM     26  C   UNL     1      -9.103  -1.155  -3.606  0.00  0.00    +0.128 C 
BRANCH  26  27
ATOM     27  C   UNL     1      -7.669  -1.434  -3.978  0.00  0.00    +0.219 C 
ATOM     28  O   UNL     1      -6.792  -0.675  -3.624  0.00  0.00    -0.275 OA
ATOM     29  N   UNL     1      -7.363  -2.527  -4.704  0.00  0.00    -0.285 N 
ATOM     30  H   UNL     1      -8.164  -3.175  -5.089  0.00  0.00    +0.155 HD
BRANCH  29  31
ATOM     31  C   UNL     1      -6.024  -2.839  -4.968  0.00  0.00    +0.034 A 
ATOM     32  C   UNL     1      -5.616  -4.165  -5.023  0.00  0.00    +0.023 A 
ATOM     33  C   UNL     1      -4.295  -4.470  -5.284  0.00  0.00    +0.002 A 
ATOM     34  C   UNL     1      -3.378  -3.455  -5.491  0.00  0.00    +0.012 A 
ATOM     35  C   UNL     1      -3.781  -2.134  -5.437  0.00  0.00    +0.057 A 
ATOM     36  C   UNL     1      -5.103  -1.823  -5.182  0.00  0.00    +0.035 A 
BRANCH  35  37
ATOM     37  C   UNL     1      -2.779  -1.031  -5.664  0.00  0.00    +0.417 C 
ATOM     38  F   UNL     1      -1.519  -1.589  -5.907  0.00  0.00    -0.166 F 
ATOM     39  F   UNL     1      -3.170  -0.265  -6.767  0.00  0.00    -0.166 F 
ATOM     40  F   UNL     1      -2.716  -0.217  -4.528  0.00  0.00    -0.166 F 
ENDBRANCH  35  37
ENDBRANCH  29  31
ENDBRANCH  26  27
ENDBRANCH   9  26
TORSDOF 7
