REMARK  Name = ZINC13241875
REMARK  7 active torsions:
REMARK  status: ('A' for Active; 'I' for Inactive)
REMARK    1  A    between atoms: C_2  and  C_3
REMARK    2  A    between atoms: C_3  and  N_4
REMARK    3  A    between atoms: C_13  and  S_14
REMARK    4  A    between atoms: S_14  and  C_15
REMARK    5  A    between atoms: C_15  and  C_16
REMARK    6  A    between atoms: N_18  and  C_19
REMARK    7  A    between atoms: C_28  and  C_29
REMARK                            x       y       z     vdW  Elec       q    Type
REMARK                         _______ _______ _______ _____ _____    ______ ____
ROOT
ATOM      1  C   UNL     1       3.457   5.779  -0.046  0.00  0.00    +0.173 C 
ENDROOT
BRANCH   1   2
ATOM      2  C   UNL     1       4.085   7.148  -0.019  0.00  0.00    +0.228 C 
ATOM      3  O   UNL     1       5.292   7.261  -0.006  0.00  0.00    -0.275 OA
ATOM      4  N   UNL     1       3.305   8.247  -0.008  0.00  0.00    -0.284 N 
ATOM      5  H   UNL     1       2.342   8.159  -0.081  0.00  0.00    +0.155 HD
BRANCH   4   6
ATOM      6  C   UNL     1       3.883   9.511   0.106  0.00  0.00    +0.048 A 
ATOM      7  C   UNL     1       5.086   9.761  -0.489  0.00  0.00    +0.032 A 
ATOM      8  C   UNL     1       5.671  11.033  -0.383  0.00  0.00    -0.016 A 
ATOM      9  C   UNL     1       6.907  11.314  -0.992  0.00  0.00    +0.008 A 
ATOM     10  C   UNL     1       7.454  12.554  -0.867  0.00  0.00    +0.001 A 
ATOM     11  C   UNL     1       6.808  13.555  -0.143  0.00  0.00    +0.001 A 
ATOM     12  C   UNL     1       5.611  13.321   0.461  0.00  0.00    +0.008 A 
ATOM     13  C   UNL     1       5.013  12.052   0.355  0.00  0.00    -0.017 A 
ATOM     14  C   UNL     1       3.781  11.780   0.966  0.00  0.00    +0.025 A 
ATOM     15  C   UNL     1       3.220  10.519   0.842  0.00  0.00    +0.085 A 
BRANCH  15  16
ATOM     16  C   UNL     1       1.925  10.226   1.483  0.00  0.00    +0.388 C 
ATOM     17  O   UNL     1       1.478   9.097   1.462  0.00  0.00    -0.241 OA
ATOM     18  O   UNL     1       1.237  11.213   2.091  0.00  0.00    -0.241 OA
ENDBRANCH  15  16
ENDBRANCH   4   6
ENDBRANCH   1   2
BRANCH   1  19
ATOM     19  S   UNL     1       4.756   4.519  -0.054  0.00  0.00    -0.078 S 
BRANCH  19  29
ATOM     20  N   UNL     1       4.375   1.837  -0.100  0.00  0.00    -0.283 N 
ATOM     21  C   UNL     1       3.653   0.701  -0.125  0.00  0.00    +0.263 A 
ATOM     22  O   UNL     1       4.208  -0.385  -0.138  0.00  0.00    -0.267 OA
ATOM     23  C   UNL     1       2.226   0.787  -0.137  0.00  0.00    +0.076 A 
ATOM     24  C   UNL     1       1.252  -0.317  -0.165  0.00  0.00    -0.023 A 
ATOM     25  C   UNL     1      -0.048   0.020  -0.170  0.00  0.00    -0.004 A 
ATOM     26  S   UNL     1      -0.063   1.798  -0.141  0.00  0.00    -0.073 S 
ATOM     27  C   UNL     1       1.687   2.082  -0.120  0.00  0.00    +0.117 A 
ATOM     28  N   UNL     1       2.455   3.166  -0.096  0.00  0.00    -0.216 NA
ATOM     29  C   UNL     1       3.768   3.060  -0.086  0.00  0.00    +0.173 A 
ATOM     30  C   UNL     1      -0.947  -1.187  -0.195  0.00  0.00    +0.043 C 
ATOM     31  C   UNL     1      -0.036  -2.358   0.232  0.00  0.00    +0.010 C 
ATOM     32  C   UNL     1       1.354  -1.845  -0.192  0.00  0.00    +0.037 C 
BRANCH  20  33
ATOM     33  C   UNL     1       5.838   1.760  -0.088  0.00  0.00    +0.154 C 
BRANCH  33  35
ATOM     34  C   UNL     1       7.235   2.647  -1.882  0.00  0.00    +0.005 C 
ATOM     35  C   UNL     1       6.352   1.757  -1.504  0.00  0.00    -0.013 C 
ENDBRANCH  33  35
ENDBRANCH  20  33
ENDBRANCH  19  29
ENDBRANCH   1  19
TORSDOF 7
