REMARK  Name = ZINC33010948
REMARK  5 active torsions:
REMARK  status: ('A' for Active; 'I' for Inactive)
REMARK    1  A    between atoms: C_6  and  S_7
REMARK    2  A    between atoms: S_7  and  C_8
REMARK    3  A    between atoms: C_8  and  C_9
REMARK    4  A    between atoms: C_23  and  O_31
REMARK    5  A    between atoms: C_26  and  C_28
REMARK                            x       y       z     vdW  Elec       q    Type
REMARK                         _______ _______ _______ _____ _____    ______ ____
ROOT
ATOM      1  C   UNL     1       1.108   2.015   0.242  0.00  0.00    +0.142 A 
ATOM      2  N   UNL     1      -0.001   1.298   0.241  0.00  0.00    -0.216 NA
ATOM      3  C   UNL     1       0.002  -0.004   0.002  0.00  0.00    +0.134 A 
ATOM      4  C   UNL     1       1.239  -0.653  -0.263  0.00  0.00    +0.051 A 
ATOM      5  C   UNL     1       1.483  -2.075  -0.554  0.00  0.00    -0.025 A 
ATOM      6  C   UNL     1       2.757  -2.441  -0.771  0.00  0.00    -0.004 A 
ATOM      7  S   UNL     1       3.702  -0.943  -0.608  0.00  0.00    -0.073 S 
ATOM      8  C   UNL     1       2.376   0.175  -0.245  0.00  0.00    +0.114 A 
ATOM      9  N   UNL     1       2.284   1.468   0.003  0.00  0.00    -0.224 NA
ATOM     10  C   UNL     1       2.885  -3.914  -1.053  0.00  0.00    +0.043 C 
ATOM     11  C   UNL     1       1.553  -4.520  -0.561  0.00  0.00    +0.010 C 
ATOM     12  C   UNL     1       0.597  -3.318  -0.684  0.00  0.00    +0.037 C 
ATOM     13  N   UNL     1      -1.180  -0.723   0.010  0.00  0.00    -0.300 N 
ATOM     14  C   UNL     1      -1.591  -1.056   1.398  0.00  0.00    +0.138 C 
ATOM     15  C   UNL     1      -3.104  -1.355   1.258  0.00  0.00    +0.134 C 
ATOM     16  C   UNL     1      -3.566  -0.317   0.209  0.00  0.00    +0.064 C 
ATOM     17  C   UNL     1      -2.289   0.075  -0.558  0.00  0.00    +0.163 C 
ENDROOT
BRANCH  17  18
ATOM     18  C   UNL     1      -2.451  -0.242  -2.022  0.00  0.00    +0.231 C 
ATOM     19  O   UNL     1      -1.720  -1.052  -2.552  0.00  0.00    -0.274 OA
ATOM     20  N   UNL     1      -3.409   0.374  -2.743  0.00  0.00    -0.328 N 
ATOM     21  H   UNL     1      -3.528   0.143  -3.811  0.00  0.00    +0.145 HD
ATOM     22  H   UNL     1      -4.072   1.109  -2.262  0.00  0.00    +0.145 HD
ENDBRANCH  17  18
BRANCH  15  23
ATOM     23  O   UNL     1      -3.777  -1.149   2.502  0.00  0.00    -0.390 OA
ATOM     24  H   UNL     1      -4.862  -1.318   2.575  0.00  0.00    +0.210 HD
ENDBRANCH  15  23
BRANCH   1  25
ATOM     25  C   UNL     1       1.028   3.494   0.524  0.00  0.00    +0.150 C 
BRANCH  25  26
ATOM     26  S   UNL     1       1.193   3.780   2.307  0.00  0.00    -0.117 S 
BRANCH  26  32
ATOM     27  C   UNL     1       0.911   6.325   1.343  0.00  0.00    +0.016 A 
ATOM     28  C   UNL     1       0.818   7.697   1.475  0.00  0.00    +0.021 A 
ATOM     29  C   UNL     1       0.906   8.281   2.726  0.00  0.00    +0.041 A 
ATOM     30  C   UNL     1       1.081   7.493   3.850  0.00  0.00    +0.021 A 
ATOM     31  C   UNL     1       1.169   6.120   3.726  0.00  0.00    +0.016 A 
ATOM     32  C   UNL     1       1.081   5.531   2.470  0.00  0.00    +0.008 A 
ATOM     33 CL   UNL     1       0.795  10.006   2.887  0.00  0.00    -0.084 Cl
ENDBRANCH  26  32
ENDBRANCH  25  26
ENDBRANCH   1  25
TORSDOF 5
