REMARK  Name = ZINC22827661
REMARK  10 active torsions:
REMARK  status: ('A' for Active; 'I' for Inactive)
REMARK    1  A    between atoms: C_1  and  C_2
REMARK    2  A    between atoms: C_3  and  C_19
REMARK    3  A    between atoms: C_4  and  C_11
REMARK    4  A    between atoms: N_9  and  C_10
REMARK    5  A    between atoms: C_15  and  C_17
REMARK    6  A    between atoms: N_21  and  C_22
REMARK    7  A    between atoms: C_24  and  O_30
REMARK    8  A    between atoms: C_27  and  O_28
REMARK    9  A    between atoms: O_28  and  C_29
REMARK   10  A    between atoms: O_30  and  C_31
REMARK                            x       y       z     vdW  Elec       q    Type
REMARK                         _______ _______ _______ _____ _____    ______ ____
ROOT
ATOM      1  C   UNL     1       0.063   1.718  -0.025  0.00  0.00    +0.061 C 
ATOM      2  C   UNL     1       0.095   0.212  -0.084  0.00  0.00    +0.019 C 
ATOM      3  C   UNL     1      -1.065  -0.478  -0.048  0.00  0.00    +0.056 C 
ATOM      4  C   UNL     1      -0.988  -1.990  -0.110  0.00  0.00    +0.139 C 
ATOM      5  N   UNL     1       0.355  -2.587  -0.204  0.00  0.00    -0.315 N 
ATOM      6  C   UNL     1       1.422  -1.764  -0.230  0.00  0.00    +0.137 C 
ATOM      7  S   UNL     1       2.990  -2.443  -0.339  0.00  0.00    -0.018 S 
ATOM      8  N   UNL     1       1.296  -0.432  -0.178  0.00  0.00    -0.289 N 
ATOM      9  C   UNL     1       2.514   0.381  -0.218  0.00  0.00    +0.137 C 
ATOM     10  H   UNL     1       0.469  -3.549  -0.246  0.00  0.00    +0.149 HD
ENDROOT
BRANCH   4  11
ATOM     11  C   UNL     1      -1.654  -2.540   1.125  0.00  0.00    -0.021 A 
ATOM     12  C   UNL     1      -1.017  -2.452   2.350  0.00  0.00    +0.006 A 
ATOM     13  C   UNL     1      -1.621  -2.954   3.489  0.00  0.00    +0.002 A 
ATOM     14  C   UNL     1      -2.865  -3.546   3.410  0.00  0.00    +0.019 A 
ATOM     15  C   UNL     1      -3.513  -3.638   2.177  0.00  0.00    +0.052 A 
ATOM     16  C   UNL     1      -2.900  -3.124   1.032  0.00  0.00    +0.024 A 
BRANCH  15  17
ATOM     17  C   UNL     1      -4.804  -4.251   2.088  0.00  0.00    +0.099 C 
ATOM     18  N   UNL     1      -5.829  -4.737   2.017  0.00  0.00    -0.191 NA
ENDBRANCH  15  17
ENDBRANCH   4  11
BRANCH   3  19
ATOM     19  C   UNL     1      -2.311   0.188   0.044  0.00  0.00    +0.248 C 
ATOM     20  O   UNL     1      -2.992   0.347  -0.953  0.00  0.00    -0.270 OA
ATOM     21  N   UNL     1      -2.743   0.648   1.235  0.00  0.00    -0.279 N 
ATOM     22  H   UNL     1      -2.171   0.585   2.015  0.00  0.00    +0.155 HD
BRANCH  21  23
ATOM     23  C   UNL     1      -4.019   1.215   1.346  0.00  0.00    +0.079 A 
ATOM     24  C   UNL     1      -4.975   0.970   0.371  0.00  0.00    +0.072 A 
ATOM     25  C   UNL     1      -6.237   1.533   0.484  0.00  0.00    +0.122 A 
ATOM     26  C   UNL     1      -6.543   2.341   1.569  0.00  0.00    +0.049 A 
ATOM     27  C   UNL     1      -5.591   2.587   2.541  0.00  0.00    +0.051 A 
ATOM     28  C   UNL     1      -4.331   2.022   2.437  0.00  0.00    +0.141 A 
BRANCH  28  29
ATOM     29  O   UNL     1      -3.397   2.260   3.397  0.00  0.00    -0.493 OA
ATOM     30  C   UNL     1      -3.786   3.097   4.488  0.00  0.00    +0.277 C 
ENDBRANCH  28  29
BRANCH  25  31
ATOM     31  O   UNL     1      -7.175   1.293  -0.471  0.00  0.00    -0.495 OA
ATOM     32  C   UNL     1      -8.454   1.905  -0.292  0.00  0.00    +0.277 C 
ENDBRANCH  25  31
ENDBRANCH  21  23
ENDBRANCH   3  19
TORSDOF 6
