REMARK  Name = ZINC34716218
REMARK  10 active torsions:
REMARK  status: ('A' for Active; 'I' for Inactive)
REMARK    1  A    between atoms: C_1  and  C_2
REMARK    2  A    between atoms: C_2  and  N_3
REMARK    3  A    between atoms: C_4  and  C_36
REMARK    4  A    between atoms: C_5  and  C_32
REMARK    5  A    between atoms: C_6  and  C_11
REMARK    6  A    between atoms: C_14  and  N_17
REMARK    7  A    between atoms: C_18  and  C_20
REMARK    8  A    between atoms: C_23  and  C_26
REMARK    9  A    between atoms: C_32  and  O_34
REMARK   10  A    between atoms: O_34  and  C_35
REMARK                            x       y       z     vdW  Elec       q    Type
REMARK                         _______ _______ _______ _____ _____    ______ ____
ROOT
ATOM      1  C   UNL     1       2.067  -3.232  -3.918  0.00  0.00    -0.022 A 
ATOM      2  C   UNL     1       2.069  -4.184  -2.915  0.00  0.00    +0.007 A 
ATOM      3  C   UNL     1       2.315  -5.509  -3.219  0.00  0.00    +0.023 A 
ATOM      4  C   UNL     1       2.559  -5.884  -4.534  0.00  0.00    +0.034 A 
ATOM      5  C   UNL     1       2.556  -4.926  -5.538  0.00  0.00    +0.023 A 
ATOM      6  C   UNL     1       2.305  -3.603  -5.228  0.00  0.00    +0.007 A 
ENDROOT
BRANCH   1  10
ATOM      7  N   UNL     1       0.696  -0.840  -1.230  0.00  0.00    -0.286 N 
ATOM      8  C   UNL     1      -0.159  -1.145  -2.248  0.00  0.00    +0.021 C 
ATOM      9  C   UNL     1       0.301  -1.614  -3.429  0.00  0.00    +0.078 C 
ATOM     10  C   UNL     1       1.799  -1.788  -3.582  0.00  0.00    +0.141 C 
ATOM     11  N   UNL     1       2.634  -1.429  -2.424  0.00  0.00    -0.315 N 
ATOM     12  C   UNL     1       2.026  -0.968  -1.313  0.00  0.00    +0.138 C 
ATOM     13  S   UNL     1       2.985  -0.541   0.040  0.00  0.00    -0.018 S 
ATOM     14  C   UNL     1      -1.642  -0.958  -2.053  0.00  0.00    +0.061 C 
ATOM     15  H   UNL     1       3.599  -1.518  -2.461  0.00  0.00    +0.149 HD
BRANCH   7  17
ATOM     16  C   UNL     1      -0.306  -1.516   0.896  0.00  0.00    +0.025 C 
ATOM     17  C   UNL     1       0.127  -0.336   0.023  0.00  0.00    +0.109 C 
ENDBRANCH   7  17
BRANCH   9  18
ATOM     18  C   UNL     1      -0.584  -1.932  -4.484  0.00  0.00    +0.339 C 
ATOM     19  O   UNL     1      -1.783  -1.785  -4.338  0.00  0.00    -0.245 OA
BRANCH  18  20
ATOM     20  O   UNL     1      -0.099  -2.399  -5.654  0.00  0.00    -0.465 OA
ATOM     21  C   UNL     1      -1.050  -2.700  -6.677  0.00  0.00    +0.280 C 
ENDBRANCH  18  20
ENDBRANCH   9  18
ENDBRANCH   1  10
BRANCH   4  22
ATOM     22  N   UNL     1       2.809  -7.225  -4.845  0.00  0.00    -0.282 N 
ATOM     23  C   UNL     1       3.683  -7.538  -5.821  0.00  0.00    +0.248 C 
ATOM     24  O   UNL     1       4.195  -6.657  -6.485  0.00  0.00    -0.270 OA
ATOM     25  H   UNL     1       2.353  -7.929  -4.357  0.00  0.00    +0.155 HD
BRANCH  23  26
ATOM     26  C   UNL     1       4.019  -8.952  -6.086  0.00  0.00    +0.037 A 
ATOM     27  C   UNL     1       3.426  -9.965  -5.328  0.00  0.00    +0.013 A 
ATOM     28  C   UNL     1       3.740 -11.282  -5.575  0.00  0.00    +0.009 A 
ATOM     29  C   UNL     1       4.649 -11.606  -6.583  0.00  0.00    -0.018 A 
ATOM     30  C   UNL     1       5.241 -10.596  -7.340  0.00  0.00    +0.009 A 
ATOM     31  C   UNL     1       4.925  -9.278  -7.098  0.00  0.00    +0.013 A 
BRANCH  29  32
ATOM     32  C   UNL     1       4.986 -13.025  -6.848  0.00  0.00    -0.018 A 
ATOM     33  C   UNL     1       4.392 -14.038  -6.096  0.00  0.00    +0.008 A 
ATOM     34  C   UNL     1       4.710 -15.357  -6.348  0.00  0.00    +0.001 A 
ATOM     35  C   UNL     1       5.616 -15.676  -7.343  0.00  0.00    +0.000 A 
ATOM     36  C   UNL     1       6.209 -14.675  -8.092  0.00  0.00    +0.001 A 
ATOM     37  C   UNL     1       5.894 -13.353  -7.854  0.00  0.00    +0.008 A 
ENDBRANCH  29  32
ENDBRANCH  23  26
ENDBRANCH   4  22
TORSDOF 7
