REMARK  Name = ZINC22783320
REMARK  6 active torsions:
REMARK  status: ('A' for Active; 'I' for Inactive)
REMARK    1  A    between atoms: C_1  and  C_2
REMARK    2  A    between atoms: C_2  and  C_4
REMARK    3  A    between atoms: C_2  and  N_17
REMARK    4  A    between atoms: N_6  and  C_7
REMARK    5  A    between atoms: N_20  and  C_23
REMARK    6  A    between atoms: C_23  and  C_24
REMARK                            x       y       z     vdW  Elec       q    Type
REMARK                         _______ _______ _______ _____ _____    ______ ____
ROOT
ATOM      1  N   UNL     1      -1.297  -0.672  -0.156  0.00  0.00    -0.295 NA
ATOM      2  C   UNL     1      -1.789  -0.546  -1.535  0.00  0.00    +0.066 C 
ATOM      3  C   UNL     1      -3.112  -1.303  -1.673  0.00  0.00    -0.063 C 
ATOM      4  N   UNL     1      -4.094  -0.750  -0.731  0.00  0.00    +0.386 N 
ATOM      5  C   UNL     1      -3.599  -0.906   0.643  0.00  0.00    -0.063 C 
ATOM      6  C   UNL     1      -2.280  -0.145   0.800  0.00  0.00    +0.066 C 
ATOM      7  H   UNL     1      -4.234   0.230  -0.929  0.00  0.00    -0.081 HD
ENDROOT
BRANCH   1   9
ATOM      8  C   UNL     1      -0.207   1.510   0.060  0.00  0.00    +0.034 C 
ATOM      9  C   UNL     1       0.002  -0.004   0.002  0.00  0.00    +0.140 C 
BRANCH   9  10
ATOM     10  C   UNL     1       0.655  -0.470   1.278  0.00  0.00    +0.230 C 
ATOM     11  O   UNL     1       0.001  -1.057   2.114  0.00  0.00    -0.274 OA
ATOM     12  N   UNL     1       1.965  -0.235   1.490  0.00  0.00    -0.308 N 
ATOM     13  H   UNL     1       2.488   0.234   0.821  0.00  0.00    +0.149 HD
BRANCH  12  14
ATOM     14  C   UNL     1       2.599  -0.689   2.730  0.00  0.00    +0.035 C 
ATOM     15  C   UNL     1       2.474  -2.210   2.840  0.00  0.00    +0.029 C 
ATOM     16  C   UNL     1       3.136  -2.683   4.136  0.00  0.00    -0.008 C 
ATOM     17  C   UNL     1       4.616  -2.293   4.124  0.00  0.00    +0.007 C 
ATOM     18  C   UNL     1       4.741  -0.772   4.014  0.00  0.00    -0.008 C 
ATOM     19  C   UNL     1       4.078  -0.299   2.718  0.00  0.00    +0.029 C 
ATOM     20  C   UNL     1       4.049  -0.115   5.210  0.00  0.00    +0.007 C 
ATOM     21  C   UNL     1       2.570  -0.506   5.221  0.00  0.00    -0.008 C 
ATOM     22  C   UNL     1       2.445  -2.026   5.332  0.00  0.00    +0.007 C 
ATOM     23  C   UNL     1       1.907  -0.032   3.926  0.00  0.00    +0.029 C 
ENDBRANCH  12  14
ENDBRANCH   9  10
ENDBRANCH   1   9
BRANCH   4  24
ATOM     24  C   UNL     1      -5.368  -1.466  -0.876  0.00  0.00    -0.001 C 
BRANCH  24  25
ATOM     25  C   UNL     1      -6.410  -0.819   0.000  0.00  0.00    +0.117 A 
ATOM     26  N   UNL     1      -6.540  -1.256   1.241  0.00  0.00    -0.195 NA
ATOM     27  C   UNL     1      -7.449  -0.711   2.047  0.00  0.00    +0.288 A 
ATOM     28  O   UNL     1      -7.597  -1.145   3.323  0.00  0.00    -0.265 OA
ATOM     29  C   UNL     1      -8.239   0.310   1.551  0.00  0.00    +0.104 A 
ATOM     30  C   UNL     1      -8.090   0.768   0.223  0.00  0.00    +0.085 A 
ATOM     31  N   UNL     1      -7.132   0.146  -0.506  0.00  0.00    -0.233 NA
ATOM     32  C   UNL     1      -8.956   1.810  -0.154  0.00  0.00    +0.036 A 
ATOM     33  C   UNL     1      -9.846   2.303   0.728  0.00  0.00    +0.048 A 
ATOM     34  S   UNL     1      -9.541   1.327   2.191  0.00  0.00    -0.090 S 
ENDBRANCH  24  25
ENDBRANCH   4  24
TORSDOF 5
