REMARK  Name = ZINC33939919
REMARK  11 active torsions:
REMARK  status: ('A' for Active; 'I' for Inactive)
REMARK    1  A    between atoms: C_1  and  C_2
REMARK    2  A    between atoms: C_8  and  C_10
REMARK    3  A    between atoms: N_16  and  C_32
REMARK    4  A    between atoms: C_17  and  C_25
REMARK    5  A    between atoms: C_22  and  C_24
REMARK    6  A    between atoms: N_27  and  C_28
REMARK    7  A    between atoms: C_28  and  C_29
REMARK    8  A    between atoms: C_28  and  C_30
REMARK    9  A    between atoms: C_28  and  C_31
REMARK   10  A    between atoms: C_36  and  C_38
REMARK   11  A    between atoms: C_38  and  C_40
REMARK                            x       y       z     vdW  Elec       q    Type
REMARK                         _______ _______ _______ _____ _____    ______ ____
ROOT
ATOM      1  C   UNL     1      -3.646  -4.389  -0.006  0.00  0.00    +0.126 C 
ATOM      2  C   UNL     1      -5.106  -4.017   0.046  0.00  0.00    +0.128 C 
ATOM      3  C   UNL     1      -5.674  -2.665   0.190  0.00  0.00    +0.228 C 
ATOM      4  O   UNL     1      -5.203  -1.749   0.831  0.00  0.00    -0.275 OA
ATOM      5  N   UNL     1      -6.838  -2.639  -0.539  0.00  0.00    -0.256 N 
ATOM      6  C   UNL     1      -6.971  -3.910  -1.319  0.00  0.00    +0.203 C 
ATOM      7  C   UNL     1      -5.540  -4.334  -1.442  0.00  0.00    +0.128 C 
ATOM      8  C   UNL     1      -4.730  -3.458  -2.380  0.00  0.00    +0.009 C 
ATOM      9  C   UNL     1      -3.509  -3.972  -2.386  0.00  0.00    +0.007 C 
ATOM     10  C   UNL     1      -3.562  -5.139  -1.391  0.00  0.00    +0.098 C 
ATOM     11  O   UNL     1      -4.963  -5.611  -1.574  0.00  0.00    -0.355 OA
ATOM     12  C   UNL     1      -2.458  -6.189  -1.522  0.00  0.00    +0.047 C 
ENDROOT
BRANCH   1  20
ATOM     13  C   UNL     1       0.030   1.469  -0.215  0.00  0.00    +0.089 C 
ATOM     14  C   UNL     1      -0.045   0.029   0.223  0.00  0.00    +0.136 A 
ATOM     15  C   UNL     1      -1.079  -0.806   0.015  0.00  0.00    +0.091 A 
ATOM     16  C   UNL     1      -0.751  -2.059   0.579  0.00  0.00    +0.168 A 
ATOM     17  N   UNL     1       0.444  -1.963   1.104  0.00  0.00    -0.063 NA
ATOM     18  O   UNL     1       0.910  -0.644   0.883  0.00  0.00    -0.358 OA
ATOM     19  N   UNL     1      -1.558  -3.197   0.576  0.00  0.00    -0.267 N 
ATOM     20  C   UNL     1      -2.774  -3.159  -0.003  0.00  0.00    +0.225 C 
ATOM     21  O   UNL     1      -3.167  -2.136  -0.521  0.00  0.00    -0.275 OA
ATOM     22  H   UNL     1      -1.243  -4.016   0.991  0.00  0.00    +0.156 HD
ENDBRANCH   1  20
BRANCH   5  23
ATOM     23  C   UNL     1      -7.760  -1.586  -0.550  0.00  0.00    +0.038 A 
ATOM     24  C   UNL     1      -8.910  -1.678  -1.326  0.00  0.00    +0.023 A 
ATOM     25  C   UNL     1      -9.824  -0.641  -1.342  0.00  0.00    +0.002 A 
ATOM     26  C   UNL     1      -9.602   0.493  -0.588  0.00  0.00    +0.011 A 
ATOM     27  C   UNL     1      -8.449   0.596   0.196  0.00  0.00    +0.019 A 
ATOM     28  C   UNL     1      -7.528  -0.456   0.216  0.00  0.00    +0.035 A 
BRANCH  27  29
ATOM     29  C   UNL     1      -8.209   1.804   1.002  0.00  0.00    +0.160 C 
ATOM     30  O   UNL     1      -7.208   1.891   1.681  0.00  0.00    -0.292 OA
ATOM     31  C   UNL     1      -9.206   2.933   0.983  0.00  0.00    +0.091 C 
ENDBRANCH  27  29
ENDBRANCH   5  23
BRANCH   6  32
ATOM     32  C   UNL     1      -7.787  -4.925  -0.561  0.00  0.00    +0.238 C 
ATOM     33  O   UNL     1      -7.950  -4.801   0.634  0.00  0.00    -0.274 OA
ATOM     34  N   UNL     1      -8.337  -5.969  -1.212  0.00  0.00    -0.309 N 
ATOM     35  H   UNL     1      -8.207  -6.067  -2.168  0.00  0.00    +0.149 HD
BRANCH  34  36
ATOM     36  C   UNL     1      -9.131  -6.955  -0.475  0.00  0.00    +0.026 C 
ATOM     37  C   UNL     1     -10.325  -6.260   0.183  0.00  0.00    +0.031 C 
ATOM     38  C   UNL     1      -9.636  -8.029  -1.442  0.00  0.00    +0.031 C 
ATOM     39  C   UNL     1      -8.263  -7.607   0.603  0.00  0.00    +0.031 C 
ENDBRANCH  34  36
ENDBRANCH   6  32
TORSDOF 5
