REMARK  Name = ZINC25922484
REMARK  7 active torsions:
REMARK  status: ('A' for Active; 'I' for Inactive)
REMARK    1  A    between atoms: C_1  and  C_2
REMARK    2  A    between atoms: C_2  and  C_3
REMARK    3  A    between atoms: C_2  and  C_4
REMARK    4  A    between atoms: C_4  and  C_6
REMARK    5  A    between atoms: C_4  and  N_20
REMARK    6  A    between atoms: N_8  and  C_9
REMARK    7  A    between atoms: C_21  and  C_23
REMARK                            x       y       z     vdW  Elec       q    Type
REMARK                         _______ _______ _______ _____ _____    ______ ____
ROOT
ATOM      1  C   UNL     1      -2.220   7.306  -0.987  0.00  0.00    +0.162 C 
ENDROOT
BRANCH   1   2
ATOM      2  C   UNL     1      -1.941   7.669  -2.423  0.00  0.00    +0.238 C 
ATOM      3  O   UNL     1      -2.108   6.847  -3.299  0.00  0.00    -0.273 OA
ATOM      4  N   UNL     1      -1.506   8.906  -2.733  0.00  0.00    -0.283 N 
ATOM      5  H   UNL     1      -1.423   9.673  -1.948  0.00  0.00    +0.155 HD
BRANCH   4   6
ATOM      6  C   UNL     1      -1.160   9.216  -4.055  0.00  0.00    +0.051 A 
ATOM      7  C   UNL     1      -1.789   8.567  -5.108  0.00  0.00    +0.073 A 
ATOM      8  C   UNL     1      -1.450   8.876  -6.416  0.00  0.00    +0.164 A 
ATOM      9  C   UNL     1      -0.473   9.832  -6.671  0.00  0.00    +0.163 A 
ATOM     10  C   UNL     1       0.158  10.475  -5.617  0.00  0.00    +0.066 A 
ATOM     11  C   UNL     1      -0.183  10.169  -4.312  0.00  0.00    +0.043 A 
ATOM     12 BR   UNL     1       0.681  11.048  -2.878  0.00  0.00    -0.048 Br
ATOM     13  O   UNL     1      -0.127  10.150  -7.949  0.00  0.00    -0.485 OA
ATOM     14  C   UNL     1      -0.512   9.223  -8.970  0.00  0.00    +0.270 C 
ATOM     15  C   UNL     1      -1.977   8.830  -8.734  0.00  0.00    +0.270 C 
ATOM     16  O   UNL     1      -2.077   8.232  -7.438  0.00  0.00    -0.485 OA
ENDBRANCH   4   6
ENDBRANCH   1   2
BRANCH   1  17
ATOM     17  N   UNL     1      -2.184   5.849  -0.835  0.00  0.00    -0.303 N 
ATOM     18  C   UNL     1      -1.902   5.303   0.364  0.00  0.00    +0.220 C 
ATOM     19  O   UNL     1      -1.677   6.018   1.318  0.00  0.00    -0.275 OA
ATOM     20  H   UNL     1      -2.388   5.201  -1.700  0.00  0.00    +0.149 HD
BRANCH  18  21
ATOM     21  C   UNL     1      -1.866   3.805   0.520  0.00  0.00    +0.048 C 
ATOM     22  C   UNL     1      -0.802   3.221  -0.412  0.00  0.00    +0.019 C 
ATOM     23  C   UNL     1      -0.765   1.699  -0.254  0.00  0.00    -0.009 C 
ATOM     24  C   UNL     1      -0.424   1.345   1.195  0.00  0.00    +0.007 C 
ATOM     25  C   UNL     1      -1.487   1.929   2.127  0.00  0.00    -0.009 C 
ATOM     26  C   UNL     1      -1.524   3.451   1.969  0.00  0.00    +0.019 C 
ATOM     27  C   UNL     1      -2.856   1.346   1.768  0.00  0.00    +0.007 C 
ATOM     28  C   UNL     1      -3.197   1.700   0.319  0.00  0.00    -0.009 C 
ATOM     29  C   UNL     1      -2.134   1.116  -0.613  0.00  0.00    +0.007 C 
ATOM     30  C   UNL     1      -3.234   3.221   0.161  0.00  0.00    +0.019 C 
ENDBRANCH  18  21
ENDBRANCH   1  17
BRANCH   1  32
ATOM     31  C   UNL     1      -4.674   7.108  -1.409  0.00  0.00    +0.009 C 
ATOM     32  C   UNL     1      -3.602   7.827  -0.588  0.00  0.00    +0.012 C 
ATOM     33  C   UNL     1      -3.837   7.563   0.901  0.00  0.00    +0.009 C 
ENDBRANCH   1  32
TORSDOF 5
