REMARK  Name = ZINC63010006
REMARK  3 active torsions:
REMARK  status: ('A' for Active; 'I' for Inactive)
REMARK    1  A    between atoms: C_6  and  C_7
REMARK    2  A    between atoms: C_9  and  C_12
REMARK    3  A    between atoms: C_15  and  N_19
REMARK                            x       y       z     vdW  Elec       q    Type
REMARK                         _______ _______ _______ _____ _____    ______ ____
ROOT
ATOM      1  C   UNL     1      -1.272  -0.766   0.011  0.00  0.00    +0.202 A 
ATOM      2  N   UNL     1      -1.381  -2.104   0.010  0.00  0.00    -0.187 NA
ATOM      3  C   UNL     1      -2.649  -2.449   0.019  0.00  0.00    +0.259 A 
ATOM      4  O   UNL     1      -3.390  -1.327   0.026  0.00  0.00    -0.332 OA
ATOM      5  N   UNL     1      -2.474  -0.242   0.026  0.00  0.00    -0.056 NA
ENDROOT
BRANCH   1  11
ATOM      6  C   UNL     1      -0.017   1.389   0.010  0.00  0.00    +0.013 A 
ATOM      7  C   UNL     1       1.170   2.093   0.002  0.00  0.00    +0.016 A 
ATOM      8  C   UNL     1       2.378   1.417  -0.013  0.00  0.00    +0.018 A 
ATOM      9  C   UNL     1       2.402   0.033  -0.022  0.00  0.00    +0.016 A 
ATOM     10  C   UNL     1       1.220  -0.680  -0.014  0.00  0.00    +0.013 A 
ATOM     11  C   UNL     1       0.002  -0.004   0.002  0.00  0.00    +0.023 A 
ATOM     12 BR   UNL     1       4.001   2.388  -0.024  0.00  0.00    -0.050 Br
ENDBRANCH   1  11
BRANCH   3  13
ATOM     13  C   UNL     1      -3.170  -3.830   0.021  0.00  0.00    +0.042 A 
ATOM     14  C   UNL     1      -2.285  -4.912   0.018  0.00  0.00    +0.015 A 
ATOM     15  C   UNL     1      -2.773  -6.199   0.020  0.00  0.00    +0.026 A 
ATOM     16  C   UNL     1      -4.145  -6.425   0.024  0.00  0.00    +0.060 A 
ATOM     17  C   UNL     1      -5.031  -5.350   0.026  0.00  0.00    +0.145 A 
ATOM     18  C   UNL     1      -4.548  -4.059   0.031  0.00  0.00    +0.053 A 
ATOM     19  F   UNL     1      -6.363  -5.572   0.030  0.00  0.00    -0.204 F 
BRANCH  16  20
ATOM     20  N   UNL     1      -4.636  -7.730   0.025  0.00  0.00    -0.356 N 
ATOM     21  H   UNL     1      -4.020  -8.480   0.023  0.00  0.00    +0.142 HD
ATOM     22  H   UNL     1      -5.593  -7.889   0.028  0.00  0.00    +0.142 HD
ENDBRANCH  16  20
ENDBRANCH   3  13
TORSDOF 3
