REMARK  Name = ZINC64104269
REMARK  7 active torsions:
REMARK  status: ('A' for Active; 'I' for Inactive)
REMARK    1  A    between atoms: C_3  and  C_6
REMARK    2  A    between atoms: C_6  and  C_7
REMARK    3  A    between atoms: C_7  and  N_8
REMARK    4  A    between atoms: C_12  and  C_14
REMARK    5  A    between atoms: C_14  and  O_15
REMARK    6  A    between atoms: O_15  and  C_16
REMARK    7  A    between atoms: C_16  and  C_18
REMARK                            x       y       z     vdW  Elec       q    Type
REMARK                         _______ _______ _______ _____ _____    ______ ____
ROOT
ATOM      1  C   UNL     1       9.611   3.915   3.706  0.00  0.00    +0.328 C 
ENDROOT
BRANCH   1   6
ATOM      2  N   UNL     1       5.633   2.506   1.403  0.00  0.00    -0.299 N 
ATOM      3  C   UNL     1       6.279   2.728   2.565  0.00  0.00    +0.306 C 
ATOM      4  O   UNL     1       5.717   2.517   3.623  0.00  0.00    -0.252 OA
ATOM      5  N   UNL     1       7.547   3.184   2.555  0.00  0.00    -0.237 N 
ATOM      6  C   UNL     1       8.193   3.406   3.717  0.00  0.00    +0.258 C 
ATOM      7  O   UNL     1       7.633   3.196   4.772  0.00  0.00    -0.272 OA
ATOM      8  H   UNL     1       6.082   2.674   0.560  0.00  0.00    +0.150 HD
ATOM      9  H   UNL     1       7.995   3.352   1.712  0.00  0.00    +0.159 HD
BRANCH   2  10
ATOM     10  C   UNL     1       4.255   2.011   1.414  0.00  0.00    +0.111 C 
BRANCH  10  11
ATOM     11  C   UNL     1       3.761   1.845  -0.024  0.00  0.00    +0.061 C 
BRANCH  11  14
ATOM     12  C   UNL     1      -0.016   1.351   0.009  0.00  0.00    +0.008 A 
ATOM     13  C   UNL     1       1.183   2.038   0.002  0.00  0.00    +0.011 A 
ATOM     14  C   UNL     1       2.343   1.336  -0.013  0.00  0.00    -0.009 A 
ATOM     15  S   UNL     1       1.754  -0.349  -0.017  0.00  0.00    -0.102 S 
ATOM     16  C   UNL     1       0.002  -0.004   0.002  0.00  0.00    +0.045 A 
ENDBRANCH  11  14
ENDBRANCH  10  11
ENDBRANCH   2  10
ENDBRANCH   1   6
BRANCH   1  17
ATOM     17  O   UNL     1      10.072   4.070   5.050  0.00  0.00    -0.453 OA
BRANCH  17  18
ATOM     18  C   UNL     1      11.326   4.519   5.216  0.00  0.00    +0.336 C 
ATOM     19  O   UNL     1      12.010   4.773   4.252  0.00  0.00    -0.248 OA
BRANCH  18  20
ATOM     20  C   UNL     1      11.882   4.707   6.604  0.00  0.00    +0.231 C 
ATOM     21  C   UNL     1      11.930   3.381   7.330  0.00  0.00    +0.061 C 
ATOM     22  C   UNL     1      13.237   3.161   7.624  0.00  0.00    +0.016 A 
ATOM     23  C   UNL     1      13.930   2.067   8.310  0.00  0.00    +0.026 A 
ATOM     24  C   UNL     1      15.275   2.130   8.456  0.00  0.00    +0.019 A 
ATOM     25  C   UNL     1      16.018   3.213   7.967  0.00  0.00    +0.017 A 
ATOM     26  C   UNL     1      15.449   4.256   7.325  0.00  0.00    +0.027 A 
ATOM     27  C   UNL     1      14.043   4.293   7.118  0.00  0.00    +0.045 A 
ATOM     28  N   UNL     1      13.269   5.180   6.534  0.00  0.00    -0.367 N 
ATOM     29 BR   UNL     1      16.173   0.721   9.340  0.00  0.00    -0.050 Br
ATOM     30 CL   UNL     1      10.587   2.349   7.711  0.00  0.00    -0.085 Cl
ATOM     31  H   UNL     1      13.564   6.008   6.125  0.00  0.00    +0.161 HD
ENDBRANCH  18  20
ENDBRANCH  17  18
ENDBRANCH   1  17
TORSDOF 7
