REMARK  Name = ZINC08566412
REMARK  9 active torsions:
REMARK  status: ('A' for Active; 'I' for Inactive)
REMARK    1  A    between atoms: C_1  and  O_2
REMARK    2  A    between atoms: O_2  and  C_3
REMARK    3  A    between atoms: C_5  and  C_18
REMARK    4  A    between atoms: C_8  and  O_9
REMARK    5  A    between atoms: O_9  and  C_10
REMARK    6  A    between atoms: C_10  and  C_11
REMARK    7  A    between atoms: C_21  and  C_32
REMARK    8  A    between atoms: C_27  and  N_31
REMARK    9  A    between atoms: C_28  and  C_29
REMARK                            x       y       z     vdW  Elec       q    Type
REMARK                         _______ _______ _______ _____ _____    ______ ____
ROOT
ATOM      1  C   UNL     1       2.443   0.490  -4.285  0.00  0.00    +0.102 C 
ATOM      2  C   UNL     1       1.854   0.016  -5.588  0.00  0.00    +0.054 A 
ATOM      3  C   UNL     1       0.563   0.197  -6.094  0.00  0.00    +0.100 A 
ATOM      4  N   UNL     1       0.502  -0.394  -7.272  0.00  0.00    -0.171 NA
ATOM      5  N   UNL     1       1.755  -0.966  -7.545  0.00  0.00    -0.246 N 
ATOM      6  H   UNL     1       1.993  -1.463  -8.344  0.00  0.00    +0.192 HD
ATOM      7  C   UNL     1       2.569  -0.703  -6.502  0.00  0.00    +0.223 A 
ATOM      8  O   UNL     1       3.868  -1.046  -6.311  0.00  0.00    -0.423 OA
ATOM      9  C   UNL     1       4.536  -0.430  -5.314  0.00  0.00    +0.200 C 
ATOM     10  C   UNL     1       3.938   0.300  -4.345  0.00  0.00    +0.098 C 
ENDROOT
BRANCH   1  13
ATOM     11  C   UNL     1       0.727  -0.417  -1.043  0.00  0.00    +0.162 A 
ATOM     12  C   UNL     1       1.252   0.323  -2.090  0.00  0.00    +0.054 A 
ATOM     13  C   UNL     1       1.873  -0.317  -3.147  0.00  0.00    -0.031 A 
ATOM     14  C   UNL     1       1.972  -1.696  -3.161  0.00  0.00    +0.008 A 
ATOM     15  C   UNL     1       1.451  -2.440  -2.120  0.00  0.00    +0.050 A 
ATOM     16  C   UNL     1       0.832  -1.805  -1.055  0.00  0.00    +0.162 A 
BRANCH  11  18
ATOM     17  C   UNL     1       0.045   1.637  -0.058  0.00  0.00    +0.277 C 
ATOM     18  O   UNL     1       0.116   0.211  -0.003  0.00  0.00    -0.491 OA
ENDBRANCH  11  18
BRANCH  16  19
ATOM     19  O   UNL     1       0.324  -2.535  -0.027  0.00  0.00    -0.484 OA
BRANCH  19  20
ATOM     20  C   UNL     1       0.468  -3.955  -0.106  0.00  0.00    +0.264 C 
BRANCH  20  21
ATOM     21  C   UNL     1      -0.150  -4.591   1.112  0.00  0.00    -0.010 A 
ATOM     22  C   UNL     1       0.615  -4.803   2.244  0.00  0.00    +0.010 A 
ATOM     23  C   UNL     1       0.049  -5.387   3.361  0.00  0.00    +0.039 A 
ATOM     24  C   UNL     1      -1.284  -5.759   3.347  0.00  0.00    +0.123 A 
ATOM     25  C   UNL     1      -2.049  -5.546   2.213  0.00  0.00    +0.039 A 
ATOM     26  C   UNL     1      -1.483  -4.958   1.098  0.00  0.00    +0.010 A 
ATOM     27  F   UNL     1      -1.839  -6.330   4.439  0.00  0.00    -0.205 F 
ENDBRANCH  20  21
ENDBRANCH  19  20
ENDBRANCH  16  19
ENDBRANCH   1  13
BRANCH   3  28
ATOM     28  C   UNL     1      -0.543   0.924  -5.423  0.00  0.00    +0.003 A 
ATOM     29  C   UNL     1      -1.835   0.401  -5.440  0.00  0.00    +0.010 A 
ATOM     30  C   UNL     1      -2.860   1.082  -4.815  0.00  0.00    +0.001 A 
ATOM     31  C   UNL     1      -2.607   2.281  -4.173  0.00  0.00    +0.000 A 
ATOM     32  C   UNL     1      -1.327   2.804  -4.154  0.00  0.00    +0.001 A 
ATOM     33  C   UNL     1      -0.293   2.129  -4.770  0.00  0.00    +0.010 A 
ENDBRANCH   3  28
BRANCH   9  34
ATOM     34  N   UNL     1       5.903  -0.550  -5.281  0.00  0.00    -0.328 N 
ATOM     35  H   UNL     1       6.361  -1.067  -5.963  0.00  0.00    +0.145 HD
ATOM     36  H   UNL     1       6.411  -0.118  -4.577  0.00  0.00    +0.145 HD
ENDBRANCH   9  34
BRANCH  10  37
ATOM     37  C   UNL     1       4.752   0.913  -3.340  0.00  0.00    +0.101 C 
ATOM     38  N   UNL     1       5.398   1.400  -2.542  0.00  0.00    -0.191 NA
ENDBRANCH  10  37
TORSDOF 8
