REMARK  Name = ZINC21263410
REMARK  15 active torsions:
REMARK  status: ('A' for Active; 'I' for Inactive)
REMARK    1  A    between atoms: C_1  and  C_2
REMARK    2  A    between atoms: C_2  and  C_4
REMARK    3  A    between atoms: C_2  and  N_10
REMARK    4  A    between atoms: N_10  and  C_11
REMARK    5  A    between atoms: N_10  and  C_21
REMARK    6  A    between atoms: C_11  and  C_12
REMARK    7  A    between atoms: C_15  and  N_18
REMARK    8  A    between atoms: N_18  and  C_19
REMARK    9  A    between atoms: N_18  and  C_20
REMARK   10  A    between atoms: C_21  and  N_23
REMARK   11  A    between atoms: N_23  and  C_24
REMARK   12  A    between atoms: C_26  and  C_32
REMARK   13  A    between atoms: C_26  and  C_33
REMARK   14  A    between atoms: C_28  and  C_30
REMARK   15  A    between atoms: C_28  and  C_31
REMARK                            x       y       z     vdW  Elec       q    Type
REMARK                         _______ _______ _______ _____ _____    ______ ____
ROOT
ATOM      1  N   UNL     1      -1.968   3.681  -2.222  0.00  0.00    -0.302 N 
ENDROOT
BRANCH   1   3
ATOM      2  C   UNL     1      -2.635   3.400  -4.558  0.00  0.00    +0.033 C 
ATOM      3  C   UNL     1      -2.165   2.693  -3.285  0.00  0.00    +0.103 C 
BRANCH   3   4
ATOM      4  C   UNL     1      -3.206   1.692  -2.853  0.00  0.00    -0.027 A 
ATOM      5  C   UNL     1      -4.373   2.124  -2.251  0.00  0.00    +0.005 A 
ATOM      6  C   UNL     1      -5.330   1.207  -1.859  0.00  0.00    +0.000 A 
ATOM      7  C   UNL     1      -5.115  -0.144  -2.061  0.00  0.00    +0.000 A 
ATOM      8  C   UNL     1      -3.946  -0.577  -2.658  0.00  0.00    +0.000 A 
ATOM      9  C   UNL     1      -2.991   0.341  -3.054  0.00  0.00    +0.005 A 
ENDBRANCH   3   4
ENDBRANCH   1   3
BRANCH   1  10
ATOM     10  C   UNL     1      -1.433   3.306  -1.043  0.00  0.00    +0.134 C 
ATOM     11  S   UNL     1      -1.333   4.426   0.247  0.00  0.00    -0.019 S 
BRANCH  10  12
ATOM     12  N   UNL     1      -0.977   2.048  -0.880  0.00  0.00    -0.324 N 
ATOM     13  H   UNL     1      -1.115   1.305  -1.680  0.00  0.00    +0.148 HD
BRANCH  12  14
ATOM     14  C   UNL     1      -0.295   1.670   0.364  0.00  0.00    +0.069 C 
ATOM     15  C   UNL     1       1.192   2.001   0.244  0.00  0.00    +0.009 C 
ATOM     16  C   UNL     1       1.937   1.587   1.511  0.00  0.00    -0.072 C 
ATOM     17  N   UNL     1       1.628   0.238   1.938  0.00  0.00    +0.386 N 
ATOM     18  C   UNL     1       0.265  -0.251   1.869  0.00  0.00    -0.072 C 
ATOM     19  C   UNL     1      -0.436   0.161   0.575  0.00  0.00    +0.009 C 
ATOM     20  C   UNL     1      -0.559   0.214   3.074  0.00  0.00    -0.010 C 
ATOM     21  C   UNL     1       0.304  -1.794   1.905  0.00  0.00    -0.010 C 
ATOM     22  C   UNL     1       1.653   2.601   2.626  0.00  0.00    -0.010 C 
ATOM     23  C   UNL     1       3.450   1.659   1.205  0.00  0.00    -0.010 C 
ATOM     24  H   UNL     1       2.198  -0.479   1.330  0.00  0.00    -0.084 HD
ATOM     25  H   UNL     1       1.899   0.118   2.998  0.00  0.00    -0.084 HD
ENDBRANCH  12  14
ENDBRANCH  10  12
ENDBRANCH   1  10
BRANCH   1  26
ATOM     26  C   UNL     1      -2.352   5.078  -2.440  0.00  0.00    +0.142 C 
BRANCH  26  27
ATOM     27  C   UNL     1      -1.150   5.864  -2.896  0.00  0.00    -0.030 A 
ATOM     28  C   UNL     1      -0.253   6.356  -1.965  0.00  0.00    +0.007 A 
ATOM     29  C   UNL     1       0.852   7.072  -2.380  0.00  0.00    +0.023 A 
ATOM     30  C   UNL     1       1.058   7.308  -3.733  0.00  0.00    +0.029 A 
ATOM     31  C   UNL     1       0.152   6.817  -4.665  0.00  0.00    +0.023 A 
ATOM     32  C   UNL     1      -0.949   6.097  -4.244  0.00  0.00    +0.007 A 
BRANCH  30  33
ATOM     33  N   UNL     1       2.172   8.036  -4.156  0.00  0.00    -0.336 N 
ATOM     34  C   UNL     1       2.387   8.283  -5.584  0.00  0.00    +0.129 C 
ATOM     35  C   UNL     1       3.126   8.552  -3.171  0.00  0.00    +0.129 C 
ENDBRANCH  30  33
ENDBRANCH  26  27
ENDBRANCH   1  26
TORSDOF 8
