REMARK  Name = ZINC04052991
REMARK  4 active torsions:
REMARK  status: ('A' for Active; 'I' for Inactive)
REMARK    1  A    between atoms: C_3  and  C_6
REMARK    2  A    between atoms: C_10  and  C_13
REMARK    3  A    between atoms: C_18  and  C_19
REMARK    4  A    between atoms: N_21  and  N_22
REMARK                            x       y       z     vdW  Elec       q    Type
REMARK                         _______ _______ _______ _____ _____    ______ ____
ROOT
ATOM      1  C   UNL     1      -2.701   3.239   4.731  0.00  0.00    +0.062 A 
ATOM      2  C   UNL     1      -2.035   2.671   3.562  0.00  0.00    +0.089 A 
ATOM      3  C   UNL     1      -1.529   3.619   2.648  0.00  0.00    +0.040 A 
ATOM      4  C   UNL     1      -0.869   3.235   1.496  0.00  0.00    +0.031 A 
ATOM      5  C   UNL     1      -0.722   1.881   1.250  0.00  0.00    +0.074 A 
ATOM      6  C   UNL     1      -1.235   0.980   2.174  0.00  0.00    +0.123 A 
ATOM      7  N   UNL     1      -1.851   1.370   3.259  0.00  0.00    -0.253 NA
ATOM      8  S   UNL     1      -1.948   5.187   3.363  0.00  0.00    -0.081 S 
ATOM      9  C   UNL     1      -2.773   4.618   4.836  0.00  0.00    +0.088 A 
ENDROOT
BRANCH   1  12
ATOM     10  C   UNL     1      -3.688   1.335   7.693  0.00  0.00    +0.042 A 
ATOM     11  C   UNL     1      -2.859   2.281   7.063  0.00  0.00    +0.050 A 
ATOM     12  C   UNL     1      -3.278   2.370   5.768  0.00  0.00    +0.138 A 
ATOM     13  O   UNL     1      -4.317   1.527   5.607  0.00  0.00    -0.463 OA
ATOM     14  C   UNL     1      -4.564   0.896   6.766  0.00  0.00    +0.196 A 
ENDBRANCH   1  12
BRANCH   5  15
ATOM     15  C   UNL     1      -0.017   1.395   0.010  0.00  0.00    +0.419 C 
ATOM     16  F   UNL     1       0.002  -0.004   0.002  0.00  0.00    -0.166 F 
ATOM     17  F   UNL     1       1.296   1.879  -0.000  0.00  0.00    -0.166 F 
ATOM     18  F   UNL     1      -0.694   1.858  -1.124  0.00  0.00    -0.166 F 
ENDBRANCH   5  15
BRANCH   9  19
ATOM     19  C   UNL     1      -3.383   5.417   5.902  0.00  0.00    +0.265 C 
ATOM     20  O   UNL     1      -3.912   4.866   6.849  0.00  0.00    -0.268 OA
ATOM     21  N   UNL     1      -3.358   6.763   5.834  0.00  0.00    -0.249 N 
ATOM     22  H   UNL     1      -2.936   7.203   5.079  0.00  0.00    +0.169 HD
BRANCH  21  23
ATOM     23  N   UNL     1      -3.926   7.508   6.827  0.00  0.00    -0.254 NA
ATOM     24  H   UNL     1      -3.830   8.495   6.640  0.00  0.00    +0.140 HD
ATOM     25  H   UNL     1      -4.895   7.258   6.958  0.00  0.00    +0.140 HD
ENDBRANCH  21  23
ENDBRANCH   9  19
TORSDOF 4
