REMARK  Name = ZINC23078218
REMARK  5 active torsions:
REMARK  status: ('A' for Active; 'I' for Inactive)
REMARK    1  A    between atoms: C_8  and  C_28
REMARK    2  A    between atoms: N_10  and  C_12
REMARK    3  A    between atoms: C_12  and  C_13
REMARK    4  A    between atoms: C_15  and  C_18
REMARK    5  A    between atoms: C_22  and  C_24
REMARK                            x       y       z     vdW  Elec       q    Type
REMARK                         _______ _______ _______ _____ _____    ______ ____
ROOT
ATOM      1  C   UNL     1      -0.005   1.187  -0.051  0.00  0.00    +0.000 A 
ATOM      2  C   UNL     1       1.097   1.882   0.412  0.00  0.00    +0.000 A 
ATOM      3  C   UNL     1       1.021   3.247   0.597  0.00  0.00    +0.002 A 
ATOM      4  C   UNL     1      -0.156   3.928   0.319  0.00  0.00    -0.061 A 
ATOM      5  C   UNL     1      -1.253   3.235  -0.145  0.00  0.00    -0.047 A 
ATOM      6  C   UNL     1      -1.174   1.863  -0.334  0.00  0.00    +0.004 A 
ATOM      7  C   UNL     1      -2.550   3.931  -0.467  0.00  0.00    +0.029 C 
ATOM      8  C   UNL     1      -2.572   5.317   0.178  0.00  0.00    +0.024 C 
ATOM      9  N   UNL     1      -1.325   6.015  -0.172  0.00  0.00    +0.396 N 
ATOM     10  C   UNL     1      -0.192   5.417   0.541  0.00  0.00    -0.041 C 
ATOM     11  H   UNL     1      -1.151   5.902  -1.252  0.00  0.00    -0.080 HD
ENDROOT
BRANCH   8  12
ATOM     12  C   UNL     1      -3.752   6.101  -0.337  0.00  0.00    +0.197 C 
ATOM     13  O   UNL     1      -3.665   6.714  -1.380  0.00  0.00    -0.278 OA
ATOM     14  N   UNL     1      -4.905   6.120   0.361  0.00  0.00    -0.331 N 
ATOM     15  H   UNL     1      -5.766   6.692  -0.015  0.00  0.00    +0.145 HD
ATOM     16  H   UNL     1      -4.985   5.564   1.307  0.00  0.00    +0.145 HD
ENDBRANCH   8  12
BRANCH   9  17
ATOM     17  C   UNL     1      -1.428   7.452   0.114  0.00  0.00    +0.023 C 
BRANCH  17  18
ATOM     18  C   UNL     1      -0.348   8.192  -0.633  0.00  0.00    +0.211 A 
ATOM     19  N   UNL     1      -0.438   8.686  -1.843  0.00  0.00    -0.193 NA
ATOM     20  C   UNL     1       0.761   9.258  -2.092  0.00  0.00    +0.202 A 
ATOM     21  N   UNL     1       1.506   9.071  -1.033  0.00  0.00    -0.056 NA
ATOM     22  O   UNL     1       0.883   8.462  -0.189  0.00  0.00    -0.340 OA
BRANCH  20  23
ATOM     23  C   UNL     1       1.162   9.959  -3.337  0.00  0.00    +0.023 A 
ATOM     24  C   UNL     1       0.260  10.078  -4.394  0.00  0.00    +0.012 A 
ATOM     25  C   UNL     1       0.636  10.735  -5.547  0.00  0.00    +0.001 A 
ATOM     26  C   UNL     1       1.908  11.267  -5.660  0.00  0.00    +0.012 A 
ATOM     27  C   UNL     1       2.808  11.148  -4.617  0.00  0.00    +0.055 A 
ATOM     28  C   UNL     1       2.441  10.497  -3.457  0.00  0.00    +0.024 A 
BRANCH  27  29
ATOM     29  C   UNL     1       4.192  11.730  -4.748  0.00  0.00    +0.417 C 
ATOM     30  F   UNL     1       5.052  10.770  -5.291  0.00  0.00    -0.166 F 
ATOM     31  F   UNL     1       4.151  12.848  -5.588  0.00  0.00    -0.166 F 
ATOM     32  F   UNL     1       4.659  12.112  -3.485  0.00  0.00    -0.166 F 
ENDBRANCH  27  29
ENDBRANCH  20  23
ENDBRANCH  17  18
ENDBRANCH   9  17
TORSDOF 5
