REMARK  Name = ZINC61603837
REMARK  4 active torsions:
REMARK  status: ('A' for Active; 'I' for Inactive)
REMARK    1  A    between atoms: C_6  and  N_7
REMARK    2  A    between atoms: N_10  and  C_11
REMARK    3  A    between atoms: C_11  and  C_12
REMARK    4  A    between atoms: N_18  and  C_21
REMARK                            x       y       z     vdW  Elec       q    Type
REMARK                         _______ _______ _______ _____ _____    ______ ____
ROOT
ATOM      1  C   UNL     1      -2.324  -4.208  -0.312  0.00  0.00    +0.201 C 
ENDROOT
BRANCH   1   2
ATOM      2  C   UNL     1      -3.738  -4.722  -0.401  0.00  0.00    +0.233 C 
ATOM      3  O   UNL     1      -4.668  -3.945  -0.368  0.00  0.00    -0.274 OA
ATOM      4  N   UNL     1      -3.968  -6.045  -0.517  0.00  0.00    -0.302 N 
ATOM      5  C   UNL     1      -2.815  -6.968  -0.548  0.00  0.00    +0.106 C 
ATOM      6  C   UNL     1      -3.091  -8.226   0.295  0.00  0.00    +0.000 C 
ATOM      7  C   UNL     1      -3.821  -7.834   1.561  0.00  0.00    -0.077 C 
ATOM      8  N   UNL     1      -5.261  -7.957   1.344  0.00  0.00    +0.383 N 
ATOM      9  C   UNL     1      -5.883  -6.806   0.811  0.00  0.00    -0.059 C 
ATOM     10  C   UNL     1      -5.336  -6.511  -0.600  0.00  0.00    +0.089 C 
ATOM     11  H   UNL     1      -5.423  -8.727   0.714  0.00  0.00    -0.081 HD
BRANCH   8  12
ATOM     12  C   UNL     1      -5.897  -8.274   2.629  0.00  0.00    -0.069 C 
ATOM     13  C   UNL     1      -6.506  -9.668   2.791  0.00  0.00    -0.017 C 
ATOM     14  C   UNL     1      -7.417  -8.449   2.641  0.00  0.00    -0.017 C 
ENDBRANCH   8  12
ENDBRANCH   1   2
BRANCH   1  18
ATOM     15  N   UNL     1      -1.200  -0.722   0.010  0.00  0.00    -0.269 N 
ATOM     16  C   UNL     1      -1.183  -2.065  -0.100  0.00  0.00    +0.304 C 
ATOM     17  O   UNL     1      -0.124  -2.661  -0.113  0.00  0.00    -0.252 OA
ATOM     18  N   UNL     1      -2.342  -2.748  -0.194  0.00  0.00    -0.291 N 
ATOM     19  H   UNL     1      -2.044  -0.253   0.098  0.00  0.00    +0.156 HD
ATOM     20  H   UNL     1      -3.187  -2.272  -0.183  0.00  0.00    +0.151 HD
BRANCH  15  26
ATOM     21  C   UNL     1       1.072  -0.453  -0.767  0.00  0.00    +0.024 A 
ATOM     22  C   UNL     1       2.256   0.257  -0.779  0.00  0.00    +0.017 A 
ATOM     23  C   UNL     1       2.377   1.416  -0.033  0.00  0.00    +0.018 A 
ATOM     24  C   UNL     1       1.312   1.866   0.728  0.00  0.00    +0.017 A 
ATOM     25  C   UNL     1       0.126   1.159   0.744  0.00  0.00    +0.024 A 
ATOM     26  C   UNL     1       0.002  -0.004  -0.005  0.00  0.00    +0.035 A 
ATOM     27 BR   UNL     1       4.000   2.386  -0.052  0.00  0.00    -0.050 Br
ENDBRANCH  15  26
ENDBRANCH   1  18
TORSDOF 4
