REMARK  Name = ZINC35867388
REMARK  10 active torsions:
REMARK  status: ('A' for Active; 'I' for Inactive)
REMARK    1  A    between atoms: C_1  and  C_2
REMARK    2  A    between atoms: C_11  and  N_18
REMARK    3  A    between atoms: C_13  and  C_15
REMARK    4  A    between atoms: C_15  and  C_16
REMARK    5  A    between atoms: C_15  and  C_17
REMARK    6  A    between atoms: N_26  and  C_27
REMARK    7  A    between atoms: C_29  and  O_35
REMARK    8  A    between atoms: C_31  and  O_33
REMARK    9  A    between atoms: O_33  and  C_34
REMARK   10  A    between atoms: O_35  and  C_36
REMARK                            x       y       z     vdW  Elec       q    Type
REMARK                         _______ _______ _______ _____ _____    ______ ____
ROOT
ATOM      1  N   UNL     1      -1.916  -4.847  -0.801  0.00  0.00    -0.312 N 
ATOM      2  C   UNL     1      -1.909  -3.491  -1.368  0.00  0.00    +0.125 C 
ATOM      3  C   UNL     1      -1.976  -3.598  -2.896  0.00  0.00    +0.128 C 
ATOM      4  N   UNL     1      -3.071  -4.510  -3.255  0.00  0.00    -0.282 N 
ATOM      5  C   UNL     1      -3.078  -5.866  -2.688  0.00  0.00    +0.128 C 
ATOM      6  C   UNL     1      -3.008  -5.761  -1.164  0.00  0.00    +0.125 C 
ATOM      7  C   UNL     1      -4.052  -4.110  -4.089  0.00  0.00    +0.307 C 
ATOM      8  O   UNL     1      -3.970  -3.036  -4.652  0.00  0.00    -0.252 OA
ATOM      9  N   UNL     1      -5.123  -4.901  -4.297  0.00  0.00    -0.269 N 
ATOM     10  H   UNL     1      -5.257  -5.691  -3.751  0.00  0.00    +0.156 HD
ENDROOT
BRANCH   1  20
ATOM     11  C   UNL     1      -4.768  -2.010   4.598  0.00  0.00    +0.008 C 
ATOM     12  C   UNL     1      -3.653  -2.498   3.671  0.00  0.00    -0.009 C 
ATOM     13  C   UNL     1      -4.253  -3.358   2.555  0.00  0.00    +0.008 C 
ATOM     14  C   UNL     1      -3.192  -3.642   1.492  0.00  0.00    +0.037 C 
ATOM     15  C   UNL     1      -1.954  -4.223   2.171  0.00  0.00    -0.025 A 
ATOM     16  C   UNL     1      -1.763  -4.066   3.500  0.00  0.00    -0.004 A 
ATOM     17  S   UNL     1      -0.227  -4.885   3.852  0.00  0.00    -0.073 S 
ATOM     18  C   UNL     1       0.156  -5.437   2.221  0.00  0.00    +0.114 A 
ATOM     19  C   UNL     1      -0.933  -4.962   1.448  0.00  0.00    +0.051 A 
ATOM     20  C   UNL     1      -0.909  -5.257   0.054  0.00  0.00    +0.133 A 
ATOM     21  N   UNL     1       0.142  -5.954  -0.373  0.00  0.00    -0.216 NA
ATOM     22  C   UNL     1       1.121  -6.364   0.408  0.00  0.00    +0.135 A 
ATOM     23  N   UNL     1       1.161  -6.122   1.713  0.00  0.00    -0.224 NA
ATOM     24  C   UNL     1      -2.655  -3.349   4.468  0.00  0.00    +0.046 C 
BRANCH  22  25
ATOM     25  C   UNL     1       2.251  -7.146  -0.210  0.00  0.00    +0.051 C 
ATOM     26  C   UNL     1       3.568  -6.399   0.011  0.00  0.00    +0.015 C 
ATOM     27  C   UNL     1       2.333  -8.527   0.442  0.00  0.00    +0.015 C 
ENDBRANCH  22  25
ENDBRANCH   1  20
BRANCH   9  28
ATOM     28  C   UNL     1      -6.043  -4.582  -5.303  0.00  0.00    +0.042 A 
ATOM     29  C   UNL     1      -6.166  -3.271  -5.741  0.00  0.00    +0.069 A 
ATOM     30  C   UNL     1      -7.077  -2.956  -6.738  0.00  0.00    +0.125 A 
ATOM     31  C   UNL     1      -7.864  -3.951  -7.298  0.00  0.00    +0.091 A 
ATOM     32  C   UNL     1      -7.741  -5.262  -6.861  0.00  0.00    +0.125 A 
ATOM     33  C   UNL     1      -6.827  -5.579  -5.868  0.00  0.00    +0.069 A 
BRANCH  32  34
ATOM     34  O   UNL     1      -8.513  -6.236  -7.410  0.00  0.00    -0.495 OA
ATOM     35  C   UNL     1      -9.429  -5.839  -8.432  0.00  0.00    +0.277 C 
ENDBRANCH  32  34
BRANCH  30  36
ATOM     36  O   UNL     1      -7.198  -1.672  -7.166  0.00  0.00    -0.495 OA
ATOM     37  C   UNL     1      -8.156  -1.420  -8.196  0.00  0.00    +0.277 C 
ENDBRANCH  30  36
ENDBRANCH   9  28
TORSDOF 5
