REMARK  Name = ZINC35300569
REMARK  11 active torsions:
REMARK  status: ('A' for Active; 'I' for Inactive)
REMARK    1  A    between atoms: C_1  and  C_2
REMARK    2  A    between atoms: C_2  and  C_3
REMARK    3  A    between atoms: C_3  and  C_5
REMARK    4  A    between atoms: C_3  and  C_6
REMARK    5  A    between atoms: C_6  and  C_8
REMARK    6  A    between atoms: C_6  and  N_25
REMARK    7  A    between atoms: C_14  and  C_16
REMARK    8  A    between atoms: C_19  and  N_22
REMARK    9  A    between atoms: N_22  and  C_23
REMARK   10  A    between atoms: N_22  and  C_24
REMARK   11  A    between atoms: C_26  and  C_28
REMARK                            x       y       z     vdW  Elec       q    Type
REMARK                         _______ _______ _______ _____ _____    ______ ____
ROOT
ATOM      1  C   UNL     1      -0.434  -2.563  -0.919  0.00  0.00    +0.239 C 
ATOM      2  O   UNL     1       0.462  -3.313  -0.593  0.00  0.00    -0.273 OA
ATOM      3  N   UNL     1      -0.605  -2.241  -2.216  0.00  0.00    -0.262 N 
ATOM      4  C   UNL     1       0.304  -2.687  -3.169  0.00  0.00    +0.188 A 
ATOM      5  N   UNL     1       1.390  -3.434  -3.025  0.00  0.00    -0.125 NA
ATOM      6  N   UNL     1       2.115  -3.753  -4.007  0.00  0.00    -0.140 NA
ATOM      7  C   UNL     1       1.833  -3.359  -5.243  0.00  0.00    +0.134 A 
ATOM      8  S   UNL     1       0.337  -2.424  -4.939  0.00  0.00    -0.030 S 
ATOM      9  H   UNL     1      -1.362  -1.698  -2.486  0.00  0.00    +0.157 HD
ENDROOT
BRANCH   7  10
ATOM     10  C   UNL     1       2.548  -3.623  -6.510  0.00  0.00    +0.009 A 
ATOM     11  C   UNL     1       2.065  -3.094  -7.709  0.00  0.00    +0.012 A 
ATOM     12  C   UNL     1       2.733  -3.341  -8.888  0.00  0.00    +0.024 A 
ATOM     13  C   UNL     1       3.887  -4.117  -8.885  0.00  0.00    +0.029 A 
ATOM     14  C   UNL     1       4.370  -4.646  -7.693  0.00  0.00    +0.024 A 
ATOM     15  C   UNL     1       3.710  -4.396  -6.510  0.00  0.00    +0.012 A 
BRANCH  13  16
ATOM     16  N   UNL     1       4.561  -4.366 -10.082  0.00  0.00    -0.336 N 
ATOM     17  C   UNL     1       4.104  -3.740 -11.324  0.00  0.00    +0.129 C 
ATOM     18  C   UNL     1       5.726  -5.255 -10.094  0.00  0.00    +0.129 C 
ENDBRANCH  13  16
ENDBRANCH   7  10
BRANCH   1  19
ATOM     19  C   UNL     1      -1.357  -1.992   0.127  0.00  0.00    +0.162 C 
BRANCH  19  20
ATOM     20  N   UNL     1      -1.286  -2.810   1.340  0.00  0.00    -0.300 N 
ATOM     21  C   UNL     1      -2.325  -2.836   2.198  0.00  0.00    +0.245 C 
ATOM     22  O   UNL     1      -3.322  -2.180   1.965  0.00  0.00    -0.270 OA
ATOM     23  H   UNL     1      -0.490  -3.334   1.526  0.00  0.00    +0.150 HD
BRANCH  21  24
ATOM     24  C   UNL     1      -2.253  -3.661   3.422  0.00  0.00    +0.037 A 
ATOM     25  C   UNL     1      -1.108  -4.411   3.695  0.00  0.00    +0.014 A 
ATOM     26  C   UNL     1      -1.046  -5.179   4.839  0.00  0.00    +0.016 A 
ATOM     27  C   UNL     1      -2.118  -5.208   5.715  0.00  0.00    +0.018 A 
ATOM     28  C   UNL     1      -3.257  -4.466   5.450  0.00  0.00    +0.016 A 
ATOM     29  C   UNL     1      -3.328  -3.689   4.312  0.00  0.00    +0.014 A 
ATOM     30 BR   UNL     1      -2.026  -6.264   7.281  0.00  0.00    -0.050 Br
ENDBRANCH  21  24
ENDBRANCH  19  20
BRANCH  19  31
ATOM     31  C   UNL     1      -0.934  -0.559   0.453  0.00  0.00    +0.015 C 
ATOM     32  C   UNL     1       0.450  -0.572   1.105  0.00  0.00    +0.010 C 
BRANCH  31  34
ATOM     33  C   UNL     1      -1.592   1.537   1.644  0.00  0.00    +0.004 C 
ATOM     34  C   UNL     1      -1.946   0.066   1.416  0.00  0.00    +0.002 C 
ENDBRANCH  31  34
ENDBRANCH  19  31
ENDBRANCH   1  19
TORSDOF 7
