REMARK  Name = ZINC38737054
REMARK  9 active torsions:
REMARK  status: ('A' for Active; 'I' for Inactive)
REMARK    1  A    between atoms: C_1  and  C_2
REMARK    2  A    between atoms: C_2  and  C_38
REMARK    3  A    between atoms: C_7  and  C_12
REMARK    4  A    between atoms: C_12  and  N_13
REMARK    5  A    between atoms: C_14  and  C_16
REMARK    6  A    between atoms: C_19  and  N_22
REMARK    7  A    between atoms: C_23  and  N_37
REMARK    8  A    between atoms: C_25  and  C_27
REMARK    9  A    between atoms: C_31  and  C_33
REMARK                            x       y       z     vdW  Elec       q    Type
REMARK                         _______ _______ _______ _____ _____    ______ ____
ROOT
ATOM      1  C   UNL     1       4.088   2.752   5.109  0.00  0.00    +0.037 A 
ATOM      2  C   UNL     1       5.318   2.252   4.674  0.00  0.00    +0.015 A 
ATOM      3  C   UNL     1       6.482   2.664   5.285  0.00  0.00    +0.028 A 
ATOM      4  C   UNL     1       6.433   3.577   6.333  0.00  0.00    +0.067 A 
ATOM      5  C   UNL     1       5.210   4.077   6.768  0.00  0.00    +0.028 A 
ATOM      6  C   UNL     1       4.044   3.674   6.158  0.00  0.00    +0.015 A 
ENDROOT
BRANCH   4   7
ATOM      7  N   UNL     1       7.615   3.992   6.950  0.00  0.00    -0.218 N 
ATOM      8  C   UNL     1       7.864   5.235   7.452  0.00  0.00    +0.120 A 
ATOM      9  C   UNL     1       9.122   5.229   7.965  0.00  0.00    +0.073 A 
ATOM     10  C   UNL     1       9.659   3.942   7.772  0.00  0.00    +0.095 A 
ATOM     11  N   UNL     1       8.752   3.203   7.168  0.00  0.00    -0.165 NA
BRANCH  10  12
ATOM     12  C   UNL     1      11.013   3.493   8.182  0.00  0.00    +0.003 A 
ATOM     13  C   UNL     1      11.877   4.377   8.827  0.00  0.00    +0.010 A 
ATOM     14  C   UNL     1      13.134   3.954   9.207  0.00  0.00    +0.001 A 
ATOM     15  C   UNL     1      13.538   2.656   8.950  0.00  0.00    +0.012 A 
ATOM     16  C   UNL     1      12.685   1.776   8.310  0.00  0.00    +0.055 A 
ATOM     17  C   UNL     1      11.423   2.186   7.930  0.00  0.00    +0.022 A 
BRANCH  16  18
ATOM     18  C   UNL     1      13.132   0.363   8.032  0.00  0.00    +0.417 C 
ATOM     19  F   UNL     1      14.435   0.184   8.510  0.00  0.00    -0.166 F 
ATOM     20  F   UNL     1      12.272  -0.533   8.675  0.00  0.00    -0.166 F 
ATOM     21  F   UNL     1      13.105   0.129   6.653  0.00  0.00    -0.166 F 
ENDBRANCH  16  18
ENDBRANCH  10  12
BRANCH   8  22
ATOM     22  N   UNL     1       6.987   6.316   7.439  0.00  0.00    -0.343 N 
ATOM     23  H   UNL     1       6.105   6.220   7.047  0.00  0.00    +0.144 HD
ATOM     24  H   UNL     1       7.258   7.164   7.824  0.00  0.00    +0.144 HD
ENDBRANCH   8  22
ENDBRANCH   4   7
BRANCH   1  26
ATOM     25  N   UNL     1       2.883   1.424   3.444  0.00  0.00    -0.311 N 
ATOM     26  C   UNL     1       2.839   2.313   4.457  0.00  0.00    +0.244 C 
ATOM     27  O   UNL     1       1.769   2.753   4.832  0.00  0.00    -0.270 OA
ATOM     28  H   UNL     1       3.736   1.073   3.145  0.00  0.00    +0.149 HD
BRANCH  25  29
ATOM     29  C   UNL     1       1.643   0.988   2.797  0.00  0.00    +0.108 C 
BRANCH  29  35
ATOM     30  C   UNL     1      -0.019   1.521   0.010  0.00  0.00    +0.011 C 
ATOM     31  C   UNL     1       0.002  -0.004   0.002  0.00  0.00    -0.029 C 
ATOM     32  C   UNL     1       1.110  -0.635  -0.859  0.00  0.00    -0.005 C 
ATOM     33  C   UNL     1       2.412   0.167  -0.822  0.00  0.00    +0.004 C 
ATOM     34  C   UNL     1       2.774   0.644   0.578  0.00  0.00    +0.005 C 
ATOM     35  C   UNL     1       1.972  -0.016   1.688  0.00  0.00    +0.010 C 
ATOM     36  C   UNL     1       0.704  -0.695   1.173  0.00  0.00    -0.000 C 
ATOM     37  C   UNL     1       1.105  -1.793   0.155  0.00  0.00    +0.008 C 
ATOM     38  C   UNL     1      -1.394  -0.579  -0.299  0.00  0.00    +0.011 C 
ENDBRANCH  29  35
ENDBRANCH  25  29
ENDBRANCH   1  26
TORSDOF 7
