REMARK  Name = ZINC39503378
REMARK  6 active torsions:
REMARK  status: ('A' for Active; 'I' for Inactive)
REMARK    1  A    between atoms: C_4  and  O_32
REMARK    2  A    between atoms: C_5  and  C_7
REMARK    3  A    between atoms: C_14  and  C_25
REMARK    4  A    between atoms: N_17  and  C_18
REMARK    5  A    between atoms: C_23  and  O_24
REMARK    6  A    between atoms: C_30  and  O_31
REMARK                            x       y       z     vdW  Elec       q    Type
REMARK                         _______ _______ _______ _____ _____    ______ ____
ROOT
ATOM      1  C   UNL     1       1.105  -2.446  -0.522  0.00  0.00    +0.025 C 
ATOM      2  C   UNL     1       0.308  -3.228  -1.596  0.00  0.00    +0.010 C 
ATOM      3  C   UNL     1      -0.045  -4.564  -0.908  0.00  0.00    +0.026 C 
ATOM      4  C   UNL     1      -0.007  -4.297   0.602  0.00  0.00    +0.036 C 
ATOM      5  C   UNL     1       0.375  -2.819   0.794  0.00  0.00    +0.034 C 
ATOM      6  C   UNL     1      -1.384  -4.576   1.227  0.00  0.00    +0.035 C 
ATOM      7  C   UNL     1      -1.208  -5.997   1.827  0.00  0.00    +0.042 C 
ATOM      8  C   UNL     1       0.271  -5.960   2.290  0.00  0.00    +0.114 C 
ATOM      9  N   UNL     1       0.970  -5.168   1.259  0.00  0.00    -0.321 N 
ENDROOT
BRANCH   1  14
ATOM     10  C   UNL     1      -0.274   1.022  -1.093  0.00  0.00    +0.001 A 
ATOM     11  C   UNL     1       0.884   1.763  -1.237  0.00  0.00    +0.004 A 
ATOM     12  C   UNL     1       2.116   1.145  -1.151  0.00  0.00    +0.046 A 
ATOM     13  C   UNL     1       2.191  -0.221  -0.918  0.00  0.00    +0.120 A 
ATOM     14  C   UNL     1       1.028  -0.963  -0.774  0.00  0.00    -0.003 A 
ATOM     15  C   UNL     1      -0.202  -0.339  -0.861  0.00  0.00    +0.007 A 
BRANCH  13  16
ATOM     16  O   UNL     1       3.402  -0.832  -0.834  0.00  0.00    -0.506 OA
ATOM     17  H   UNL     1       3.767  -0.860   0.062  0.00  0.00    +0.292 HD
ENDBRANCH  13  16
ENDBRANCH   1  14
BRANCH   9  18
ATOM     18  C   UNL     1       2.336  -5.237   0.962  0.00  0.00    +0.072 A 
ATOM     19  C   UNL     1       2.783  -6.049  -0.070  0.00  0.00    +0.027 A 
ATOM     20  C   UNL     1       4.132  -6.115  -0.362  0.00  0.00    +0.002 A 
ATOM     21  C   UNL     1       5.039  -5.372   0.371  0.00  0.00    +0.004 A 
ATOM     22  C   UNL     1       4.601  -4.560   1.401  0.00  0.00    +0.047 A 
ATOM     23  C   UNL     1       3.250  -4.484   1.697  0.00  0.00    +0.138 A 
BRANCH  23  24
ATOM     24  O   UNL     1       2.817  -3.682   2.706  0.00  0.00    -0.505 OA
ATOM     25  H   UNL     1       2.855  -4.094   3.580  0.00  0.00    +0.292 HD
ENDBRANCH  23  24
ENDBRANCH   9  18
BRANCH   7  26
ATOM     26  C   UNL     1      -2.135  -6.209   2.996  0.00  0.00    -0.001 A 
ATOM     27  C   UNL     1      -2.050  -5.387   4.103  0.00  0.00    +0.007 A 
ATOM     28  C   UNL     1      -2.900  -5.581   5.176  0.00  0.00    +0.001 A 
ATOM     29  C   UNL     1      -3.837  -6.597   5.144  0.00  0.00    +0.004 A 
ATOM     30  C   UNL     1      -3.926  -7.421   4.039  0.00  0.00    +0.046 A 
ATOM     31  C   UNL     1      -3.078  -7.226   2.959  0.00  0.00    +0.120 A 
BRANCH  31  32
ATOM     32  O   UNL     1      -3.167  -8.032   1.868  0.00  0.00    -0.506 OA
ATOM     33  H   UNL     1      -2.608  -8.820   1.915  0.00  0.00    +0.292 HD
ENDBRANCH  31  32
ENDBRANCH   7  26
TORSDOF 6
