REMARK  Name = ZINC04556313
REMARK  7 active torsions:
REMARK  status: ('A' for Active; 'I' for Inactive)
REMARK    1  A    between atoms: C_1  and  C_2
REMARK    2  A    between atoms: C_2  and  N_47
REMARK    3  A    between atoms: C_10  and  O_25
REMARK    4  A    between atoms: C_12  and  C_15
REMARK    5  A    between atoms: C_18  and  C_21
REMARK    6  A    between atoms: C_21  and  O_23
REMARK    7  A    between atoms: O_23  and  C_24
REMARK                            x       y       z     vdW  Elec       q    Type
REMARK                         _______ _______ _______ _____ _____    ______ ____
ROOT
ATOM      1  C   UNL     1      -1.786   4.911   1.087  0.00  0.00    -0.074 C 
ATOM      2  C   UNL     1      -1.120   3.670   0.485  0.00  0.00    +0.018 C 
ATOM      3  C   UNL     1       0.345   3.999   0.217  0.00  0.00    -0.027 A 
ATOM      4  C   UNL     1       0.750   5.291   0.170  0.00  0.00    -0.021 A 
ATOM      5  S   UNL     1       2.490   5.210  -0.157  0.00  0.00    -0.080 S 
ATOM      6  C   UNL     1       2.667   3.509  -0.234  0.00  0.00    +0.080 A 
ATOM      7  C   UNL     1       1.381   3.006   0.005  0.00  0.00    +0.067 A 
ATOM      8  C   UNL     1       1.217   1.530  -0.001  0.00  0.00    +0.220 C 
ATOM      9  N   UNL     1       2.297   0.798  -0.010  0.00  0.00    -0.223 NA
ATOM     10  C   UNL     1       3.655   1.320   0.069  0.00  0.00    +0.224 C 
ATOM     11  N   UNL     1       3.745   2.691  -0.469  0.00  0.00    -0.313 N 
ATOM     12  C   UNL     1      -0.110   6.500   0.355  0.00  0.00    -0.035 C 
ATOM     13  H   UNL     1       4.523   2.997  -0.961  0.00  0.00    +0.149 HD
ATOM     14  N   UNL     1      -1.525   6.077   0.218  0.00  0.00    +0.383 N 
ATOM     15  H   UNL     1      -1.702   5.813  -0.758  0.00  0.00    -0.081 HD
ENDROOT
BRANCH  10  16
ATOM     16  C   UNL     1       4.089   1.329   1.512  0.00  0.00    -0.005 A 
ATOM     17  C   UNL     1       5.027   2.249   1.944  0.00  0.00    +0.008 A 
ATOM     18  C   UNL     1       5.424   2.266   3.265  0.00  0.00    +0.015 A 
ATOM     19  C   UNL     1       4.885   1.344   4.165  0.00  0.00    +0.059 A 
ATOM     20  C   UNL     1       3.943   0.415   3.721  0.00  0.00    +0.015 A 
ATOM     21  C   UNL     1       3.550   0.413   2.398  0.00  0.00    +0.008 A 
BRANCH  19  22
ATOM     22  C   UNL     1       5.311   1.352   5.579  0.00  0.00    +0.339 C 
ATOM     23  O   UNL     1       4.840   0.548   6.359  0.00  0.00    -0.245 OA
BRANCH  22  24
ATOM     24  O   UNL     1       6.220   2.250   6.004  0.00  0.00    -0.464 OA
ATOM     25  C   UNL     1       6.591   2.200   7.407  0.00  0.00    +0.280 C 
ENDBRANCH  22  24
ENDBRANCH  19  22
ENDBRANCH  10  16
BRANCH  14  27
ATOM     26  C   UNL     1      -2.264   7.543   2.066  0.00  0.00    -0.017 C 
ATOM     27  C   UNL     1      -2.424   7.192   0.585  0.00  0.00    -0.082 C 
ENDBRANCH  14  27
BRANCH   8  28
ATOM     28  O   UNL     1      -0.011   0.963   0.007  0.00  0.00    -0.492 OA
ATOM     29  H   UNL     1       0.002  -0.004   0.002  0.00  0.00    +0.294 HD
ENDBRANCH   8  28
TORSDOF 5
