REMARK  Name = ZINC34857286
REMARK  6 active torsions:
REMARK  status: ('A' for Active; 'I' for Inactive)
REMARK    1  A    between atoms: C_3  and  N_33
REMARK    2  A    between atoms: C_6  and  C_7
REMARK    3  A    between atoms: C_16  and  C_20
REMARK    4  A    between atoms: N_22  and  C_23
REMARK    5  A    between atoms: C_23  and  C_24
REMARK    6  A    between atoms: C_24  and  C_25
REMARK                            x       y       z     vdW  Elec       q    Type
REMARK                         _______ _______ _______ _____ _____    ______ ____
ROOT
ATOM      1  C   UNL     1      -1.266  -0.764   0.011  0.00  0.00    +0.247 C 
ATOM      2  O   UNL     1      -2.325  -0.178   0.132  0.00  0.00    -0.270 OA
ATOM      3  N   UNL     1      -1.248  -2.107  -0.099  0.00  0.00    -0.298 N 
ATOM      4  C   UNL     1       0.026  -2.839  -0.111  0.00  0.00    +0.107 C 
ATOM      5  C   UNL     1      -0.011  -3.908   0.988  0.00  0.00    +0.017 C 
ATOM      6  C   UNL     1      -1.255  -4.766   0.819  0.00  0.00    -0.016 C 
ATOM      7  C   UNL     1      -2.526  -3.935   0.892  0.00  0.00    +0.017 C 
ATOM      8  C   UNL     1      -2.502  -2.866  -0.202  0.00  0.00    +0.107 C 
ATOM      9  N   UNL     1      -1.198  -5.540  -0.440  0.00  0.00    +0.397 N 
ATOM     10  C   UNL     1      -0.528  -6.843  -0.257  0.00  0.00    +0.028 C 
ATOM     11  C   UNL     1      -1.126  -7.541   1.001  0.00  0.00    +0.061 C 
ATOM     12  S   UNL     1      -1.290  -6.072   2.108  0.00  0.00    -0.174 S 
ATOM     13  H   UNL     1      -2.139  -5.697  -0.770  0.00  0.00    -0.083 HD
ATOM     14  H   UNL     1      -0.694  -5.005  -1.131  0.00  0.00    -0.083 HD
ENDROOT
BRANCH   1  20
ATOM     15  C   UNL     1       0.196   1.065   0.861  0.00  0.00    +0.015 A 
ATOM     16  C   UNL     1       1.381   1.771   0.830  0.00  0.00    +0.033 A 
ATOM     17  C   UNL     1       2.374   1.423  -0.068  0.00  0.00    +0.126 A 
ATOM     18  C   UNL     1       2.187   0.366  -0.941  0.00  0.00    +0.033 A 
ATOM     19  C   UNL     1       1.007  -0.348  -0.921  0.00  0.00    +0.015 A 
ATOM     20  C   UNL     1       0.001  -0.003  -0.017  0.00  0.00    +0.037 A 
BRANCH  17  21
ATOM     21  N   UNL     1       3.643   2.185  -0.096  0.00  0.00    +0.056 N 
ATOM     22  O   UNL     1       3.809   3.110   0.665  0.00  0.00    -0.126 OA
ATOM     23  O   UNL     1       4.513   1.883  -0.879  0.00  0.00    -0.126 OA
ENDBRANCH  17  21
ENDBRANCH   1  20
BRANCH  10  24
ATOM     24  C   UNL     1      -0.761  -7.706  -1.470  0.00  0.00    +0.200 C 
ATOM     25  O   UNL     1      -1.418  -7.284  -2.398  0.00  0.00    -0.278 OA
ATOM     26  N   UNL     1      -0.238  -8.947  -1.524  0.00  0.00    -0.316 N 
ATOM     27  H   UNL     1       0.288  -9.284  -0.782  0.00  0.00    +0.149 HD
BRANCH  26  28
ATOM     28  C   UNL     1      -0.464  -9.786  -2.704  0.00  0.00    +0.109 C 
BRANCH  28  29
ATOM     29  C   UNL     1       0.232 -11.135  -2.511  0.00  0.00    +0.055 C 
BRANCH  29  30
ATOM     30  C   UNL     1      -0.000 -11.998  -3.724  0.00  0.00    -0.027 A 
ATOM     31  C   UNL     1      -1.044 -12.905  -3.737  0.00  0.00    +0.006 A 
ATOM     32  C   UNL     1      -1.257 -13.697  -4.849  0.00  0.00    +0.020 A 
ATOM     33  C   UNL     1      -0.427 -13.583  -5.951  0.00  0.00    +0.042 A 
ATOM     34  C   UNL     1       0.617 -12.675  -5.938  0.00  0.00    +0.040 A 
ATOM     35  C   UNL     1       0.827 -11.879  -4.826  0.00  0.00    +0.046 A 
ATOM     36 CL   UNL     1       2.133 -10.736  -4.812  0.00  0.00    -0.083 Cl
ATOM     37 CL   UNL     1      -0.695 -14.578  -7.347  0.00  0.00    -0.083 Cl
ENDBRANCH  29  30
ENDBRANCH  28  29
ENDBRANCH  26  28
ENDBRANCH  10  24
TORSDOF 6
