REMARK  Name = ZINC09237795
REMARK  7 active torsions:
REMARK  status: ('A' for Active; 'I' for Inactive)
REMARK    1  A    between atoms: C_1  and  C_2
REMARK    2  A    between atoms: C_6  and  N_8
REMARK    3  A    between atoms: C_9  and  C_11
REMARK    4  A    between atoms: C_13  and  C_23
REMARK    5  A    between atoms: C_17  and  C_22
REMARK    6  A    between atoms: C_26  and  O_30
REMARK    7  A    between atoms: O_30  and  C_31
REMARK                            x       y       z     vdW  Elec       q    Type
REMARK                         _______ _______ _______ _____ _____    ______ ____
ROOT
ATOM      1  C   UNL     1      -3.711  -1.062  -0.201  0.00  0.00    +0.166 C 
ATOM      2  C   UNL     1      -3.583  -2.416   0.508  0.00  0.00    +0.140 C 
ATOM      3  N   UNL     1      -4.897  -3.042   0.658  0.00  0.00    -0.272 N 
ATOM      4  N   UNL     1      -5.532  -3.269  -0.521  0.00  0.00    -0.225 N 
ATOM      5  C   UNL     1      -6.529  -4.167  -0.771  0.00  0.00    +0.148 A 
ATOM      6  N   UNL     1      -6.858  -4.043  -2.028  0.00  0.00    -0.132 NA
ATOM      7  N   UNL     1      -6.135  -3.134  -2.587  0.00  0.00    -0.121 NA
ATOM      8  C   UNL     1      -5.307  -2.637  -1.711  0.00  0.00    +0.209 A 
ATOM      9  S   UNL     1      -4.089  -1.382  -1.951  0.00  0.00    -0.069 S 
ATOM     10  C   UNL     1      -7.139  -5.124   0.221  0.00  0.00    +0.090 C 
ATOM     11  H   UNL     1      -4.835  -3.888   1.204  0.00  0.00    +0.167 HD
ENDROOT
BRANCH   2  12
ATOM     12  C   UNL     1      -2.971  -2.209   1.870  0.00  0.00    -0.023 A 
ATOM     13  C   UNL     1      -1.625  -2.459   2.068  0.00  0.00    +0.009 A 
ATOM     14  C   UNL     1      -1.062  -2.269   3.314  0.00  0.00    +0.047 A 
ATOM     15  C   UNL     1      -1.847  -1.828   4.370  0.00  0.00    +0.134 A 
ATOM     16  C   UNL     1      -3.197  -1.578   4.169  0.00  0.00    +0.060 A 
ATOM     17  C   UNL     1      -3.755  -1.764   2.918  0.00  0.00    +0.024 A 
ATOM     18 BR   UNL     1      -4.272  -0.976   5.604  0.00  0.00    -0.047 Br
BRANCH  15  19
ATOM     19  O   UNL     1      -1.295  -1.640   5.597  0.00  0.00    -0.494 OA
ATOM     20  C   UNL     1       0.101  -1.917   5.730  0.00  0.00    +0.277 C 
ENDBRANCH  15  19
ENDBRANCH   2  12
BRANCH   1  22
ATOM     21  N   UNL     1      -2.427   1.041   0.019  0.00  0.00    -0.285 N 
ATOM     22  C   UNL     1      -2.414  -0.303  -0.090  0.00  0.00    +0.233 C 
ATOM     23  O   UNL     1      -1.359  -0.900  -0.098  0.00  0.00    -0.274 OA
ATOM     24  H   UNL     1      -3.271   1.512   0.103  0.00  0.00    +0.155 HD
BRANCH  21  30
ATOM     25  C   UNL     1       2.201   1.518  -1.569  0.00  0.00    +0.044 C 
ATOM     26  C   UNL     1       1.036   2.009  -0.749  0.00  0.00    -0.049 A 
ATOM     27  C   UNL     1       1.157   3.164   0.001  0.00  0.00    +0.003 A 
ATOM     28  C   UNL     1       0.090   3.618   0.754  0.00  0.00    +0.002 A 
ATOM     29  C   UNL     1      -1.101   2.918   0.759  0.00  0.00    +0.023 A 
ATOM     30  C   UNL     1      -1.224   1.755   0.012  0.00  0.00    +0.034 A 
ATOM     31  C   UNL     1      -0.152   1.305  -0.748  0.00  0.00    +0.026 A 
ENDBRANCH  21  30
ENDBRANCH   1  22
TORSDOF 4
