REMARK  Name = ZINC22851811
REMARK  8 active torsions:
REMARK  status: ('A' for Active; 'I' for Inactive)
REMARK    1  A    between atoms: C_1  and  O_2
REMARK    2  A    between atoms: O_2  and  C_3
REMARK    3  A    between atoms: C_6  and  N_9
REMARK    4  A    between atoms: N_12  and  C_15
REMARK    5  A    between atoms: C_15  and  C_17
REMARK    6  A    between atoms: C_15  and  C_23
REMARK    7  A    between atoms: C_24  and  O_36
REMARK    8  A    between atoms: C_29  and  C_31
REMARK                            x       y       z     vdW  Elec       q    Type
REMARK                         _______ _______ _______ _____ _____    ______ ____
ROOT
ATOM      1  C   UNL     1       5.997  -4.026   5.971  0.00  0.00    +0.129 C 
ENDROOT
BRANCH   1   2
ATOM      2  C   UNL     1       6.889  -3.739   4.790  0.00  0.00    +0.076 A 
ATOM      3  C   UNL     1       7.975  -2.961   4.723  0.00  0.00    +0.228 A 
ATOM      4  N   UNL     1       8.666  -2.822   3.544  0.00  0.00    -0.173 N 
ATOM      5  C   UNL     1       8.194  -3.510   2.460  0.00  0.00    +0.200 A 
ATOM      6  S   UNL     1       6.776  -4.356   3.118  0.00  0.00    -0.047 S 
ATOM      7  N   UNL     1       8.952  -3.277   1.426  0.00  0.00    -0.197 NA
ATOM      8  C   UNL     1       9.938  -2.441   1.779  0.00  0.00    +0.218 A 
ATOM      9  N   UNL     1       9.807  -2.137   3.053  0.00  0.00    -0.138 NA
BRANCH   8  10
ATOM     10  C   UNL     1      11.001  -1.940   0.882  0.00  0.00    +0.173 A 
ATOM     11  C   UNL     1      11.141  -2.243  -0.435  0.00  0.00    +0.053 A 
ATOM     12  C   UNL     1      12.280  -1.551  -0.892  0.00  0.00    +0.042 A 
ATOM     13  C   UNL     1      12.774  -0.867   0.159  0.00  0.00    +0.196 A 
ATOM     14  O   UNL     1      11.995  -1.100   1.228  0.00  0.00    -0.460 OA
ENDBRANCH   8  10
BRANCH   3  15
ATOM     15  O   UNL     1       8.400  -2.300   5.833  0.00  0.00    -0.492 OA
ATOM     16  H   UNL     1       9.191  -1.762   5.693  0.00  0.00    +0.294 HD
ENDBRANCH   3  15
ENDBRANCH   1   2
BRANCH   1  20
ATOM     17  N   UNL     1       2.232  -2.183   5.770  0.00  0.00    -0.327 N 
ATOM     18  C   UNL     1       2.296  -3.504   6.413  0.00  0.00    +0.120 C 
ATOM     19  C   UNL     1       3.746  -3.775   6.827  0.00  0.00    +0.104 C 
ATOM     20  N   UNL     1       4.623  -3.609   5.660  0.00  0.00    -0.288 NA
ATOM     21  C   UNL     1       4.593  -2.228   5.162  0.00  0.00    +0.104 C 
ATOM     22  C   UNL     1       3.173  -1.896   4.676  0.00  0.00    +0.120 C 
BRANCH  17  26
ATOM     23  C   UNL     1      -0.552   0.665   7.000  0.00  0.00    +0.120 A 
ATOM     24  C   UNL     1       0.406   0.996   6.053  0.00  0.00    +0.047 A 
ATOM     25  C   UNL     1       1.328   0.053   5.644  0.00  0.00    +0.027 A 
ATOM     26  C   UNL     1       1.298  -1.227   6.183  0.00  0.00    +0.030 A 
ATOM     27  C   UNL     1       0.339  -1.557   7.132  0.00  0.00    +0.027 A 
ATOM     28  C   UNL     1      -0.580  -0.611   7.543  0.00  0.00    +0.047 A 
BRANCH  23  30
ATOM     29  C   UNL     1      -1.373   2.888   6.801  0.00  0.00    +0.277 C 
ATOM     30  O   UNL     1      -1.460   1.594   7.402  0.00  0.00    -0.495 OA
ENDBRANCH  23  30
ENDBRANCH  17  26
ENDBRANCH   1  20
BRANCH   1  31
ATOM     31  C   UNL     1       6.018  -5.503   6.270  0.00  0.00    -0.025 A 
ATOM     32  C   UNL     1       5.333  -6.383   5.453  0.00  0.00    +0.005 A 
ATOM     33  C   UNL     1       5.353  -7.738   5.727  0.00  0.00    +0.000 A 
ATOM     34  C   UNL     1       6.058  -8.213   6.817  0.00  0.00    +0.000 A 
ATOM     35  C   UNL     1       6.744  -7.333   7.633  0.00  0.00    +0.000 A 
ATOM     36  C   UNL     1       6.728  -5.979   7.357  0.00  0.00    +0.005 A 
ENDBRANCH   1  31
TORSDOF 7
