REMARK  Name = ZINC03440256
REMARK  9 active torsions:
REMARK  status: ('A' for Active; 'I' for Inactive)
REMARK    1  A    between atoms: C_1  and  C_2
REMARK    2  A    between atoms: C_5  and  N_9
REMARK    3  A    between atoms: C_7  and  C_8
REMARK    4  A    between atoms: C_10  and  C_12
REMARK    5  A    between atoms: C_12  and  S_13
REMARK    6  A    between atoms: S_13  and  C_14
REMARK    7  A    between atoms: C_15  and  C_32
REMARK    8  A    between atoms: C_22  and  C_26
REMARK    9  A    between atoms: C_28  and  C_31
REMARK                            x       y       z     vdW  Elec       q    Type
REMARK                         _______ _______ _______ _____ _____    ______ ____
ROOT
ATOM      1  C   UNL     1      -0.202   1.871   0.119  0.00  0.00    +0.081 C 
ATOM      2  C   UNL     1       1.094   1.580   0.393  0.00  0.00    +0.064 C 
ATOM      3  C   UNL     1       2.153   2.634   0.552  0.00  0.00    +0.023 C 
ATOM      4  C   UNL     1       3.458   2.150  -0.085  0.00  0.00    +0.013 C 
ATOM      5  C   UNL     1       4.533   3.228   0.074  0.00  0.00    +0.001 C 
ATOM      6  C   UNL     1       4.764   3.503   1.561  0.00  0.00    +0.000 C 
ATOM      7  C   UNL     1       3.460   3.982   2.201  0.00  0.00    +0.001 C 
ATOM      8  C   UNL     1       2.387   2.904   2.041  0.00  0.00    +0.013 C 
ATOM      9  C   UNL     1       1.712   3.933  -0.131  0.00  0.00    +0.117 C 
ATOM     10  C   UNL     1       0.265   4.188   0.245  0.00  0.00    +0.080 C 
ATOM     11  N   UNL     1      -0.631   3.173  -0.045  0.00  0.00    -0.298 N 
ATOM     12  H   UNL     1      -1.020   5.519   1.072  0.00  0.00    +0.157 HD
ATOM     13  H   UNL     1      -1.529   3.370  -0.356  0.00  0.00    +0.154 HD
ATOM     14  N   UNL     1      -0.052   5.330   0.812  0.00  0.00    -0.390 N 
ATOM     15  H   UNL     1       0.675   6.033   0.993  0.00  0.00    +0.157 HD
ENDROOT
BRANCH   9  16
ATOM     16  C   UNL     1       1.832   3.789  -1.626  0.00  0.00    +0.089 A 
ATOM     17  N   UNL     1       2.554   4.494  -2.467  0.00  0.00    -0.248 NA
ATOM     18  C   UNL     1       2.552   4.235  -3.758  0.00  0.00    +0.046 A 
ATOM     19  C   UNL     1       1.772   3.221  -4.212  0.00  0.00    +0.070 A 
ATOM     20  S   UNL     1       1.047   2.654  -2.680  0.00  0.00    -0.080 S 
ATOM     21  C   UNL     1       3.391   5.048  -4.710  0.00  0.00    +0.066 C 
ENDBRANCH   9  16
BRANCH   2  22
ATOM     22  C   UNL     1       1.471   0.206   0.529  0.00  0.00    +0.098 C 
ATOM     23  N   UNL     1       1.770  -0.885   0.638  0.00  0.00    -0.191 NA
ENDBRANCH   2  22
BRANCH   1  24
ATOM     24  S   UNL     1      -1.366   0.557  -0.024  0.00  0.00    -0.100 S 
BRANCH  24  25
ATOM     25  C   UNL     1      -2.867   1.504  -0.380  0.00  0.00    +0.171 C 
BRANCH  25  27
ATOM     26  N   UNL     1      -5.257   1.043  -0.820  0.00  0.00    -0.285 N 
ATOM     27  C   UNL     1      -4.029   0.559  -0.547  0.00  0.00    +0.227 C 
ATOM     28  O   UNL     1      -3.860  -0.637  -0.436  0.00  0.00    -0.275 OA
ATOM     29  H   UNL     1      -5.409   2.001  -0.833  0.00  0.00    +0.155 HD
BRANCH  26  34
ATOM     30  C   UNL     1      -9.538  -2.522  -1.889  0.00  0.00    +0.044 C 
ATOM     31  C   UNL     1      -8.401  -1.575  -1.605  0.00  0.00    -0.047 A 
ATOM     32  C   UNL     1      -7.114  -1.907  -1.988  0.00  0.00    +0.005 A 
ATOM     33  C   UNL     1      -6.071  -1.038  -1.735  0.00  0.00    +0.023 A 
ATOM     34  C   UNL     1      -6.313   0.164  -1.084  0.00  0.00    +0.034 A 
ATOM     35  C   UNL     1      -7.606   0.494  -0.700  0.00  0.00    +0.027 A 
ATOM     36  C   UNL     1      -8.646  -0.376  -0.962  0.00  0.00    -0.046 A 
ATOM     37  C   UNL     1     -10.050  -0.018  -0.546  0.00  0.00    +0.044 C 
ENDBRANCH  26  34
ENDBRANCH  25  27
ENDBRANCH  24  25
ENDBRANCH   1  24
TORSDOF 6
