REMARK  Name = ZINC62051910
REMARK  6 active torsions:
REMARK  status: ('A' for Active; 'I' for Inactive)
REMARK    1  A    between atoms: C_1  and  C_2
REMARK    2  A    between atoms: C_2  and  C_4
REMARK    3  A    between atoms: C_2  and  N_12
REMARK    4  A    between atoms: C_4  and  C_5
REMARK    5  A    between atoms: N_12  and  S_13
REMARK    6  A    between atoms: S_13  and  C_16
REMARK                            x       y       z     vdW  Elec       q    Type
REMARK                         _______ _______ _______ _____ _____    ______ ____
ROOT
ATOM      1  N   UNL     1      -1.506  -0.488  -0.046  0.00  0.00    -0.187 NA
ATOM      2  H   UNL     1      -2.042  -0.633  -0.842  0.00  0.00    +0.148 HD
ENDROOT
BRANCH   1   3
ATOM      3  S   UNL     1      -2.042  -1.034   1.423  0.00  0.00    +0.063 S 
ATOM      4  O   UNL     1      -3.318  -1.618   1.198  0.00  0.00    -0.153 OA
ATOM      5  O   UNL     1      -0.966  -1.755   2.005  0.00  0.00    -0.153 OA
BRANCH   3   6
ATOM      6  C   UNL     1      -2.308   0.381   2.439  0.00  0.00    +0.164 A 
ATOM      7  C   UNL     1      -1.633   0.687   3.570  0.00  0.00    +0.135 A 
ATOM      8  N   UNL     1      -2.134   1.845   4.050  0.00  0.00    -0.281 N 
ATOM      9  H   UNL     1      -1.840   2.304   4.853  0.00  0.00    +0.188 HD
ATOM     10  N   UNL     1      -3.152   2.269   3.187  0.00  0.00    -0.157 NA
ATOM     11  C   UNL     1      -3.255   1.394   2.214  0.00  0.00    +0.164 A 
ATOM     12  N   UNL     1      -4.152   1.458   1.142  0.00  0.00    -0.340 N 
ATOM     13  H   UNL     1      -4.109   0.797   0.433  0.00  0.00    +0.144 HD
ATOM     14  H   UNL     1      -4.818   2.163   1.108  0.00  0.00    +0.144 HD
ENDBRANCH   3   6
ENDBRANCH   1   3
BRANCH   1  16
ATOM     15  C   UNL     1      -0.469   1.667  -0.559  0.00  0.00    +0.026 C 
ATOM     16  C   UNL     1      -0.225   0.215  -0.143  0.00  0.00    +0.078 C 
BRANCH  16  17
ATOM     17  C   UNL     1       0.656  -0.474  -1.188  0.00  0.00    +0.055 C 
BRANCH  17  18
ATOM     18  C   UNL     1       0.998  -1.865  -0.719  0.00  0.00    -0.046 A 
ATOM     19  C   UNL     1       2.130  -2.077   0.046  0.00  0.00    +0.006 A 
ATOM     20  C   UNL     1       2.444  -3.352   0.477  0.00  0.00    +0.038 A 
ATOM     21  C   UNL     1       1.625  -4.417   0.142  0.00  0.00    +0.123 A 
ATOM     22  C   UNL     1       0.491  -4.203  -0.624  0.00  0.00    +0.038 A 
ATOM     23  C   UNL     1       0.176  -2.926  -1.049  0.00  0.00    +0.006 A 
ATOM     24  F   UNL     1       1.931  -5.663   0.563  0.00  0.00    -0.205 F 
ENDBRANCH  17  18
ENDBRANCH  16  17
ENDBRANCH   1  16
TORSDOF 5
