REMARK  Name = ZINC09328641
REMARK  10 active torsions:
REMARK  status: ('A' for Active; 'I' for Inactive)
REMARK    1  A    between atoms: C_1  and  O_2
REMARK    2  A    between atoms: O_2  and  C_3
REMARK    3  A    between atoms: C_6  and  O_34
REMARK    4  A    between atoms: C_7  and  C_9
REMARK    5  A    between atoms: C_17  and  O_33
REMARK    6  A    between atoms: C_20  and  C_21
REMARK    7  A    between atoms: C_20  and  N_65
REMARK    8  A    between atoms: N_23  and  C_24
REMARK    9  A    between atoms: C_27  and  N_30
REMARK   10  A    between atoms: O_34  and  C_35
REMARK                            x       y       z     vdW  Elec       q    Type
REMARK                         _______ _______ _______ _____ _____    ______ ____
ROOT
ATOM      1  C   UNL     1      -1.647   3.211  -0.072  0.00  0.00    -0.027 C 
ATOM      2  C   UNL     1      -1.002   2.574   1.163  0.00  0.00    +0.011 C 
ATOM      3  C   UNL     1       0.472   2.979   1.224  0.00  0.00    +0.005 C 
ATOM      4  C   UNL     1       1.134   2.326   2.439  0.00  0.00    +0.000 C 
ATOM      5  C   UNL     1       1.034   0.804   2.315  0.00  0.00    +0.003 C 
ATOM      6  C   UNL     1      -0.440   0.396   2.259  0.00  0.00    +0.035 C 
ATOM      7  C   UNL     1      -1.108   1.051   1.052  0.00  0.00    +0.066 C 
ATOM      8  C   UNL     1      -0.419   0.592  -0.235  0.00  0.00    +0.016 C 
ATOM      9  C   UNL     1      -1.071   1.288  -1.432  0.00  0.00    -0.075 C 
ATOM     10  N   UNL     1      -0.924   2.751  -1.277  0.00  0.00    +0.390 N 
ATOM     11  H   UNL     1       0.073   2.976  -1.173  0.00  0.00    -0.080 HD
ENDROOT
BRANCH   1  16
ATOM     12  C   UNL     1      -0.452   6.758  -0.593  0.00  0.00    +0.121 A 
ATOM     13  C   UNL     1      -1.345   7.470   0.194  0.00  0.00    +0.049 A 
ATOM     14  C   UNL     1      -2.333   6.804   0.892  0.00  0.00    +0.049 A 
ATOM     15  C   UNL     1      -2.435   5.424   0.804  0.00  0.00    +0.122 A 
ATOM     16  C   UNL     1      -1.539   4.711   0.021  0.00  0.00    -0.015 A 
ATOM     17  C   UNL     1      -0.551   5.377  -0.678  0.00  0.00    +0.051 A 
BRANCH  12  19
ATOM     18  C   UNL     1       0.564   8.835  -1.147  0.00  0.00    +0.277 C 
ATOM     19  O   UNL     1       0.521   7.413  -1.281  0.00  0.00    -0.495 OA
ENDBRANCH  12  19
BRANCH  15  20
ATOM     20  O   UNL     1      -3.411   4.769   1.487  0.00  0.00    -0.495 OA
ATOM     21  C   UNL     1      -4.299   5.566   2.274  0.00  0.00    +0.277 C 
ENDBRANCH  15  20
ENDBRANCH   1  16
BRANCH   7  22
ATOM     22  O   UNL     1      -2.485   0.673   1.015  0.00  0.00    -0.388 OA
ATOM     23  H   UNL     1      -2.629  -0.280   0.938  0.00  0.00    +0.210 HD
ENDBRANCH   7  22
BRANCH  10  24
ATOM     24  C   UNL     1      -1.449   3.440  -2.474  0.00  0.00    +0.020 C 
BRANCH  24  25
ATOM     25  C   UNL     1      -0.552   3.129  -3.645  0.00  0.00    +0.201 C 
ATOM     26  O   UNL     1       0.405   2.399  -3.498  0.00  0.00    -0.278 OA
ATOM     27  N   UNL     1      -0.814   3.662  -4.854  0.00  0.00    -0.287 N 
ATOM     28  H   UNL     1      -1.621   4.183  -4.990  0.00  0.00    +0.155 HD
BRANCH  27  29
ATOM     29  C   UNL     1       0.078   3.464  -5.914  0.00  0.00    +0.033 A 
ATOM     30  C   UNL     1       1.442   3.375  -5.669  0.00  0.00    +0.025 A 
ATOM     31  C   UNL     1       2.319   3.174  -6.717  0.00  0.00    +0.034 A 
ATOM     32  C   UNL     1       1.841   3.072  -8.010  0.00  0.00    +0.126 A 
ATOM     33  C   UNL     1       0.484   3.165  -8.259  0.00  0.00    +0.034 A 
ATOM     34  C   UNL     1      -0.399   3.361  -7.215  0.00  0.00    +0.025 A 
BRANCH  32  35
ATOM     35  N   UNL     1       2.784   2.863  -9.132  0.00  0.00    +0.056 N 
ATOM     36  O   UNL     1       2.365   2.773 -10.272  0.00  0.00    -0.126 OA
ATOM     37  O   UNL     1       3.980   2.781  -8.915  0.00  0.00    -0.126 OA
ENDBRANCH  32  35
ENDBRANCH  27  29
ENDBRANCH  24  25
ENDBRANCH  10  24
TORSDOF 8
