REMARK  Name = ZINC09578810
REMARK  6 active torsions:
REMARK  status: ('A' for Active; 'I' for Inactive)
REMARK    1  A    between atoms: C_4  and  C_7
REMARK    2  A    between atoms: C_18  and  C_20
REMARK    3  A    between atoms: C_20  and  N_64
REMARK    4  A    between atoms: C_23  and  C_26
REMARK    5  A    between atoms: N_28  and  C_29
REMARK    6  A    between atoms: C_34  and  O_35
REMARK                            x       y       z     vdW  Elec       q    Type
REMARK                         _______ _______ _______ _____ _____    ______ ____
ROOT
ATOM      1  C   UNL     1      -1.111  -1.037   0.530  0.00  0.00    +0.019 C 
ENDROOT
BRANCH   1  12
ATOM      2  C   UNL     1      -1.082   1.792   0.076  0.00  0.00    +0.149 C 
ATOM      3  C   UNL     1      -1.116   2.753  -1.121  0.00  0.00    +0.256 C 
ATOM      4  O   UNL     1      -2.243   3.622  -0.982  0.00  0.00    -0.488 OA
ATOM      5  C   UNL     1      -3.449   3.057  -0.714  0.00  0.00    +0.142 A 
ATOM      6  C   UNL     1      -4.613   3.764  -0.981  0.00  0.00    +0.047 A 
ATOM      7  C   UNL     1      -5.844   3.199  -0.707  0.00  0.00    +0.004 A 
ATOM      8  C   UNL     1      -5.924   1.929  -0.166  0.00  0.00    +0.002 A 
ATOM      9  C   UNL     1      -4.770   1.217   0.102  0.00  0.00    +0.027 A 
ATOM     10  C   UNL     1      -3.533   1.780  -0.167  0.00  0.00    +0.079 A 
ATOM     11  N   UNL     1      -2.357   1.054   0.091  0.00  0.00    -0.259 N 
ATOM     12  C   UNL     1      -2.394  -0.268   0.349  0.00  0.00    +0.204 C 
ATOM     13  O   UNL     1      -3.461  -0.839   0.436  0.00  0.00    -0.277 OA
BRANCH   2  17
ATOM     14  C   UNL     1      -0.645   4.008   3.701  0.00  0.00    +0.000 A 
ATOM     15  C   UNL     1       0.454   3.397   3.128  0.00  0.00    +0.000 A 
ATOM     16  C   UNL     1       0.313   2.679   1.955  0.00  0.00    +0.005 A 
ATOM     17  C   UNL     1      -0.928   2.574   1.355  0.00  0.00    -0.023 A 
ATOM     18  C   UNL     1      -2.026   3.190   1.925  0.00  0.00    +0.005 A 
ATOM     19  C   UNL     1      -1.886   3.903   3.101  0.00  0.00    +0.000 A 
ENDBRANCH   2  17
ENDBRANCH   1  12
BRANCH   1  25
ATOM     20  C   UNL     1      -2.153  -2.710   1.936  0.00  0.00    -0.077 C 
ATOM     21  C   UNL     1      -2.578  -4.179   1.998  0.00  0.00    -0.006 C 
ATOM     22  C   UNL     1      -1.333  -5.068   1.938  0.00  0.00    +0.072 C 
ATOM     23  C   UNL     1      -0.556  -4.759   0.655  0.00  0.00    -0.006 C 
ATOM     24  C   UNL     1      -0.190  -3.274   0.631  0.00  0.00    -0.077 C 
ATOM     25  N   UNL     1      -1.432  -2.473   0.667  0.00  0.00    +0.385 N 
ATOM     26  H   UNL     1      -2.034  -2.756  -0.116  0.00  0.00    -0.081 HD
BRANCH  22  27
ATOM     27  C   UNL     1      -1.748  -6.517   1.939  0.00  0.00    +0.220 C 
ATOM     28  O   UNL     1      -1.453  -7.233   1.006  0.00  0.00    -0.275 OA
ATOM     29  N   UNL     1      -2.448  -7.016   2.977  0.00  0.00    -0.282 N 
ATOM     30  H   UNL     1      -2.756  -6.427   3.683  0.00  0.00    +0.155 HD
BRANCH  29  31
ATOM     31  C   UNL     1      -2.731  -8.387   3.036  0.00  0.00    +0.075 A 
ATOM     32  C   UNL     1      -1.917  -9.295   2.374  0.00  0.00    +0.027 A 
ATOM     33  C   UNL     1      -2.199 -10.646   2.433  0.00  0.00    +0.002 A 
ATOM     34  C   UNL     1      -3.290 -11.098   3.152  0.00  0.00    +0.004 A 
ATOM     35  C   UNL     1      -4.106 -10.200   3.815  0.00  0.00    +0.047 A 
ATOM     36  C   UNL     1      -3.827  -8.844   3.764  0.00  0.00    +0.138 A 
BRANCH  36  37
ATOM     37  O   UNL     1      -4.625  -7.960   4.421  0.00  0.00    -0.505 OA
ATOM     38  H   UNL     1      -5.364  -7.629   3.892  0.00  0.00    +0.292 HD
ENDBRANCH  36  37
ENDBRANCH  29  31
ENDBRANCH  22  27
ENDBRANCH   1  25
TORSDOF 6
