REMARK  Name = ZINC15156285
REMARK  10 active torsions:
REMARK  status: ('A' for Active; 'I' for Inactive)
REMARK    1  A    between atoms: C_1  and  C_2
REMARK    2  A    between atoms: C_2  and  O_3
REMARK    3  A    between atoms: O_3  and  C_4
REMARK    4  A    between atoms: C_4  and  C_6
REMARK    5  A    between atoms: C_10  and  N_11
REMARK    6  A    between atoms: C_12  and  C_14
REMARK    7  A    between atoms: C_14  and  C_16
REMARK    8  A    between atoms: C_14  and  S_22
REMARK    9  A    between atoms: S_22  and  C_23
REMARK   10  A    between atoms: C_30  and  C_34
REMARK                            x       y       z     vdW  Elec       q    Type
REMARK                         _______ _______ _______ _____ _____    ______ ____
ROOT
ATOM      1  N   UNL     1       1.933  -5.845  -1.737  0.00  0.00    -0.278 N 
ATOM      2  C   UNL     1       2.231  -6.105  -3.026  0.00  0.00    +0.235 C 
ATOM      3  O   UNL     1       2.202  -5.214  -3.847  0.00  0.00    -0.274 OA
ATOM      4  H   UNL     1       1.956  -6.558  -1.080  0.00  0.00    +0.155 HD
ENDROOT
BRANCH   1   9
ATOM      5  C   UNL     1       1.259  -4.096  -0.085  0.00  0.00    +0.091 A 
ATOM      6  C   UNL     1       0.942  -2.684   0.053  0.00  0.00    -0.021 A 
ATOM      7  C   UNL     1       1.009  -1.966  -1.089  0.00  0.00    -0.004 A 
ATOM      8  S   UNL     1       1.485  -3.133  -2.332  0.00  0.00    -0.077 S 
ATOM      9  C   UNL     1       1.594  -4.557  -1.351  0.00  0.00    +0.086 A 
ATOM     10  C   UNL     1       0.736  -0.502  -1.252  0.00  0.00    +0.046 C 
ATOM     11  C   UNL     1       0.002  -0.004   0.002  0.00  0.00    -0.009 C 
ATOM     12  C   UNL     1       0.742  -0.514   1.242  0.00  0.00    +0.008 C 
ATOM     13  C   UNL     1       0.557  -2.027   1.373  0.00  0.00    +0.037 C 
ATOM     14  C   UNL     1      -0.019   1.526   0.010  0.00  0.00    +0.008 C 
BRANCH   5  15
ATOM     15  C   UNL     1       1.226  -4.998   1.068  0.00  0.00    +0.342 C 
ATOM     16  O   UNL     1       0.199  -5.582   1.355  0.00  0.00    -0.245 OA
BRANCH  15  17
ATOM     17  O   UNL     1       2.336  -5.181   1.813  0.00  0.00    -0.461 OA
BRANCH  17  19
ATOM     18  C   UNL     1       3.579  -6.169   3.659  0.00  0.00    +0.048 C 
ATOM     19  C   UNL     1       2.231  -6.090   2.941  0.00  0.00    +0.229 C 
ENDBRANCH  17  19
ENDBRANCH  15  17
ENDBRANCH   5  15
ENDBRANCH   1   9
BRANCH   2  20
ATOM     20  C   UNL     1       2.599  -7.505  -3.445  0.00  0.00    +0.169 C 
BRANCH  20  21
ATOM     21  C   UNL     1       4.042  -7.770  -3.098  0.00  0.00    -0.025 A 
ATOM     22  C   UNL     1       5.040  -6.988  -3.647  0.00  0.00    +0.005 A 
ATOM     23  C   UNL     1       6.363  -7.228  -3.325  0.00  0.00    +0.000 A 
ATOM     24  C   UNL     1       6.688  -8.257  -2.460  0.00  0.00    +0.000 A 
ATOM     25  C   UNL     1       5.689  -9.043  -1.915  0.00  0.00    +0.000 A 
ATOM     26  C   UNL     1       4.367  -8.799  -2.234  0.00  0.00    +0.005 A 
ENDBRANCH  20  21
BRANCH  20  27
ATOM     27  S   UNL     1       2.367  -7.681  -5.236  0.00  0.00    -0.079 S 
BRANCH  27  28
ATOM     28  C   UNL     1       2.691  -9.385  -5.542  0.00  0.00    +0.161 A 
ATOM     29  N   UNL     1       3.026 -10.338  -4.694  0.00  0.00    -0.133 NA
ATOM     30  N   UNL     1       3.234 -11.619  -5.151  0.00  0.00    -0.125 NA
ATOM     31  C   UNL     1       3.098 -11.888  -6.435  0.00  0.00    +0.180 A 
ATOM     32  S   UNL     1       2.646 -10.287  -7.084  0.00  0.00    -0.025 S 
ATOM     33  N   UNL     1       3.259 -13.096  -7.104  0.00  0.00    -0.336 N 
ATOM     34  H   UNL     1       3.507 -13.894  -6.611  0.00  0.00    +0.144 HD
ATOM     35  H   UNL     1       3.123 -13.141  -8.063  0.00  0.00    +0.144 HD
ENDBRANCH  27  28
ENDBRANCH  20  27
ENDBRANCH   2  20
TORSDOF 8
