REMARK  Name = ZINC20158968
REMARK  6 active torsions:
REMARK  status: ('A' for Active; 'I' for Inactive)
REMARK    1  A    between atoms: C_1  and  C_2
REMARK    2  A    between atoms: C_2  and  N_3
REMARK    3  A    between atoms: N_3  and  N_4
REMARK    4  A    between atoms: C_5  and  C_7
REMARK    5  A    between atoms: C_15  and  C_16
REMARK    6  A    between atoms: N_18  and  C_19
REMARK                            x       y       z     vdW  Elec       q    Type
REMARK                         _______ _______ _______ _____ _____    ______ ____
ROOT
ATOM      1  C   UNL     1      -2.126  -0.526  -0.524  0.00  0.00    +0.062 C 
ATOM      2  C   UNL     1      -2.442   0.937  -0.345  0.00  0.00    +0.024 C 
ATOM      3  C   UNL     1      -1.326   1.929  -0.142  0.00  0.00    +0.087 C 
ENDROOT
BRANCH   3   4
ATOM      4  C   UNL     1      -0.003   1.208  -0.158  0.00  0.00    +0.243 C 
ATOM      5  O   UNL     1       0.031   0.006  -0.318  0.00  0.00    -0.270 OA
ATOM      6  N   UNL     1       1.143   1.898   0.001  0.00  0.00    -0.282 N 
ATOM      7  H   UNL     1       1.120   2.997   0.060  0.00  0.00    +0.155 HD
BRANCH   6   8
ATOM      8  C   UNL     1       2.363   1.219   0.092  0.00  0.00    +0.036 A 
ATOM      9  C   UNL     1       2.420  -0.030   0.696  0.00  0.00    +0.043 A 
ATOM     10  C   UNL     1       3.626  -0.702   0.780  0.00  0.00    +0.044 A 
ATOM     11  C   UNL     1       4.777  -0.126   0.271  0.00  0.00    +0.040 A 
ATOM     12  C   UNL     1       4.724   1.121  -0.326  0.00  0.00    +0.044 A 
ATOM     13  C   UNL     1       3.520   1.795  -0.417  0.00  0.00    +0.043 A 
ATOM     14 CL   UNL     1       6.170   1.841  -0.963  0.00  0.00    -0.083 Cl
ATOM     15 CL   UNL     1       3.697  -2.266   1.530  0.00  0.00    -0.083 Cl
ENDBRANCH   6   8
ENDBRANCH   3   4
BRANCH   2  16
ATOM     16  N   UNL     1      -3.658   1.336  -0.367  0.00  0.00    -0.268 N 
ATOM     17  H   UNL     1      -3.888   2.404  -0.237  0.00  0.00    +0.170 HD
BRANCH  16  18
ATOM     18  N   UNL     1      -4.695   0.414  -0.556  0.00  0.00    -0.233 N 
ATOM     19  C   UNL     1      -5.975   0.834  -0.579  0.00  0.00    +0.261 C 
ATOM     20  O   UNL     1      -6.230   2.014  -0.435  0.00  0.00    -0.269 OA
ATOM     21  H   UNL     1      -4.464  -0.654  -0.686  0.00  0.00    +0.173 HD
BRANCH  19  22
ATOM     22  C   UNL     1      -7.068  -0.138  -0.778  0.00  0.00    +0.057 A 
ATOM     23  C   UNL     1      -6.779  -1.495  -0.944  0.00  0.00    +0.016 A 
ATOM     24  C   UNL     1      -7.804  -2.397  -1.129  0.00  0.00    +0.021 A 
ATOM     25  C   UNL     1      -9.119  -1.963  -1.152  0.00  0.00    +0.042 A 
ATOM     26  C   UNL     1      -9.414  -0.620  -0.989  0.00  0.00    +0.040 A 
ATOM     27  C   UNL     1      -8.397   0.294  -0.796  0.00  0.00    +0.054 A 
ATOM     28 CL   UNL     1      -8.768   1.976  -0.583  0.00  0.00    -0.083 Cl
ATOM     29 CL   UNL     1     -10.404  -3.107  -1.386  0.00  0.00    -0.083 Cl
ENDBRANCH  19  22
ENDBRANCH  16  18
ENDBRANCH   2  16
TORSDOF 5
