REMARK  Name = ZINC21002258
REMARK  6 active torsions:
REMARK  status: ('A' for Active; 'I' for Inactive)
REMARK    1  A    between atoms: C_1  and  O_2
REMARK    2  A    between atoms: O_2  and  C_3
REMARK    3  A    between atoms: C_8  and  N_9
REMARK    4  A    between atoms: C_15  and  C_17
REMARK    5  A    between atoms: C_20  and  N_23
REMARK    6  A    between atoms: N_26  and  C_27
REMARK                            x       y       z     vdW  Elec       q    Type
REMARK                         _______ _______ _______ _____ _____    ______ ____
ROOT
ATOM      1  C   UNL     1       7.183   2.353   1.230  0.00  0.00    +0.037 A 
ATOM      2  C   UNL     1       6.550   1.776   2.334  0.00  0.00    +0.015 A 
ATOM      3  C   UNL     1       7.193   1.738   3.551  0.00  0.00    +0.024 A 
ATOM      4  C   UNL     1       8.465   2.284   3.685  0.00  0.00    +0.035 A 
ATOM      5  C   UNL     1       9.095   2.865   2.589  0.00  0.00    +0.024 A 
ATOM      6  C   UNL     1       8.461   2.901   1.368  0.00  0.00    +0.015 A 
ENDROOT
BRANCH   1  13
ATOM      7  N   UNL     1       4.768  -0.973  -1.593  0.00  0.00    -0.324 N 
ATOM      8  C   UNL     1       5.080   0.174  -2.455  0.00  0.00    +0.124 C 
ATOM      9  C   UNL     1       4.874   1.472  -1.668  0.00  0.00    +0.127 C 
ATOM     10  N   UNL     1       5.659   1.396  -0.427  0.00  0.00    -0.295 N 
ATOM     11  C   UNL     1       5.500   0.207   0.424  0.00  0.00    +0.127 C 
ATOM     12  C   UNL     1       5.683  -1.042  -0.445  0.00  0.00    +0.124 C 
ATOM     13  C   UNL     1       6.500   2.390  -0.078  0.00  0.00    +0.247 C 
ATOM     14  O   UNL     1       6.696   3.316  -0.841  0.00  0.00    -0.270 OA
BRANCH   7  20
ATOM     15  C   UNL     1       3.617  -2.911  -2.474  0.00  0.00    +0.141 A 
ATOM     16  C   UNL     1       3.643  -4.096  -3.191  0.00  0.00    +0.047 A 
ATOM     17  C   UNL     1       4.824  -4.534  -3.761  0.00  0.00    +0.004 A 
ATOM     18  C   UNL     1       5.984  -3.798  -3.610  0.00  0.00    +0.002 A 
ATOM     19  C   UNL     1       5.968  -2.617  -2.891  0.00  0.00    +0.027 A 
ATOM     20  C   UNL     1       4.786  -2.168  -2.321  0.00  0.00    +0.072 A 
BRANCH  15  22
ATOM     21  C   UNL     1       1.297  -3.288  -2.115  0.00  0.00    +0.277 C 
ATOM     22  O   UNL     1       2.455  -2.475  -1.917  0.00  0.00    -0.493 OA
ENDBRANCH  15  22
ENDBRANCH   7  20
ENDBRANCH   1  13
BRANCH   4  23
ATOM     23  N   UNL     1       9.110   2.250   4.921  0.00  0.00    -0.269 N 
ATOM     24  C   UNL     1      10.451   2.129   4.978  0.00  0.00    +0.308 C 
ATOM     25  O   UNL     1      11.090   1.953   3.958  0.00  0.00    -0.252 OA
ATOM     26  N   UNL     1      11.085   2.203   6.165  0.00  0.00    -0.269 N 
ATOM     27  H   UNL     1       8.525   2.323   5.849  0.00  0.00    +0.156 HD
ATOM     28  H   UNL     1      10.503   2.285   7.095  0.00  0.00    +0.156 HD
BRANCH  26  29
ATOM     29  C   UNL     1      12.483   2.174   6.215  0.00  0.00    +0.035 A 
ATOM     30  C   UNL     1      13.195   1.381   5.325  0.00  0.00    +0.023 A 
ATOM     31  C   UNL     1      14.575   1.359   5.373  0.00  0.00    +0.002 A 
ATOM     32  C   UNL     1      15.248   2.118   6.314  0.00  0.00    +0.000 A 
ATOM     33  C   UNL     1      14.541   2.904   7.205  0.00  0.00    +0.002 A 
ATOM     34  C   UNL     1      13.161   2.934   7.159  0.00  0.00    +0.023 A 
ENDBRANCH  26  29
ENDBRANCH   4  23
TORSDOF 5
