REMARK  Name = ZINC09283781
REMARK  4 active torsions:
REMARK  status: ('A' for Active; 'I' for Inactive)
REMARK    1  A    between atoms: C_6  and  C_7
REMARK    2  A    between atoms: N_9  and  N_10
REMARK    3  A    between atoms: C_11  and  C_13
REMARK    4  A    between atoms: C_13  and  C_14
REMARK                            x       y       z     vdW  Elec       q    Type
REMARK                         _______ _______ _______ _____ _____    ______ ____
ROOT
ATOM      1  C   UNL     1      -1.402   1.145   5.051  0.00  0.00    +0.260 C 
ATOM      2  O   UNL     1      -0.566   0.279   5.217  0.00  0.00    -0.269 OA
ATOM      3  N   UNL     1      -2.167   1.551   6.084  0.00  0.00    -0.230 N 
ATOM      4  H   UNL     1      -2.834   2.243   5.951  0.00  0.00    +0.173 HD
ENDROOT
BRANCH   1  10
ATOM      5  C   UNL     1      -2.540   2.751   3.525  0.00  0.00    +0.015 A 
ATOM      6  C   UNL     1      -2.702   3.330   2.285  0.00  0.00    +0.026 A 
ATOM      7  C   UNL     1      -1.903   2.918   1.224  0.00  0.00    +0.062 A 
ATOM      8  C   UNL     1      -0.961   1.914   1.417  0.00  0.00    +0.134 A 
ATOM      9  C   UNL     1      -0.785   1.334   2.643  0.00  0.00    +0.044 A 
ATOM     10  C   UNL     1      -1.580   1.754   3.718  0.00  0.00    +0.040 A 
ATOM     11  S   UNL     1      -0.017   1.417   0.010  0.00  0.00    +0.102 S 
ATOM     12  O   UNL     1       0.002  -0.004   0.002  0.00  0.00    -0.146 OA
ATOM     13  O   UNL     1       1.166   2.203   0.003  0.00  0.00    -0.146 OA
ATOM     14  N   UNL     1      -0.927   1.897  -1.287  0.00  0.00    -0.118 NA
ATOM     15  C   UNL     1      -1.828   2.838  -1.178  0.00  0.00    +0.124 C 
ATOM     16  N   UNL     1      -2.048   3.530  -0.041  0.00  0.00    -0.286 N 
ATOM     17  C   UNL     1      -2.436   4.922   0.039  0.00  0.00    +0.112 C 
ATOM     18  C   UNL     1      -2.072   5.878  -1.011  0.00  0.00    +0.019 C 
ATOM     19  C   UNL     1      -2.158   5.602  -2.467  0.00  0.00    +0.002 C 
ATOM     20  C   UNL     1      -2.929   4.415  -2.965  0.00  0.00    +0.008 C 
ATOM     21  C   UNL     1      -2.597   3.108  -2.399  0.00  0.00    +0.073 C 
ENDBRANCH   1  10
BRANCH   3  22
ATOM     22  N   UNL     1      -1.999   0.974   7.349  0.00  0.00    -0.234 N 
ATOM     23  C   UNL     1      -2.763   1.379   8.382  0.00  0.00    +0.230 C 
ATOM     24  O   UNL     1      -3.597   2.244   8.216  0.00  0.00    -0.274 OA
ATOM     25  H   UNL     1      -1.332   0.282   7.482  0.00  0.00    +0.173 HD
BRANCH  23  26
ATOM     26  C   UNL     1      -2.582   0.758   9.743  0.00  0.00    +0.104 C 
BRANCH  26  27
ATOM     27  C   UNL     1      -3.566   1.392  10.728  0.00  0.00    -0.020 C 
ATOM     28  C   UNL     1      -3.302   2.897  10.815  0.00  0.00    +0.011 C 
ATOM     29  C   UNL     1      -4.286   3.531  11.800  0.00  0.00    -0.010 C 
ATOM     30  C   UNL     1      -4.102   2.901  13.182  0.00  0.00    +0.007 C 
ATOM     31  C   UNL     1      -4.366   1.396  13.095  0.00  0.00    -0.010 C 
ATOM     32  C   UNL     1      -3.382   0.762  12.110  0.00  0.00    +0.011 C 
ATOM     33  C   UNL     1      -5.798   1.156  12.612  0.00  0.00    +0.007 C 
ATOM     34  C   UNL     1      -5.982   1.787  11.230  0.00  0.00    -0.010 C 
ATOM     35  C   UNL     1      -5.718   3.292  11.317  0.00  0.00    +0.007 C 
ATOM     36  C   UNL     1      -4.998   1.153  10.245  0.00  0.00    +0.011 C 
ENDBRANCH  26  27
ENDBRANCH  23  26
ENDBRANCH   3  22
TORSDOF 4
