REMARK  Name = ZINC40368169
REMARK  11 active torsions:
REMARK  status: ('A' for Active; 'I' for Inactive)
REMARK    1  A    between atoms: C_1  and  C_2
REMARK    2  A    between atoms: C_2  and  N_3
REMARK    3  A    between atoms: N_3  and  C_4
REMARK    4  A    between atoms: C_4  and  C_5
REMARK    5  A    between atoms: C_6  and  C_8
REMARK    6  A    between atoms: C_9  and  C_36
REMARK    7  A    between atoms: C_13  and  C_15
REMARK    8  A    between atoms: C_19  and  N_21
REMARK    9  A    between atoms: C_22  and  C_24
REMARK   10  A    between atoms: C_28  and  O_30
REMARK   11  A    between atoms: O_30  and  C_31
REMARK                            x       y       z     vdW  Elec       q    Type
REMARK                         _______ _______ _______ _____ _____    ______ ____
ROOT
ATOM      1  C   UNL     1      -1.681  -0.198  -2.611  0.00  0.00    +0.058 C 
ATOM      2  C   UNL     1      -2.204  -0.274  -3.866  0.00  0.00    +0.025 C 
ATOM      3  N   UNL     1      -3.495  -0.022  -4.086  0.00  0.00    -0.341 N 
ATOM      4  C   UNL     1      -4.244   0.562  -3.172  0.00  0.00    +0.135 C 
ATOM      5  N   UNL     1      -3.724   0.918  -1.957  0.00  0.00    -0.300 N 
ATOM      6  C   UNL     1      -2.589   0.120  -1.446  0.00  0.00    +0.143 C 
ATOM      7  C   UNL     1      -4.197   2.051  -1.186  0.00  0.00    +0.109 C 
ATOM      8  C   UNL     1      -5.690   2.281  -1.198  0.00  0.00    +0.030 C 
ATOM      9  C   UNL     1      -6.233   2.436  -2.619  0.00  0.00    +0.078 C 
ATOM     10  S   UNL     1      -5.958   0.860  -3.490  0.00  0.00    -0.092 S 
ATOM     11  C   UNL     1      -1.311  -0.645  -5.022  0.00  0.00    +0.064 C 
ATOM     12  H   UNL     1      -3.891  -0.275  -4.935  0.00  0.00    +0.167 HD
ENDROOT
BRANCH   6  13
ATOM     13  C   UNL     1      -3.096  -1.160  -0.832  0.00  0.00    -0.021 A 
ATOM     14  C   UNL     1      -4.034  -1.923  -1.502  0.00  0.00    +0.006 A 
ATOM     15  C   UNL     1      -4.502  -3.098  -0.943  0.00  0.00    +0.002 A 
ATOM     16  C   UNL     1      -4.034  -3.512   0.289  0.00  0.00    +0.023 A 
ATOM     17  C   UNL     1      -3.092  -2.747   0.965  0.00  0.00    +0.034 A 
ATOM     18  C   UNL     1      -2.620  -1.571   0.397  0.00  0.00    +0.029 A 
BRANCH  17  19
ATOM     19  N   UNL     1      -2.616  -3.164   2.213  0.00  0.00    -0.281 N 
ATOM     20  C   UNL     1      -2.512  -4.479   2.490  0.00  0.00    +0.248 C 
ATOM     21  O   UNL     1      -2.740  -5.302   1.625  0.00  0.00    -0.270 OA
ATOM     22  H   UNL     1      -2.361  -2.506   2.878  0.00  0.00    +0.155 HD
BRANCH  20  23
ATOM     23  C   UNL     1      -2.120  -4.920   3.845  0.00  0.00    +0.040 A 
ATOM     24  C   UNL     1      -1.863  -3.976   4.842  0.00  0.00    +0.013 A 
ATOM     25  C   UNL     1      -1.498  -4.392   6.106  0.00  0.00    +0.004 A 
ATOM     26  C   UNL     1      -1.385  -5.740   6.389  0.00  0.00    +0.045 A 
ATOM     27  C   UNL     1      -1.638  -6.686   5.405  0.00  0.00    +0.121 A 
ATOM     28  C   UNL     1      -2.011  -6.280   4.134  0.00  0.00    +0.058 A 
BRANCH  27  29
ATOM     29  O   UNL     1      -1.524  -8.010   5.689  0.00  0.00    -0.495 OA
ATOM     30  C   UNL     1      -1.141  -8.357   7.021  0.00  0.00    +0.277 C 
ENDBRANCH  27  29
ENDBRANCH  20  23
ENDBRANCH  17  19
ENDBRANCH   6  13
BRANCH   1  32
ATOM     31  N   UNL     1       0.574   0.580  -2.591  0.00  0.00    -0.298 N 
ATOM     32  C   UNL     1      -0.308  -0.420  -2.399  0.00  0.00    +0.246 C 
ATOM     33  O   UNL     1       0.084  -1.518  -2.042  0.00  0.00    -0.270 OA
BRANCH  31  35
ATOM     34  C   UNL     1       0.143   2.114  -4.447  0.00  0.00    +0.024 C 
ATOM     35  C   UNL     1       0.096   1.923  -2.930  0.00  0.00    +0.104 C 
ENDBRANCH  31  35
BRANCH  31  36
ATOM     36  C   UNL     1       2.011   0.325  -2.462  0.00  0.00    +0.104 C 
ATOM     37  C   UNL     1       2.443   0.566  -1.014  0.00  0.00    +0.024 C 
ENDBRANCH  31  36
ENDBRANCH   1  32
TORSDOF 7
