REMARK  Name = ZINC39466763
REMARK  5 active torsions:
REMARK  status: ('A' for Active; 'I' for Inactive)
REMARK    1  A    between atoms: C_4  and  C_7
REMARK    2  A    between atoms: C_7  and  P_8
REMARK    3  A    between atoms: C_16  and  S_27
REMARK    4  A    between atoms: S_27  and  O_30
REMARK    5  A    between atoms: O_30  and  C_31
REMARK                            x       y       z     vdW  Elec       q    Type
REMARK                         _______ _______ _______ _____ _____    ______ ____
ROOT
ATOM      1  P   UNL     1       4.044   0.398   2.913  0.00  0.00    +0.262 P 
ATOM      2  O   UNL     1       3.072  -0.614   3.386  0.00  0.00    -0.274 OA
ATOM      3  N   UNL     1       5.528  -0.289   2.691  0.00  0.00    -0.291 NA
ATOM      4  N   UNL     1       6.301  -0.524   3.808  0.00  0.00    +0.397 N 
ATOM      5  C   UNL     1       7.593  -1.023   3.310  0.00  0.00    -0.046 C 
ATOM      6  C   UNL     1       8.537  -1.339   4.463  0.00  0.00    +0.006 C 
ATOM      7  C   UNL     1       7.945  -2.399   5.354  0.00  0.00    +0.009 C 
ATOM      8  C   UNL     1       8.361  -2.504   6.613  0.00  0.00    +0.159 C 
ATOM      9  C   UNL     1       9.404  -1.588   7.111  0.00  0.00    +0.148 C 
ATOM     10  C   UNL     1       9.614  -0.427   6.493  0.00  0.00    +0.017 C 
ATOM     11  C   UNL     1       8.774  -0.072   5.290  0.00  0.00    +0.018 C 
ATOM     12  C   UNL     1       7.421   0.461   5.763  0.00  0.00    -0.002 C 
ATOM     13  C   UNL     1       6.493   0.713   4.569  0.00  0.00    -0.020 C 
ATOM     14  C   UNL     1       5.165   1.236   5.133  0.00  0.00    +0.156 C 
ATOM     15  O   UNL     1       4.268   1.540   4.050  0.00  0.00    -0.319 OA
ATOM     16  F   UNL     1      10.143  -1.925   8.190  0.00  0.00    -0.204 F 
ATOM     17  H   UNL     1       5.846  -0.519   1.804  0.00  0.00    +0.111 HD
ATOM     18  H   UNL     1       5.856  -1.217   4.390  0.00  0.00    -0.055 HD
ENDROOT
BRANCH   8  19
ATOM     19  S   UNL     1       7.672  -3.727   7.677  0.00  0.00    +0.153 S 
ATOM     20  O   UNL     1       7.789  -3.226   9.002  0.00  0.00    -0.131 OA
ATOM     21  O   UNL     1       6.423  -4.100   7.112  0.00  0.00    -0.131 OA
BRANCH  19  22
ATOM     22  O   UNL     1       8.570  -4.953   7.595  0.00  0.00    -0.342 OA
BRANCH  22  23
ATOM     23  C   UNL     1       9.750  -4.819   8.255  0.00  0.00    +0.157 A 
ATOM     24  C   UNL     1      10.888  -4.418   7.570  0.00  0.00    +0.048 A 
ATOM     25  C   UNL     1      12.086  -4.282   8.243  0.00  0.00    +0.004 A 
ATOM     26  C   UNL     1      12.153  -4.546   9.599  0.00  0.00    +0.000 A 
ATOM     27  C   UNL     1      11.021  -4.947  10.284  0.00  0.00    +0.004 A 
ATOM     28  C   UNL     1       9.818  -5.078   9.616  0.00  0.00    +0.048 A 
ENDBRANCH  22  23
ENDBRANCH  19  22
ENDBRANCH   8  19
BRANCH   1  29
ATOM     29  C   UNL     1       3.460   1.157   1.361  0.00  0.00    +0.147 C 
BRANCH  29  33
ATOM     30  C   UNL     1      -0.241   3.171   2.064  0.00  0.00    +0.000 A 
ATOM     31  C   UNL     1       0.954   3.848   2.218  0.00  0.00    +0.000 A 
ATOM     32  C   UNL     1       2.152   3.196   1.990  0.00  0.00    +0.004 A 
ATOM     33  C   UNL     1       2.154   1.867   1.610  0.00  0.00    -0.037 A 
ATOM     34  C   UNL     1       0.959   1.190   1.458  0.00  0.00    +0.004 A 
ATOM     35  C   UNL     1      -0.239   1.842   1.684  0.00  0.00    +0.000 A 
ENDBRANCH  29  33
ENDBRANCH   1  29
TORSDOF 5
