REMARK  Name = ZINC16036757
REMARK  11 active torsions:
REMARK  status: ('A' for Active; 'I' for Inactive)
REMARK    1  A    between atoms: C_1  and  C_2
REMARK    2  A    between atoms: C_2  and  C_4
REMARK    3  A    between atoms: C_4  and  O_40
REMARK    4  A    between atoms: C_9  and  C_39
REMARK    5  A    between atoms: N_21  and  O_22
REMARK    6  A    between atoms: O_22  and  C_23
REMARK    7  A    between atoms: C_23  and  C_24
REMARK    8  A    between atoms: N_26  and  C_27
REMARK    9  A    between atoms: C_27  and  C_28
REMARK   10  A    between atoms: C_28  and  C_29
REMARK   11  A    between atoms: C_37  and  C_38
REMARK                            x       y       z     vdW  Elec       q    Type
REMARK                         _______ _______ _______ _____ _____    ______ ____
ROOT
ATOM      1  C   UNL     1       9.497  -4.120  -4.176  0.00  0.00    +0.129 C 
ATOM      2  C   UNL     1       8.920  -5.405  -3.531  0.00  0.00    +0.043 C 
ATOM      3  C   UNL     1       8.402  -5.000  -2.125  0.00  0.00    +0.008 C 
ATOM      4  C   UNL     1       8.231  -3.479  -2.250  0.00  0.00    +0.002 C 
ATOM      5  C   UNL     1       9.496  -3.083  -3.047  0.00  0.00    +0.007 C 
ATOM      6  C   UNL     1       9.361  -1.641  -3.474  0.00  0.00    +0.010 C 
ATOM      7  C   UNL     1       9.152  -0.735  -2.265  0.00  0.00    +0.005 C 
ATOM      8  C   UNL     1       8.128  -1.203  -1.240  0.00  0.00    +0.002 C 
ATOM      9  C   UNL     1       8.181  -2.697  -0.966  0.00  0.00    -0.003 C 
ATOM     10  C   UNL     1       7.059  -3.190  -0.057  0.00  0.00    +0.008 C 
ATOM     11  C   UNL     1       5.697  -2.807  -0.641  0.00  0.00    +0.031 C 
ATOM     12  C   UNL     1       5.685  -1.288  -0.710  0.00  0.00    -0.062 C 
ATOM     13  C   UNL     1       4.716  -0.648  -0.065  0.00  0.00    +0.026 C 
ATOM     14  C   UNL     1       4.714   0.828  -0.112  0.00  0.00    +0.080 C 
ATOM     15  N   UNL     1       3.629   1.526  -0.095  0.00  0.00    -0.089 NA
ATOM     16  C   UNL     1       6.094   1.456  -0.184  0.00  0.00    +0.059 C 
ATOM     17  C   UNL     1       6.793   0.894  -1.416  0.00  0.00    +0.017 C 
ATOM     18  C   UNL     1       6.753  -0.621  -1.514  0.00  0.00    -0.007 C 
ATOM     19  C   UNL     1       6.379  -0.888  -2.977  0.00  0.00    +0.016 C 
ATOM     20  C   UNL     1      10.773  -3.271  -2.226  0.00  0.00    +0.015 C 
ENDROOT
BRANCH   1  22
ATOM     21  C   UNL     1      11.471  -3.515  -5.771  0.00  0.00    +0.089 C 
ATOM     22  C   UNL     1      10.902  -4.359  -4.659  0.00  0.00    +0.162 C 
ATOM     23  O   UNL     1      11.575  -5.226  -4.155  0.00  0.00    -0.295 OA
ENDBRANCH   1  22
BRANCH   1  24
ATOM     24  O   UNL     1       8.664  -3.684  -5.250  0.00  0.00    -0.381 OA
ATOM     25  H   UNL     1       8.586  -4.323  -5.971  0.00  0.00    +0.211 HD
ENDBRANCH   1  24
BRANCH  15  26
ATOM     26  O   UNL     1       2.371   0.879  -0.029  0.00  0.00    -0.384 OA
BRANCH  26  27
ATOM     27  C   UNL     1       1.257   1.774  -0.017  0.00  0.00    +0.358 C 
BRANCH  27  28
ATOM     28  C   UNL     1      -0.023   0.982   0.055  0.00  0.00    +0.253 C 
ATOM     29  O   UNL     1       0.015  -0.230   0.092  0.00  0.00    -0.272 OA
ATOM     30  N   UNL     1      -1.210   1.620   0.072  0.00  0.00    -0.312 N 
ATOM     31  H   UNL     1      -1.241   2.589   0.042  0.00  0.00    +0.149 HD
BRANCH  30  32
ATOM     32  C   UNL     1      -2.455   0.849   0.135  0.00  0.00    +0.110 C 
BRANCH  32  33
ATOM     33  C   UNL     1      -3.648   1.807   0.142  0.00  0.00    +0.075 C 
BRANCH  33  34
ATOM     34  C   UNL     1      -4.928   1.015   0.208  0.00  0.00    +0.060 A 
ATOM     35  C   UNL     1      -5.899   1.155   1.130  0.00  0.00    +0.107 A 
ATOM     36  N   UNL     1      -6.875   0.248   0.818  0.00  0.00    -0.351 N 
ATOM     37  H   UNL     1      -7.734   0.107   1.311  0.00  0.00    +0.166 HD
ATOM     38  C   UNL     1      -6.463  -0.421  -0.280  0.00  0.00    +0.196 A 
ATOM     39  N   UNL     1      -5.297   0.043  -0.639  0.00  0.00    -0.241 NA
ENDBRANCH  33  34
ENDBRANCH  32  33
ENDBRANCH  30  32
ENDBRANCH  27  28
ENDBRANCH  26  27
ENDBRANCH  15  26
TORSDOF 8
