REMARK  Name = ZINC66671379
REMARK  5 active torsions:
REMARK  status: ('A' for Active; 'I' for Inactive)
REMARK    1  A    between atoms: C_5  and  C_7
REMARK    2  A    between atoms: C_7  and  C_9
REMARK    3  A    between atoms: C_7  and  N_16
REMARK    4  A    between atoms: N_19  and  C_20
REMARK    5  A    between atoms: C_25  and  N_26
REMARK                            x       y       z     vdW  Elec       q    Type
REMARK                         _______ _______ _______ _____ _____    ______ ____
ROOT
ATOM      1  N   UNL     1       1.862  -2.633   1.225  0.00  0.00    -0.287 N 
ATOM      2  C   UNL     1       1.102  -2.797   2.326  0.00  0.00    +0.305 C 
ATOM      3  O   UNL     1      -0.086  -2.538   2.289  0.00  0.00    -0.252 OA
ATOM      4  N   UNL     1       1.658  -3.247   3.468  0.00  0.00    -0.266 N 
ATOM      5  H   UNL     1       2.809  -2.840   1.255  0.00  0.00    +0.151 HD
ATOM      6  H   UNL     1       2.586  -3.531   3.477  0.00  0.00    +0.156 HD
ENDROOT
BRANCH   4   7
ATOM      7  C   UNL     1       0.897  -3.306   4.642  0.00  0.00    +0.079 A 
ATOM      8  C   UNL     1      -0.206  -2.476   4.810  0.00  0.00    +0.028 A 
ATOM      9  C   UNL     1      -0.929  -2.570   5.990  0.00  0.00    +0.022 A 
ATOM     10  C   UNL     1      -0.536  -3.479   6.954  0.00  0.00    +0.113 A 
ATOM     11  N   UNL     1       0.514  -4.255   6.769  0.00  0.00    -0.235 NA
ATOM     12  C   UNL     1       1.230  -4.202   5.658  0.00  0.00    +0.177 A 
BRANCH  12  13
ATOM     13  N   UNL     1       2.332  -5.049   5.502  0.00  0.00    -0.200 N 
ATOM     14  C   UNL     1       3.063  -5.612   6.484  0.00  0.00    +0.226 A 
ATOM     15  N   UNL     1       4.002  -6.333   5.927  0.00  0.00    -0.222 NA
ATOM     16  C   UNL     1       3.905  -6.256   4.601  0.00  0.00    +0.245 A 
ATOM     17  N   UNL     1       2.895  -5.486   4.292  0.00  0.00    -0.152 NA
ENDBRANCH  12  13
ENDBRANCH   4   7
BRANCH   1  18
ATOM     18  C   UNL     1       1.257  -2.144  -0.016  0.00  0.00    +0.153 C 
BRANCH  18  19
ATOM     19  C   UNL     1       2.077  -2.609  -1.192  0.00  0.00    -0.021 A 
ATOM     20  C   UNL     1       3.457  -2.613  -1.113  0.00  0.00    +0.008 A 
ATOM     21  C   UNL     1       4.211  -3.040  -2.190  0.00  0.00    +0.038 A 
ATOM     22  C   UNL     1       3.582  -3.463  -3.349  0.00  0.00    +0.123 A 
ATOM     23  C   UNL     1       2.200  -3.459  -3.427  0.00  0.00    +0.038 A 
ATOM     24  C   UNL     1       1.449  -3.037  -2.347  0.00  0.00    +0.008 A 
ATOM     25  F   UNL     1       4.318  -3.880  -4.403  0.00  0.00    -0.205 F 
ENDBRANCH  18  19
BRANCH  18  30
ATOM     26  C   UNL     1      -0.027   1.399   0.038  0.00  0.00    +0.003 A 
ATOM     27  C   UNL     1       1.180   2.082   0.039  0.00  0.00    +0.020 A 
ATOM     28  C   UNL     1       2.360   1.363   0.023  0.00  0.00    +0.111 A 
ATOM     29  N   UNL     1       2.346   0.044   0.006  0.00  0.00    -0.258 NA
ATOM     30  C   UNL     1       1.218  -0.638   0.004  0.00  0.00    +0.066 A 
ATOM     31  C   UNL     1      -0.002   0.013   0.020  0.00  0.00    +0.025 A 
ENDBRANCH  18  30
ENDBRANCH   1  18
TORSDOF 5
