REMARK  Name = ZINC43461219
REMARK  5 active torsions:
REMARK  status: ('A' for Active; 'I' for Inactive)
REMARK    1  A    between atoms: C_3  and  C_18
REMARK    2  A    between atoms: C_6  and  C_7
REMARK    3  A    between atoms: C_7  and  N_8
REMARK    4  A    between atoms: C_16  and  N_17
REMARK    5  A    between atoms: C_18  and  N_20
REMARK                            x       y       z     vdW  Elec       q    Type
REMARK                         _______ _______ _______ _____ _____    ______ ____
ROOT
ATOM      1  C   UNL     1      -1.295  -0.772   0.011  0.00  0.00    +0.159 C 
ENDROOT
BRANCH   1   2
ATOM      2  N   UNL     1      -1.729  -1.013  -1.368  0.00  0.00    -0.310 N 
ATOM      3  C   UNL     1      -2.598  -0.247  -2.085  0.00  0.00    +0.202 A 
ATOM      4  N   UNL     1      -2.758  -0.751  -3.274  0.00  0.00    -0.231 NA
ATOM      5  C   UNL     1      -2.004  -1.870  -3.395  0.00  0.00    +0.147 A 
ATOM      6  C   UNL     1      -1.330  -2.049  -2.175  0.00  0.00    +0.166 A 
ATOM      7  N   UNL     1      -0.511  -3.086  -2.035  0.00  0.00    -0.216 NA
ATOM      8  C   UNL     1      -0.329  -3.935  -3.024  0.00  0.00    +0.225 A 
ATOM      9  N   UNL     1      -0.937  -3.807  -4.189  0.00  0.00    -0.219 NA
ATOM     10  C   UNL     1      -1.780  -2.806  -4.419  0.00  0.00    +0.147 A 
BRANCH  10  11
ATOM     11  N   UNL     1      -2.412  -2.679  -5.644  0.00  0.00    -0.341 N 
ATOM     12  H   UNL     1      -3.017  -1.938  -5.803  0.00  0.00    +0.144 HD
ATOM     13  H   UNL     1      -2.250  -3.332  -6.343  0.00  0.00    +0.144 HD
ENDBRANCH  10  11
ENDBRANCH   1   2
BRANCH   1  19
ATOM     14  C   UNL     1      -0.017   1.379   0.010  0.00  0.00    +0.006 A 
ATOM     15  C   UNL     1       1.167   2.088   0.002  0.00  0.00    +0.010 A 
ATOM     16  C   UNL     1       2.385   1.407  -0.013  0.00  0.00    +0.003 A 
ATOM     17  C   UNL     1       2.397   0.010  -0.021  0.00  0.00    +0.010 A 
ATOM     18  C   UNL     1       1.206  -0.686  -0.013  0.00  0.00    +0.006 A 
ATOM     19  C   UNL     1       0.002  -0.004   0.002  0.00  0.00    -0.028 A 
BRANCH  16  20
ATOM     20  C   UNL     1       3.655   2.159  -0.022  0.00  0.00    +0.077 C 
ATOM     21  S   UNL     1       3.782   3.636   0.835  0.00  0.00    -0.035 S 
BRANCH  20  22
ATOM     22  N   UNL     1       4.716   1.683  -0.704  0.00  0.00    -0.352 N 
ATOM     23  H   UNL     1       4.644   0.846  -1.189  0.00  0.00    +0.143 HD
ATOM     24  H   UNL     1       5.551   2.177  -0.710  0.00  0.00    +0.143 HD
ENDBRANCH  20  22
ENDBRANCH  16  20
ENDBRANCH   1  19
TORSDOF 5
