REMARK  Name = ZINC09183784
REMARK  6 active torsions:
REMARK  status: ('A' for Active; 'I' for Inactive)
REMARK    1  A    between atoms: C_1  and  C_2
REMARK    2  A    between atoms: C_4  and  N_13
REMARK    3  A    between atoms: N_5  and  C_7
REMARK    4  A    between atoms: C_14  and  C_16
REMARK    5  A    between atoms: C_21  and  C_33
REMARK    6  A    between atoms: C_24  and  C_27
REMARK                            x       y       z     vdW  Elec       q    Type
REMARK                         _______ _______ _______ _____ _____    ______ ____
ROOT
ATOM      1  C   UNL     1       1.025   7.732  -2.739  0.00  0.00    +0.149 A 
ATOM      2  C   UNL     1       1.262   8.966  -3.387  0.00  0.00    +0.078 A 
ATOM      3  C   UNL     1       0.119   9.330  -4.000  0.00  0.00    +0.119 A 
ATOM      4  N   UNL     1      -0.819   8.366  -3.759  0.00  0.00    -0.238 N 
ATOM      5  N   UNL     1      -0.226   7.378  -2.974  0.00  0.00    -0.164 NA
ATOM      6  C   UNL     1      -2.190   8.419  -4.274  0.00  0.00    +0.215 C 
ATOM      7  C   UNL     1      -2.239   9.397  -5.454  0.00  0.00    +0.063 C 
ATOM      8  C   UNL     1      -1.579  10.723  -5.060  0.00  0.00    +0.104 C 
ATOM      9  N   UNL     1      -0.155  10.468  -4.764  0.00  0.00    -0.322 N 
ATOM     10  H   UNL     1       0.549  11.056  -5.080  0.00  0.00    +0.148 HD
ENDROOT
BRANCH   8  11
ATOM     11  C   UNL     1      -2.257  11.283  -3.837  0.00  0.00    -0.027 A 
ATOM     12  C   UNL     1      -1.942  10.790  -2.585  0.00  0.00    +0.005 A 
ATOM     13  C   UNL     1      -2.562  11.308  -1.462  0.00  0.00    +0.000 A 
ATOM     14  C   UNL     1      -3.503  12.312  -1.593  0.00  0.00    +0.000 A 
ATOM     15  C   UNL     1      -3.822  12.801  -2.846  0.00  0.00    +0.000 A 
ATOM     16  C   UNL     1      -3.199  12.287  -3.968  0.00  0.00    +0.005 A 
ENDBRANCH   8  11
BRANCH   1  18
ATOM     17  N   UNL     1       1.651   5.799  -1.376  0.00  0.00    -0.265 N 
ATOM     18  C   UNL     1       2.007   6.968  -1.944  0.00  0.00    +0.269 C 
ATOM     19  O   UNL     1       3.137   7.394  -1.801  0.00  0.00    -0.268 OA
ATOM     20  H   UNL     1       0.750   5.459  -1.490  0.00  0.00    +0.157 HD
BRANCH  17  24
ATOM     21  C   UNL     1       5.869   4.423   0.908  0.00  0.00    +0.067 C 
ATOM     22  C   UNL     1       4.448   4.435   0.406  0.00  0.00    +0.062 A 
ATOM     23  C   UNL     1       3.870   5.432  -0.385  0.00  0.00    +0.068 A 
ATOM     24  C   UNL     1       2.578   5.078  -0.625  0.00  0.00    +0.129 A 
ATOM     25  N   UNL     1       2.358   3.889   0.001  0.00  0.00    -0.218 N 
ATOM     26  N   UNL     1       3.546   3.517   0.642  0.00  0.00    -0.170 NA
BRANCH  25  27
ATOM     27  C   UNL     1       1.155   3.170   0.008  0.00  0.00    +0.067 A 
ATOM     28  C   UNL     1       1.174   1.782   0.000  0.00  0.00    +0.028 A 
ATOM     29  C   UNL     1      -0.013   1.076   0.008  0.00  0.00    +0.002 A 
ATOM     30  C   UNL     1      -1.220   1.750   0.017  0.00  0.00    +0.000 A 
ATOM     31  C   UNL     1      -1.243   3.133   0.031  0.00  0.00    +0.002 A 
ATOM     32  C   UNL     1      -0.059   3.844   0.023  0.00  0.00    +0.028 A 
ENDBRANCH  25  27
ENDBRANCH  17  24
ENDBRANCH   1  18
BRANCH   6  33
ATOM     33  C   UNL     1      -2.614   7.026  -4.746  0.00  0.00    +0.412 C 
ATOM     34  F   UNL     1      -2.555   6.132  -3.671  0.00  0.00    -0.168 F 
ATOM     35  F   UNL     1      -3.923   7.079  -5.237  0.00  0.00    -0.168 F 
ATOM     36  F   UNL     1      -1.752   6.594  -5.760  0.00  0.00    -0.168 F 
ENDBRANCH   6  33
TORSDOF 5
