REMARK  Name = ZINC40321251
REMARK  7 active torsions:
REMARK  status: ('A' for Active; 'I' for Inactive)
REMARK    1  A    between atoms: C_4  and  S_7
REMARK    2  A    between atoms: S_7  and  C_10
REMARK    3  A    between atoms: C_13  and  C_15
REMARK    4  A    between atoms: N_17  and  C_18
REMARK    5  A    between atoms: C_21  and  S_24
REMARK    6  A    between atoms: S_24  and  N_27
REMARK    7  A    between atoms: N_27  and  C_28
REMARK                            x       y       z     vdW  Elec       q    Type
REMARK                         _______ _______ _______ _____ _____    ______ ____
ROOT
ATOM      1  C   UNL     1       6.051  -0.167   4.716  0.00  0.00    +0.284 C 
ATOM      2  O   UNL     1       6.122  -0.734   5.791  0.00  0.00    -0.266 OA
ATOM      3  N   UNL     1       6.650   1.028   4.543  0.00  0.00    -0.279 N 
ATOM      4  H   UNL     1       6.650   1.448   3.669  0.00  0.00    +0.155 HD
ENDROOT
BRANCH   3   5
ATOM      5  C   UNL     1       7.271   1.661   5.624  0.00  0.00    +0.034 A 
ATOM      6  C   UNL     1       7.235   3.046   5.734  0.00  0.00    +0.025 A 
ATOM      7  C   UNL     1       7.850   3.668   6.803  0.00  0.00    +0.031 A 
ATOM      8  C   UNL     1       8.501   2.915   7.762  0.00  0.00    +0.111 A 
ATOM      9  C   UNL     1       8.539   1.537   7.656  0.00  0.00    +0.031 A 
ATOM     10  C   UNL     1       7.921   0.908   6.593  0.00  0.00    +0.025 A 
BRANCH   8  11
ATOM     11  S   UNL     1       9.284   3.713   9.124  0.00  0.00    +0.093 S 
ATOM     12  O   UNL     1      10.290   2.825   9.591  0.00  0.00    -0.148 OA
ATOM     13  O   UNL     1       9.575   5.040   8.705  0.00  0.00    -0.148 OA
BRANCH  11  14
ATOM     14  N   UNL     1       8.160   3.835  10.334  0.00  0.00    -0.070 NA
BRANCH  14  15
ATOM     15  C   UNL     1       8.501   4.428  11.539  0.00  0.00    +0.201 A 
ATOM     16  N   UNL     1       9.654   4.950  11.897  0.00  0.00    -0.231 NA
ATOM     17  C   UNL     1       9.820   5.483  13.095  0.00  0.00    +0.120 A 
ATOM     18  C   UNL     1       8.753   5.465  13.930  0.00  0.00    +0.068 A 
ATOM     19  S   UNL     1       7.537   4.661  12.899  0.00  0.00    -0.058 S 
ENDBRANCH  14  15
ENDBRANCH  11  14
ENDBRANCH   8  11
ENDBRANCH   3   5
BRANCH   1  23
ATOM     20  C   UNL     1       4.425  -1.104   1.629  0.00  0.00    +0.246 A 
ATOM     21  C   UNL     1       4.098  -2.180   2.380  0.00  0.00    +0.070 A 
ATOM     22  C   UNL     1       4.662  -1.984   3.650  0.00  0.00    +0.056 A 
ATOM     23  C   UNL     1       5.312  -0.784   3.610  0.00  0.00    +0.192 A 
ATOM     24  O   UNL     1       5.161  -0.268   2.373  0.00  0.00    -0.433 OA
BRANCH  20  25
ATOM     25  S   UNL     1       3.963  -0.847  -0.052  0.00  0.00    +0.058 S 
ATOM     26  O   UNL     1       3.707  -2.132  -0.603  0.00  0.00    -0.161 OA
ATOM     27  O   UNL     1       4.924   0.042  -0.605  0.00  0.00    -0.161 OA
BRANCH  25  31
ATOM     28  C   UNL     1       0.014   1.364  -0.036  0.00  0.00    +0.000 A 
ATOM     29  C   UNL     1       1.202   2.071  -0.038  0.00  0.00    +0.002 A 
ATOM     30  C   UNL     1       2.408   1.396  -0.043  0.00  0.00    +0.027 A 
ATOM     31  C   UNL     1       2.426   0.013  -0.045  0.00  0.00    +0.097 A 
ATOM     32  C   UNL     1       1.238  -0.693  -0.042  0.00  0.00    +0.027 A 
ATOM     33  C   UNL     1       0.032  -0.018  -0.038  0.00  0.00    +0.002 A 
ENDBRANCH  25  31
ENDBRANCH  20  25
ENDBRANCH   1  23
TORSDOF 7
