REMARK  Name = ZINC39678317
REMARK  9 active torsions:
REMARK  status: ('A' for Active; 'I' for Inactive)
REMARK    1  A    between atoms: C_1  and  C_2
REMARK    2  A    between atoms: C_3  and  C_12
REMARK    3  A    between atoms: C_7  and  O_8
REMARK    4  A    between atoms: O_8  and  C_9
REMARK    5  A    between atoms: C_9  and  C_11
REMARK    6  A    between atoms: C_16  and  C_25
REMARK    7  A    between atoms: N_27  and  C_28
REMARK    8  A    between atoms: C_28  and  C_29
REMARK    9  A    between atoms: C_34  and  N_35
REMARK                            x       y       z     vdW  Elec       q    Type
REMARK                         _______ _______ _______ _____ _____    ______ ____
ROOT
ATOM      1  C   UNL     1       0.008  -0.450  -2.084  0.00  0.00    +0.247 C 
ATOM      2  O   UNL     1      -0.015   0.761  -2.190  0.00  0.00    -0.270 OA
ATOM      3  N   UNL     1       0.126  -1.220  -3.183  0.00  0.00    -0.296 N 
ATOM      4  C   UNL     1       0.065  -2.699  -3.267  0.00  0.00    +0.121 C 
ATOM      5  C   UNL     1      -0.723  -2.984  -4.565  0.00  0.00    +0.100 C 
ATOM      6  C   UNL     1      -0.534  -1.723  -5.424  0.00  0.00    -0.004 C 
ATOM      7  C   UNL     1       0.338  -0.780  -4.583  0.00  0.00    +0.115 C 
ATOM      8  C   UNL     1      -1.884  -1.070  -5.708  0.00  0.00    -0.010 C 
ATOM      9  C   UNL     1      -1.676   0.149  -6.611  0.00  0.00    -0.082 C 
ATOM     10  N   UNL     1      -1.040  -0.272  -7.865  0.00  0.00    +0.379 N 
ATOM     11  C   UNL     1       0.296  -0.814  -7.592  0.00  0.00    -0.082 C 
ATOM     12  C   UNL     1       0.172  -2.074  -6.730  0.00  0.00    -0.010 C 
ATOM     13  H   UNL     1      -1.606  -0.982  -8.306  0.00  0.00    -0.086 HD
ATOM     14  H   UNL     1      -0.960   0.522  -8.483  0.00  0.00    -0.086 HD
ENDROOT
BRANCH   1  17
ATOM     15  C   UNL     1      -1.703   0.733  -0.073  0.00  0.00    +0.048 C 
ATOM     16  C   UNL     1      -0.915  -0.515   0.229  0.00  0.00    +0.004 A 
ATOM     17  C   UNL     1      -0.092  -1.077  -0.749  0.00  0.00    +0.043 A 
ATOM     18  C   UNL     1       0.635  -2.233  -0.461  0.00  0.00    +0.013 A 
ATOM     19  C   UNL     1       0.538  -2.816   0.786  0.00  0.00    +0.004 A 
ATOM     20  C   UNL     1      -0.277  -2.258   1.753  0.00  0.00    +0.047 A 
ATOM     21  C   UNL     1      -1.000  -1.105   1.478  0.00  0.00    +0.135 A 
BRANCH  21  22
ATOM     22  O   UNL     1      -1.796  -0.558   2.435  0.00  0.00    -0.426 OA
BRANCH  22  23
ATOM     23  C   UNL     1      -1.340   0.517   3.096  0.00  0.00    +0.309 C 
ATOM     24  O   UNL     1      -0.215   0.913   2.902  0.00  0.00    -0.251 OA
ATOM     25  C   UNL     1      -2.230   1.231   4.080  0.00  0.00    +0.136 C 
ENDBRANCH  22  23
ENDBRANCH  21  22
ENDBRANCH   1  17
BRANCH   5  26
ATOM     26  C   UNL     1      -2.182  -3.198  -4.256  0.00  0.00    +0.218 C 
ATOM     27  O   UNL     1      -2.708  -2.581  -3.354  0.00  0.00    -0.275 OA
ATOM     28  N   UNL     1      -2.903  -4.075  -4.982  0.00  0.00    -0.311 N 
ATOM     29  H   UNL     1      -2.468  -4.622  -5.655  0.00  0.00    +0.149 HD
BRANCH  28  30
ATOM     30  C   UNL     1      -4.345  -4.203  -4.755  0.00  0.00    +0.141 C 
BRANCH  30  31
ATOM     31  C   UNL     1      -4.888  -5.326  -5.601  0.00  0.00    -0.009 A 
ATOM     32  C   UNL     1      -5.555  -5.046  -6.777  0.00  0.00    +0.007 A 
ATOM     33  C   UNL     1      -6.055  -6.076  -7.553  0.00  0.00    +0.000 A 
ATOM     34  C   UNL     1      -5.888  -7.390  -7.154  0.00  0.00    +0.002 A 
ATOM     35  C   UNL     1      -5.222  -7.677  -5.979  0.00  0.00    +0.023 A 
ATOM     36  C   UNL     1      -4.714  -6.645  -5.200  0.00  0.00    +0.034 A 
BRANCH  36  37
ATOM     37  N   UNL     1      -4.035  -6.932  -4.014  0.00  0.00    -0.330 N 
ATOM     38  C   UNL     1      -4.774  -7.143  -2.761  0.00  0.00    +0.105 C 
ATOM     39  C   UNL     1      -4.352  -8.488  -2.160  0.00  0.00    +0.019 C 
ATOM     40  C   UNL     1      -2.830  -8.518  -2.006  0.00  0.00    +0.003 C 
ATOM     41  C   UNL     1      -2.173  -8.376  -3.381  0.00  0.00    +0.019 C 
ATOM     42  C   UNL     1      -2.570  -7.036  -3.996  0.00  0.00    +0.105 C 
ENDBRANCH  36  37
ENDBRANCH  30  31
ENDBRANCH  28  30
ENDBRANCH   5  26
TORSDOF 7
