REMARK  Name = ZINC38966169
REMARK  4 active torsions:
REMARK  status: ('A' for Active; 'I' for Inactive)
REMARK    1  A    between atoms: C_5  and  C_7
REMARK    2  A    between atoms: N_13  and  N_14
REMARK    3  A    between atoms: C_15  and  C_16
REMARK    4  A    between atoms: C_21  and  O_22
REMARK                            x       y       z     vdW  Elec       q    Type
REMARK                         _______ _______ _______ _____ _____    ______ ____
ROOT
ATOM      1  C   UNL     1       1.230  -2.201  -0.032  0.00  0.00    +0.265 C 
ATOM      2  N   UNL     1       2.324  -2.702   0.813  0.00  0.00    -0.189 NA
ATOM      3  N   UNL     1       1.829  -3.360   1.732  0.00  0.00    -0.219 N 
ATOM      4  C   UNL     1       0.471  -3.419   1.683  0.00  0.00    +0.174 C 
ATOM      5  S   UNL     1      -0.516  -4.251   2.807  0.00  0.00    -0.015 S 
ATOM      6  N   UNL     1       0.012  -2.725   0.614  0.00  0.00    -0.172 N 
ATOM      7  H   UNL     1       2.356  -3.794   2.421  0.00  0.00    +0.176 HD
ENDROOT
BRANCH   1  12
ATOM      8  C   UNL     1       0.001   1.369  -0.042  0.00  0.00    +0.000 A 
ATOM      9  C   UNL     1       1.191   2.072  -0.061  0.00  0.00    +0.001 A 
ATOM     10  C   UNL     1       2.395   1.392  -0.071  0.00  0.00    +0.020 A 
ATOM     11  C   UNL     1       2.408   0.009  -0.062  0.00  0.00    +0.048 A 
ATOM     12  C   UNL     1       1.216  -0.694  -0.042  0.00  0.00    +0.016 A 
ATOM     13  C   UNL     1       0.013  -0.013  -0.033  0.00  0.00    +0.009 A 
ATOM     14 CL   UNL     1       3.919  -0.846  -0.075  0.00  0.00    -0.083 Cl
ENDBRANCH   1  12
BRANCH   6  15
ATOM     15  N   UNL     1      -1.318  -2.544   0.211  0.00  0.00    -0.183 NA
ATOM     16  C   UNL     1      -2.274  -3.169   0.830  0.00  0.00    +0.142 C 
BRANCH  16  17
ATOM     17  C   UNL     1      -3.659  -3.067   0.338  0.00  0.00    +0.038 A 
ATOM     18  C   UNL     1      -4.692  -3.733   1.003  0.00  0.00    +0.028 A 
ATOM     19  C   UNL     1      -5.987  -3.634   0.538  0.00  0.00    +0.020 A 
ATOM     20  C   UNL     1      -6.268  -2.875  -0.587  0.00  0.00    +0.034 A 
ATOM     21  C   UNL     1      -5.255  -2.212  -1.254  0.00  0.00    +0.061 A 
ATOM     22  C   UNL     1      -3.949  -2.297  -0.797  0.00  0.00    +0.139 A 
ATOM     23 BR   UNL     1      -5.652  -1.181  -2.789  0.00  0.00    -0.046 Br
ATOM     24 BR   UNL     1      -7.383  -4.536   1.439  0.00  0.00    -0.050 Br
BRANCH  22  25
ATOM     25  O   UNL     1      -2.954  -1.641  -1.448  0.00  0.00    -0.505 OA
ATOM     26  H   UNL     1      -2.536  -2.158  -2.150  0.00  0.00    +0.292 HD
ENDBRANCH  22  25
ENDBRANCH  16  17
ENDBRANCH   6  15
TORSDOF 4
