REMARK  Name = ZINC02265060
REMARK  11 active torsions:
REMARK  status: ('A' for Active; 'I' for Inactive)
REMARK    1  A    between atoms: C_1  and  C_2
REMARK    2  A    between atoms: C_2  and  C_3
REMARK    3  A    between atoms: C_3  and  C_4
REMARK    4  A    between atoms: C_4  and  O_5
REMARK    5  A    between atoms: O_5  and  C_6
REMARK    6  A    between atoms: C_6  and  C_8
REMARK    7  A    between atoms: C_11  and  N_14
REMARK    8  A    between atoms: C_15  and  N_36
REMARK    9  A    between atoms: C_16  and  C_27
REMARK   10  A    between atoms: N_29  and  C_30
REMARK   11  A    between atoms: C_30  and  C_31
REMARK                            x       y       z     vdW  Elec       q    Type
REMARK                         _______ _______ _______ _____ _____    ______ ____
ROOT
ATOM      1  N   UNL     1      -3.161   2.977  -0.698  0.00  0.00    -0.280 N 
ATOM      2  C   UNL     1      -2.018   2.344  -1.090  0.00  0.00    +0.117 A 
ATOM      3  C   UNL     1      -1.290   1.927   0.019  0.00  0.00    +0.104 A 
ATOM      4  C   UNL     1      -2.053   2.350   1.204  0.00  0.00    +0.123 A 
ATOM      5  C   UNL     1      -3.246   3.020   0.681  0.00  0.00    +0.166 A 
ATOM      6  N   UNL     1      -4.133   3.512   1.520  0.00  0.00    -0.225 NA
ATOM      7  C   UNL     1      -3.937   3.399   2.839  0.00  0.00    +0.092 A 
ATOM      8  C   UNL     1      -4.879   3.923   3.744  0.00  0.00    +0.030 A 
ATOM      9  C   UNL     1      -4.673   3.802   5.083  0.00  0.00    +0.002 A 
ATOM     10  C   UNL     1      -3.536   3.165   5.579  0.00  0.00    +0.002 A 
ATOM     11  C   UNL     1      -2.603   2.646   4.736  0.00  0.00    +0.030 A 
ATOM     12  C   UNL     1      -2.782   2.751   3.344  0.00  0.00    +0.090 A 
ATOM     13  N   UNL     1      -1.870   2.244   2.505  0.00  0.00    -0.241 NA
ENDROOT
BRANCH   1  17
ATOM     14  C   UNL     1      -5.998   4.570  -3.301  0.00  0.00    +0.059 A 
ATOM     15  C   UNL     1      -4.707   5.104  -3.260  0.00  0.00    +0.017 A 
ATOM     16  C   UNL     1      -3.773   4.576  -2.398  0.00  0.00    +0.027 A 
ATOM     17  C   UNL     1      -4.112   3.511  -1.570  0.00  0.00    +0.050 A 
ATOM     18  C   UNL     1      -5.394   2.973  -1.612  0.00  0.00    +0.027 A 
ATOM     19  C   UNL     1      -6.336   3.500  -2.467  0.00  0.00    +0.017 A 
BRANCH  14  20
ATOM     20  C   UNL     1      -7.002   5.133  -4.223  0.00  0.00    +0.339 C 
ATOM     21  O   UNL     1      -6.708   6.063  -4.948  0.00  0.00    -0.245 OA
BRANCH  20  22
ATOM     22  O   UNL     1      -8.246   4.617  -4.262  0.00  0.00    -0.461 OA
BRANCH  22  23
ATOM     23  C   UNL     1      -9.182   5.221  -5.193  0.00  0.00    +0.232 C 
BRANCH  23  24
ATOM     24  C   UNL     1     -10.532   4.507  -5.095  0.00  0.00    +0.041 C 
BRANCH  24  26
ATOM     25  C   UNL     1     -12.868   4.429  -5.979  0.00  0.00    +0.004 C 
ATOM     26  C   UNL     1     -11.518   5.143  -6.077  0.00  0.00    -0.000 C 
ENDBRANCH  24  26
ENDBRANCH  23  24
ENDBRANCH  22  23
ENDBRANCH  20  22
ENDBRANCH  14  20
ENDBRANCH   1  17
BRANCH   3  27
ATOM     27  C   UNL     1      -0.014   1.214   0.009  0.00  0.00    +0.250 C 
ATOM     28  O   UNL     1       0.002  -0.004   0.002  0.00  0.00    -0.270 OA
ATOM     29  N   UNL     1       1.143   1.903   0.001  0.00  0.00    -0.307 N 
ATOM     30  H   UNL     1       1.130   2.873   0.007  0.00  0.00    +0.149 HD
BRANCH  29  31
ATOM     31  C   UNL     1       2.422   1.188  -0.015  0.00  0.00    +0.147 C 
BRANCH  31  32
ATOM     32  C   UNL     1       3.554   2.183  -0.020  0.00  0.00    +0.007 A 
ATOM     33  C   UNL     1       4.202   2.745   1.030  0.00  0.00    +0.013 A 
ATOM     34  C   UNL     1       5.225   3.641   0.784  0.00  0.00    +0.008 A 
ATOM     35  C   UNL     1       5.544   3.939  -0.499  0.00  0.00    +0.045 A 
ATOM     36  S   UNL     1       4.385   2.933  -1.411  0.00  0.00    -0.100 S 
ENDBRANCH  31  32
ENDBRANCH  29  31
ENDBRANCH   3  27
BRANCH   2  37
ATOM     37  N   UNL     1      -1.641   2.146  -2.392  0.00  0.00    -0.343 N 
ATOM     38  H   UNL     1      -0.812   1.683  -2.592  0.00  0.00    +0.144 HD
ATOM     39  H   UNL     1      -2.204   2.467  -3.114  0.00  0.00    +0.144 HD
ENDBRANCH   2  37
TORSDOF 10
