REMARK  Name = ZINC39652862
REMARK  9 active torsions:
REMARK  status: ('A' for Active; 'I' for Inactive)
REMARK    1  A    between atoms: C_1  and  O_2
REMARK    2  A    between atoms: O_2  and  C_3
REMARK    3  A    between atoms: C_6  and  C_11
REMARK    4  A    between atoms: C_7  and  O_9
REMARK    5  A    between atoms: O_9  and  C_10
REMARK    6  A    between atoms: C_15  and  C_24
REMARK    7  A    between atoms: N_26  and  C_27
REMARK    8  A    between atoms: C_27  and  C_28
REMARK    9  A    between atoms: C_28  and  C_29
REMARK                            x       y       z     vdW  Elec       q    Type
REMARK                         _______ _______ _______ _____ _____    ______ ____
ROOT
ATOM      1  C   UNL     1       2.486  -2.342  -4.198  0.00  0.00    +0.250 C 
ATOM      2  O   UNL     1       2.532  -3.558  -4.218  0.00  0.00    -0.270 OA
ATOM      3  N   UNL     1       2.910  -1.634  -5.264  0.00  0.00    -0.296 N 
ATOM      4  C   UNL     1       3.031  -0.162  -5.386  0.00  0.00    +0.121 C 
ATOM      5  C   UNL     1       4.340   0.057  -6.178  0.00  0.00    +0.100 C 
ATOM      6  C   UNL     1       4.550  -1.251  -6.959  0.00  0.00    -0.004 C 
ATOM      7  C   UNL     1       3.367  -2.152  -6.575  0.00  0.00    +0.115 C 
ATOM      8  C   UNL     1       5.863  -1.909  -6.545  0.00  0.00    -0.010 C 
ATOM      9  C   UNL     1       6.077  -3.177  -7.375  0.00  0.00    -0.082 C 
ATOM     10  N   UNL     1       6.109  -2.830  -8.801  0.00  0.00    +0.379 N 
ATOM     11  C   UNL     1       4.810  -2.284  -9.213  0.00  0.00    -0.082 C 
ATOM     12  C   UNL     1       4.542  -0.978  -8.460  0.00  0.00    -0.010 C 
ATOM     13  H   UNL     1       6.828  -2.142  -8.963  0.00  0.00    -0.086 HD
ATOM     14  H   UNL     1       6.311  -3.658  -9.343  0.00  0.00    -0.086 HD
ENDROOT
BRANCH   1  18
ATOM     15  C   UNL     1       0.985  -0.330  -0.771  0.00  0.00    +0.124 A 
ATOM     16  C   UNL     1       0.764   0.196  -2.041  0.00  0.00    +0.046 A 
ATOM     17  C   UNL     1       1.249  -0.452  -3.153  0.00  0.00    +0.020 A 
ATOM     18  C   UNL     1       1.966  -1.645  -3.010  0.00  0.00    +0.079 A 
ATOM     19  C   UNL     1       2.187  -2.174  -1.729  0.00  0.00    +0.136 A 
ATOM     20  C   UNL     1       1.699  -1.509  -0.617  0.00  0.00    +0.092 A 
BRANCH  15  22
ATOM     21  C   UNL     1      -0.224   1.525   0.091  0.00  0.00    +0.277 C 
ATOM     22  O   UNL     1       0.503   0.316   0.321  0.00  0.00    -0.495 OA
ENDBRANCH  15  22
BRANCH  19  23
ATOM     23  O   UNL     1       2.881  -3.329  -1.581  0.00  0.00    -0.494 OA
ATOM     24  C   UNL     1       3.067  -3.808  -0.247  0.00  0.00    +0.277 C 
ENDBRANCH  19  23
ENDBRANCH   1  18
BRANCH   5  25
ATOM     25  C   UNL     1       4.191   1.219  -7.126  0.00  0.00    +0.218 C 
ATOM     26  O   UNL     1       3.107   1.474  -7.607  0.00  0.00    -0.275 OA
ATOM     27  N   UNL     1       5.262   1.975  -7.439  0.00  0.00    -0.315 N 
ATOM     28  H   UNL     1       6.128   1.771  -7.054  0.00  0.00    +0.149 HD
BRANCH  27  29
ATOM     29  C   UNL     1       5.117   3.104  -8.361  0.00  0.00    +0.109 C 
BRANCH  29  30
ATOM     30  C   UNL     1       6.473   3.790  -8.545  0.00  0.00    +0.054 C 
BRANCH  30  31
ATOM     31  C   UNL     1       6.324   4.951  -9.493  0.00  0.00    -0.046 A 
ATOM     32  C   UNL     1       6.490   4.760 -10.852  0.00  0.00    +0.005 A 
ATOM     33  C   UNL     1       6.353   5.825 -11.722  0.00  0.00    +0.015 A 
ATOM     34  C   UNL     1       6.049   7.083 -11.232  0.00  0.00    +0.018 A 
ATOM     35  C   UNL     1       5.883   7.274  -9.873  0.00  0.00    +0.015 A 
ATOM     36  C   UNL     1       6.015   6.207  -9.004  0.00  0.00    +0.005 A 
ATOM     37 BR   UNL     1       5.862   8.541 -12.422  0.00  0.00    -0.050 Br
ENDBRANCH  30  31
ENDBRANCH  29  30
ENDBRANCH  27  29
ENDBRANCH   5  25
TORSDOF 7
