REMARK  Name = ZINC14357907
REMARK  6 active torsions:
REMARK  status: ('A' for Active; 'I' for Inactive)
REMARK    1  A    between atoms: C_4  and  N_7
REMARK    2  A    between atoms: C_8  and  C_30
REMARK    3  A    between atoms: C_10  and  S_12
REMARK    4  A    between atoms: S_12  and  C_13
REMARK    5  A    between atoms: C_13  and  C_14
REMARK    6  A    between atoms: N_19  and  C_20
REMARK                            x       y       z     vdW  Elec       q    Type
REMARK                         _______ _______ _______ _____ _____    ______ ____
ROOT
ATOM      1  C   UNL     1       7.503   1.220   1.872  0.00  0.00    +0.173 C 
ENDROOT
BRANCH   1   2
ATOM      2  C   UNL     1       8.907   1.128   2.413  0.00  0.00    +0.231 C 
ATOM      3  O   UNL     1       9.709   2.005   2.171  0.00  0.00    -0.274 OA
ATOM      4  N   UNL     1       9.271   0.071   3.166  0.00  0.00    -0.239 N 
ATOM      5  C   UNL     1      10.526  -0.011   3.650  0.00  0.00    +0.306 C 
ATOM      6  O   UNL     1      11.330   0.868   3.407  0.00  0.00    -0.252 OA
ATOM      7  N   UNL     1      10.890  -1.068   4.403  0.00  0.00    -0.294 N 
ATOM      8  H   UNL     1       8.629  -0.630   3.360  0.00  0.00    +0.159 HD
ATOM      9  H   UNL     1      10.249  -1.770   4.596  0.00  0.00    +0.151 HD
BRANCH   7  10
ATOM     10  C   UNL     1      12.255  -1.158   4.928  0.00  0.00    +0.037 C 
ATOM     11  C   UNL     1      13.249  -1.172   3.766  0.00  0.00    +0.029 C 
ATOM     12  C   UNL     1      14.674  -1.266   4.315  0.00  0.00    -0.008 C 
ATOM     13  C   UNL     1      14.823  -2.552   5.130  0.00  0.00    +0.007 C 
ATOM     14  C   UNL     1      13.829  -2.538   6.292  0.00  0.00    -0.008 C 
ATOM     15  C   UNL     1      12.404  -2.445   5.743  0.00  0.00    +0.029 C 
ATOM     16  C   UNL     1      14.110  -1.331   7.189  0.00  0.00    +0.007 C 
ATOM     17  C   UNL     1      13.961  -0.044   6.375  0.00  0.00    -0.008 C 
ATOM     18  C   UNL     1      14.955  -0.059   5.212  0.00  0.00    +0.007 C 
ATOM     19  C   UNL     1      12.536   0.049   5.826  0.00  0.00    +0.029 C 
ENDBRANCH   7  10
ENDBRANCH   1   2
BRANCH   1  20
ATOM     20  S   UNL     1       7.327   2.746   0.907  0.00  0.00    -0.075 S 
BRANCH  20  24
ATOM     21  N   UNL     1       3.586   2.125  -0.021  0.00  0.00    -0.216 N 
ATOM     22  C   UNL     1       3.821   3.299  -0.636  0.00  0.00    +0.137 A 
ATOM     23  N   UNL     1       5.065   3.638  -0.406  0.00  0.00    -0.205 NA
ATOM     24  C   UNL     1       5.655   2.707   0.350  0.00  0.00    +0.210 A 
ATOM     25  N   UNL     1       4.783   1.761   0.616  0.00  0.00    -0.138 NA
BRANCH  21  29
ATOM     26  C   UNL     1       0.002  -0.004   0.002  0.00  0.00    +0.000 A 
ATOM     27  C   UNL     1      -0.017   1.379   0.010  0.00  0.00    +0.002 A 
ATOM     28  C   UNL     1       1.169   2.087   0.002  0.00  0.00    +0.028 A 
ATOM     29  C   UNL     1       2.381   1.409  -0.014  0.00  0.00    +0.067 A 
ATOM     30  C   UNL     1       2.396   0.021  -0.021  0.00  0.00    +0.028 A 
ATOM     31  C   UNL     1       1.207  -0.682  -0.013  0.00  0.00    +0.002 A 
ENDBRANCH  21  29
BRANCH  22  32
ATOM     32  C   UNL     1       2.826   4.088  -1.448  0.00  0.00    +0.057 C 
ATOM     33  C   UNL     1       3.347   4.247  -2.878  0.00  0.00    +0.011 C 
ATOM     34  C   UNL     1       2.337   5.048  -3.702  0.00  0.00    +0.001 C 
ATOM     35  C   UNL     1       2.144   6.428  -3.072  0.00  0.00    +0.000 C 
ATOM     36  C   UNL     1       1.623   6.269  -1.643  0.00  0.00    +0.001 C 
ATOM     37  C   UNL     1       2.634   5.468  -0.818  0.00  0.00    +0.011 C 
ENDBRANCH  22  32
ENDBRANCH  20  24
ENDBRANCH   1  20
TORSDOF 6
