REMARK  Name = ZINC06239275
REMARK  10 active torsions:
REMARK  status: ('A' for Active; 'I' for Inactive)
REMARK    1  A    between atoms: C_1  and  O_2
REMARK    2  A    between atoms: O_2  and  C_3
REMARK    3  A    between atoms: C_5  and  C_13
REMARK    4  A    between atoms: C_7  and  O_11
REMARK    5  A    between atoms: C_8  and  O_9
REMARK    6  A    between atoms: O_9  and  C_10
REMARK    7  A    between atoms: O_11  and  C_12
REMARK    8  A    between atoms: C_19  and  C_27
REMARK    9  A    between atoms: C_21  and  C_25
REMARK   10  A    between atoms: C_22  and  N_24
REMARK                            x       y       z     vdW  Elec       q    Type
REMARK                         _______ _______ _______ _____ _____    ______ ____
ROOT
ATOM      1  C   UNL     1      -4.461   0.086  -0.790  0.00  0.00    +0.084 C 
ATOM      2  N   UNL     1      -4.669   1.376  -0.821  0.00  0.00    -0.150 NA
ATOM      3  N   UNL     1      -6.017   1.689  -0.997  0.00  0.00    -0.115 NA
ATOM      4  C   UNL     1      -6.740   0.638  -1.146  0.00  0.00    +0.227 C 
ATOM      5  C   UNL     1      -5.820  -0.560  -0.931  0.00  0.00    +0.140 C 
ATOM      6  C   UNL     1      -5.901  -1.389  -2.218  0.00  0.00    +0.082 C 
ATOM      7  C   UNL     1      -7.333  -1.445  -2.677  0.00  0.00    +0.095 C 
ATOM      8  C   UNL     1      -8.285  -0.563  -2.309  0.00  0.00    +0.200 C 
ATOM      9  O   UNL     1      -8.044   0.469  -1.455  0.00  0.00    -0.425 OA
ENDROOT
BRANCH   6  10
ATOM     10  C   UNL     1      -5.399  -2.785  -1.952  0.00  0.00    -0.038 A 
ATOM     11  C   UNL     1      -6.068  -3.600  -1.057  0.00  0.00    +0.005 A 
ATOM     12  C   UNL     1      -5.609  -4.880  -0.813  0.00  0.00    +0.015 A 
ATOM     13  C   UNL     1      -4.481  -5.346  -1.463  0.00  0.00    +0.018 A 
ATOM     14  C   UNL     1      -3.812  -4.530  -2.357  0.00  0.00    +0.015 A 
ATOM     15  C   UNL     1      -4.274  -3.252  -2.605  0.00  0.00    +0.005 A 
ATOM     16 BR   UNL     1      -3.852  -7.098  -1.128  0.00  0.00    -0.050 Br
ENDBRANCH   6  10
BRANCH   1  19
ATOM     17  C   UNL     1      -0.801  -0.690  -1.093  0.00  0.00    +0.166 A 
ATOM     18  C   UNL     1      -2.016  -0.044  -1.225  0.00  0.00    +0.059 A 
ATOM     19  C   UNL     1      -3.166  -0.598  -0.652  0.00  0.00    +0.006 A 
ATOM     20  C   UNL     1      -3.081  -1.803   0.052  0.00  0.00    +0.059 A 
ATOM     21  C   UNL     1      -1.863  -2.443   0.180  0.00  0.00    +0.166 A 
ATOM     22  C   UNL     1      -0.721  -1.892  -0.396  0.00  0.00    +0.204 A 
BRANCH  17  24
ATOM     23  C   UNL     1       0.164   1.083  -2.351  0.00  0.00    +0.277 C 
ATOM     24  O   UNL     1       0.318  -0.152  -1.650  0.00  0.00    -0.491 OA
ENDBRANCH  17  24
BRANCH  22  25
ATOM     25  O   UNL     1       0.475  -2.527  -0.273  0.00  0.00    -0.488 OA
ATOM     26  C   UNL     1       1.274  -2.190   0.862  0.00  0.00    +0.277 C 
ENDBRANCH  22  25
BRANCH  21  27
ATOM     27  O   UNL     1      -1.779  -3.615   0.865  0.00  0.00    -0.491 OA
ATOM     28  C   UNL     1      -2.962  -4.064   1.529  0.00  0.00    +0.277 C 
ENDBRANCH  21  27
ENDBRANCH   1  19
BRANCH   8  29
ATOM     29  N   UNL     1      -9.553  -0.716  -2.814  0.00  0.00    -0.328 N 
ATOM     30  H   UNL     1      -9.748  -1.447  -3.421  0.00  0.00    +0.145 HD
ATOM     31  H   UNL     1     -10.253  -0.093  -2.563  0.00  0.00    +0.145 HD
ENDBRANCH   8  29
BRANCH   7  32
ATOM     32  C   UNL     1      -7.710  -2.506  -3.562  0.00  0.00    +0.100 C 
ATOM     33  N   UNL     1      -8.010  -3.347  -4.264  0.00  0.00    -0.191 NA
ENDBRANCH   7  32
TORSDOF 7
