REMARK  Name = ZINC39684462
REMARK  11 active torsions:
REMARK  status: ('A' for Active; 'I' for Inactive)
REMARK    1  A    between atoms: C_1  and  C_2
REMARK    2  A    between atoms: C_2  and  C_4
REMARK    3  A    between atoms: C_2  and  O_27
REMARK    4  A    between atoms: C_8  and  C_17
REMARK    5  A    between atoms: N_19  and  C_20
REMARK    6  A    between atoms: C_20  and  C_22
REMARK    7  A    between atoms: C_20  and  C_23
REMARK    8  A    between atoms: C_23  and  C_24
REMARK    9  A    between atoms: C_23  and  C_25
REMARK   10  A    between atoms: C_23  and  C_26
REMARK   11  A    between atoms: O_27  and  C_28
REMARK                            x       y       z     vdW  Elec       q    Type
REMARK                         _______ _______ _______ _____ _____    ______ ____
ROOT
ATOM      1  C   UNL     1      -1.861  -0.339   0.104  0.00  0.00    +0.256 C 
ATOM      2  O   UNL     1      -2.399  -0.803   1.087  0.00  0.00    -0.272 OA
ATOM      3  N   UNL     1      -2.591  -0.055  -0.992  0.00  0.00    -0.297 N 
ATOM      4  C   UNL     1      -2.116   0.505  -2.279  0.00  0.00    +0.121 C 
ATOM      5  C   UNL     1      -2.922  -0.255  -3.357  0.00  0.00    +0.100 C 
ATOM      6  C   UNL     1      -4.191  -0.734  -2.632  0.00  0.00    -0.004 C 
ATOM      7  C   UNL     1      -4.050  -0.239  -1.186  0.00  0.00    +0.115 C 
ATOM      8  C   UNL     1      -5.431  -0.128  -3.281  0.00  0.00    -0.010 C 
ATOM      9  C   UNL     1      -6.682  -0.665  -2.580  0.00  0.00    -0.082 C 
ATOM     10  N   UNL     1      -6.715  -2.129  -2.688  0.00  0.00    +0.379 N 
ATOM     11  C   UNL     1      -5.567  -2.709  -1.981  0.00  0.00    -0.082 C 
ATOM     12  C   UNL     1      -4.269  -2.258  -2.657  0.00  0.00    -0.010 C 
ATOM     13  H   UNL     1      -7.570  -2.475  -2.279  0.00  0.00    -0.086 HD
ATOM     14  H   UNL     1      -6.679  -2.394  -3.661  0.00  0.00    -0.086 HD
ENDROOT
BRANCH   5  15
ATOM     15  C   UNL     1      -2.132  -1.430  -3.871  0.00  0.00    +0.218 C 
ATOM     16  O   UNL     1      -1.349  -2.000  -3.142  0.00  0.00    -0.275 OA
ATOM     17  N   UNL     1      -2.296  -1.849  -5.142  0.00  0.00    -0.312 N 
ATOM     18  H   UNL     1      -2.923  -1.393  -5.725  0.00  0.00    +0.149 HD
BRANCH  17  19
ATOM     19  C   UNL     1      -1.528  -2.992  -5.642  0.00  0.00    +0.075 C 
ATOM     20  C   UNL     1      -2.250  -4.290  -5.276  0.00  0.00    +0.028 C 
BRANCH  19  21
ATOM     21  C   UNL     1      -1.397  -2.892  -7.163  0.00  0.00    -0.020 C 
ATOM     22  C   UNL     1      -0.676  -1.594  -7.529  0.00  0.00    +0.012 C 
ATOM     23  C   UNL     1      -0.596  -4.086  -7.685  0.00  0.00    +0.012 C 
ATOM     24  C   UNL     1      -2.790  -2.897  -7.796  0.00  0.00    +0.012 C 
ENDBRANCH  19  21
ENDBRANCH  17  19
ENDBRANCH   5  15
BRANCH   1  26
ATOM     25  C   UNL     1      -0.121   1.423  -0.007  0.00  0.00    +0.062 C 
ATOM     26  C   UNL     1      -0.376  -0.081   0.109  0.00  0.00    +0.256 C 
BRANCH  26  27
ATOM     27  O   UNL     1       0.188  -0.567   1.329  0.00  0.00    -0.480 OA
BRANCH  27  28
ATOM     28  C   UNL     1       1.504  -0.904   1.308  0.00  0.00    +0.122 A 
ATOM     29  C   UNL     1       2.089  -1.489   2.421  0.00  0.00    +0.045 A 
ATOM     30  C   UNL     1       3.428  -1.831   2.398  0.00  0.00    +0.004 A 
ATOM     31  C   UNL     1       4.184  -1.591   1.266  0.00  0.00    +0.000 A 
ATOM     32  C   UNL     1       3.603  -1.007   0.155  0.00  0.00    +0.004 A 
ATOM     33  C   UNL     1       2.264  -0.669   0.171  0.00  0.00    +0.045 A 
ENDBRANCH  27  28
ENDBRANCH  26  27
ENDBRANCH   1  26
TORSDOF 6
