REMARK  Name = ZINC31057720
REMARK  9 active torsions:
REMARK  status: ('A' for Active; 'I' for Inactive)
REMARK    1  A    between atoms: C_1  and  C_2
REMARK    2  A    between atoms: N_5  and  C_8
REMARK    3  A    between atoms: C_11  and  C_14
REMARK    4  A    between atoms: C_14  and  C_16
REMARK    5  A    between atoms: C_14  and  N_17
REMARK    6  A    between atoms: C_18  and  C_20
REMARK    7  A    between atoms: N_25  and  C_27
REMARK    8  A    between atoms: C_27  and  C_28
REMARK    9  A    between atoms: C_30  and  C_33
REMARK                            x       y       z     vdW  Elec       q    Type
REMARK                         _______ _______ _______ _____ _____    ______ ____
ROOT
ATOM      1  N   UNL     1       2.301  10.118  -1.498  0.00  0.00    -0.309 N 
ATOM      2  C   UNL     1       2.779  11.270  -2.009  0.00  0.00    +0.215 C 
ATOM      3  O   UNL     1       2.098  11.923  -2.772  0.00  0.00    -0.276 OA
ATOM      4  H   UNL     1       2.918   9.526  -0.806  0.00  0.00    +0.149 HD
ENDROOT
BRANCH   2   5
ATOM      5  C   UNL     1       4.158  11.748  -1.633  0.00  0.00    +0.058 C 
ATOM      6  C   UNL     1       5.193  10.703  -2.057  0.00  0.00    +0.009 C 
ATOM      7  C   UNL     1       6.595  11.222  -1.726  0.00  0.00    -0.018 C 
ATOM      8  C   UNL     1       6.820  12.559  -2.435  0.00  0.00    -0.078 C 
ATOM      9  N   UNL     1       5.805  13.524  -1.996  0.00  0.00    +0.386 N 
ATOM     10  C   UNL     1       4.453  13.069  -2.345  0.00  0.00    -0.065 C 
ATOM     11  H   UNL     1       5.862  13.595  -0.899  0.00  0.00    -0.081 HD
BRANCH   9  12
ATOM     12  C   UNL     1       6.071  14.858  -2.550  0.00  0.00    +0.022 C 
BRANCH  12  13
ATOM     13  C   UNL     1       7.533  15.187  -2.386  0.00  0.00    +0.211 A 
ATOM     14  N   UNL     1       8.490  14.921  -3.239  0.00  0.00    -0.192 NA
ATOM     15  C   UNL     1       9.623  15.399  -2.675  0.00  0.00    +0.209 A 
ATOM     16  N   UNL     1       9.290  15.915  -1.517  0.00  0.00    -0.056 NA
ATOM     17  O   UNL     1       8.095  15.801  -1.340  0.00  0.00    -0.340 OA
BRANCH  15  18
ATOM     18  C   UNL     1      10.982  15.345  -3.252  0.00  0.00    +0.060 A 
ATOM     19  C   UNL     1      12.161  15.809  -2.731  0.00  0.00    +0.019 A 
ATOM     20  C   UNL     1      13.318  15.640  -3.457  0.00  0.00    +0.008 A 
ATOM     21  C   UNL     1      13.255  15.030  -4.670  0.00  0.00    +0.046 A 
ATOM     22  S   UNL     1      11.514  14.663  -4.814  0.00  0.00    -0.093 S 
ENDBRANCH  15  18
ENDBRANCH  12  13
ENDBRANCH   9  12
ENDBRANCH   2   5
BRANCH   1  23
ATOM     23  C   UNL     1       0.961   9.654  -1.863  0.00  0.00    +0.100 C 
ATOM     24  C   UNL     1      -0.074  10.317  -0.952  0.00  0.00    +0.033 C 
BRANCH  23  28
ATOM     25  C   UNL     1       0.748   5.410  -1.410  0.00  0.00    +0.030 A 
ATOM     26  C   UNL     1       1.425   6.177  -0.471  0.00  0.00    +0.023 A 
ATOM     27  C   UNL     1       1.497   7.548  -0.623  0.00  0.00    +0.007 A 
ATOM     28  C   UNL     1       0.886   8.158  -1.704  0.00  0.00    -0.027 A 
ATOM     29  C   UNL     1       0.207   7.397  -2.638  0.00  0.00    +0.007 A 
ATOM     30  C   UNL     1       0.136   6.026  -2.494  0.00  0.00    +0.023 A 
BRANCH  25  35
ATOM     31  C   UNL     1       0.002  -0.004   0.002  0.00  0.00    +0.007 C 
ATOM     32  C   UNL     1      -0.019   1.526   0.010  0.00  0.00    -0.011 C 
ATOM     33  C   UNL     1      -0.752   2.034  -1.234  0.00  0.00    +0.022 C 
ATOM     34  C   UNL     1      -0.717   3.564  -1.251  0.00  0.00    +0.105 C 
ATOM     35  N   UNL     1       0.678   4.023  -1.262  0.00  0.00    -0.330 N 
ATOM     36  C   UNL     1       1.390   3.586  -0.053  0.00  0.00    +0.105 C 
ATOM     37  C   UNL     1       1.417   2.057  -0.000  0.00  0.00    +0.022 C 
ENDBRANCH  25  35
ENDBRANCH  23  28
ENDBRANCH   1  23
TORSDOF 7
