REMARK  Name = ZINC59425667
REMARK  9 active torsions:
REMARK  status: ('A' for Active; 'I' for Inactive)
REMARK    1  A    between atoms: C_1  and  O_2
REMARK    2  A    between atoms: O_2  and  C_3
REMARK    3  A    between atoms: C_5  and  C_19
REMARK    4  A    between atoms: C_8  and  O_9
REMARK    5  A    between atoms: O_9  and  C_10
REMARK    6  A    between atoms: C_10  and  C_11
REMARK    7  A    between atoms: N_20  and  N_21
REMARK    8  A    between atoms: C_22  and  C_24
REMARK    9  A    between atoms: C_27  and  N_30
REMARK                            x       y       z     vdW  Elec       q    Type
REMARK                         _______ _______ _______ _____ _____    ______ ____
ROOT
ATOM      1  C   UNL     1      -1.201  -0.638   0.010  0.00  0.00    +0.162 A 
ATOM      2  C   UNL     1      -2.370   0.099   0.019  0.00  0.00    +0.059 A 
ATOM      3  C   UNL     1      -3.605  -0.555   0.027  0.00  0.00    -0.002 A 
ATOM      4  C   UNL     1      -3.651  -1.952   0.026  0.00  0.00    +0.013 A 
ATOM      5  C   UNL     1      -2.481  -2.680   0.016  0.00  0.00    +0.050 A 
ATOM      6  C   UNL     1      -1.255  -2.030   0.003  0.00  0.00    +0.162 A 
ENDROOT
BRANCH   1   8
ATOM      7  C   UNL     1      -0.017   1.425   0.010  0.00  0.00    +0.277 C 
ATOM      8  O   UNL     1       0.002  -0.004   0.002  0.00  0.00    -0.491 OA
ENDBRANCH   1   8
BRANCH   3   9
ATOM      9  C   UNL     1      -4.855   0.225   0.038  0.00  0.00    +0.138 C 
ATOM     10  N   UNL     1      -6.001  -0.384   0.045  0.00  0.00    -0.187 NA
BRANCH  10  11
ATOM     11  N   UNL     1      -7.189   0.358   0.055  0.00  0.00    -0.203 N 
ATOM     12  C   UNL     1      -8.379  -0.275   0.062  0.00  0.00    +0.263 C 
ATOM     13  O   UNL     1      -8.421  -1.491   0.061  0.00  0.00    -0.268 OA
ATOM     14  H   UNL     1      -7.156   1.327   0.056  0.00  0.00    +0.178 HD
BRANCH  12  15
ATOM     15  C   UNL     1      -9.633   0.507   0.073  0.00  0.00    +0.038 A 
ATOM     16  C   UNL     1      -9.588   1.903   0.069  0.00  0.00    +0.015 A 
ATOM     17  C   UNL     1     -10.762   2.627   0.079  0.00  0.00    +0.033 A 
ATOM     18  C   UNL     1     -11.982   1.974   0.093  0.00  0.00    +0.126 A 
ATOM     19  C   UNL     1     -12.033   0.592   0.096  0.00  0.00    +0.033 A 
ATOM     20  C   UNL     1     -10.867  -0.145   0.081  0.00  0.00    +0.015 A 
BRANCH  18  21
ATOM     21  N   UNL     1     -13.237   2.758   0.104  0.00  0.00    +0.056 N 
ATOM     22  O   UNL     1     -13.195   3.966   0.101  0.00  0.00    -0.126 OA
ATOM     23  O   UNL     1     -14.304   2.190   0.116  0.00  0.00    -0.126 OA
ENDBRANCH  18  21
ENDBRANCH  12  15
ENDBRANCH  10  11
ENDBRANCH   3   9
BRANCH   6  24
ATOM     24  O   UNL     1      -0.104  -2.753  -0.012  0.00  0.00    -0.484 OA
BRANCH  24  25
ATOM     25  C   UNL     1      -0.232  -4.176  -0.018  0.00  0.00    +0.266 C 
BRANCH  25  26
ATOM     26  C   UNL     1       1.138  -4.804  -0.035  0.00  0.00    +0.008 A 
ATOM     27  C   UNL     1       2.265  -4.003  -0.035  0.00  0.00    +0.010 A 
ATOM     28  C   UNL     1       3.522  -4.577  -0.050  0.00  0.00    +0.020 A 
ATOM     29  C   UNL     1       3.653  -5.955  -0.064  0.00  0.00    +0.042 A 
ATOM     30  C   UNL     1       2.526  -6.757  -0.063  0.00  0.00    +0.040 A 
ATOM     31  C   UNL     1       1.268  -6.181  -0.043  0.00  0.00    +0.049 A 
ATOM     32 CL   UNL     1      -0.147  -7.186  -0.036  0.00  0.00    -0.083 Cl
ATOM     33 CL   UNL     1       5.232  -6.676  -0.084  0.00  0.00    -0.083 Cl
ENDBRANCH  25  26
ENDBRANCH  24  25
ENDBRANCH   6  24
TORSDOF 8
