REMARK  Name = ZINC16779024
REMARK  6 active torsions:
REMARK  status: ('A' for Active; 'I' for Inactive)
REMARK    1  A    between atoms: C_1  and  C_2
REMARK    2  A    between atoms: C_2  and  C_29
REMARK    3  A    between atoms: N_5  and  N_6
REMARK    4  A    between atoms: C_11  and  C_14
REMARK    5  A    between atoms: C_14  and  C_15
REMARK    6  A    between atoms: N_17  and  C_18
REMARK                            x       y       z     vdW  Elec       q    Type
REMARK                         _______ _______ _______ _____ _____    ______ ____
ROOT
ATOM      1  N   UNL     1      -3.453   1.654   0.163  0.00  0.00    -0.125 NA
ATOM      2  C   UNL     1      -4.550   0.930   0.207  0.00  0.00    +0.183 C 
ATOM      3  N   UNL     1      -4.670  -0.422   0.463  0.00  0.00    -0.263 N 
ATOM      4  C   UNL     1      -5.841  -1.035   0.484  0.00  0.00    +0.233 C 
ATOM      5  O   UNL     1      -5.942  -2.222   0.714  0.00  0.00    -0.274 OA
ATOM      6  C   UNL     1      -7.051  -0.163   0.193  0.00  0.00    +0.149 C 
ATOM      7  S   UNL     1      -6.234   1.462  -0.059  0.00  0.00    -0.075 S 
ATOM      8  H   UNL     1      -3.772  -1.026   0.659  0.00  0.00    +0.157 HD
ENDROOT
BRANCH   1  13
ATOM      9  C   UNL     1      -2.012   5.506   0.044  0.00  0.00    +0.040 C 
ATOM     10  C   UNL     1      -2.114   4.080   0.523  0.00  0.00    -0.058 C 
ATOM     11  C   UNL     1      -1.097   3.231   0.320  0.00  0.00    +0.058 C 
ATOM     12  C   UNL     1      -1.107   1.752   0.255  0.00  0.00    +0.162 C 
ATOM     13  N   UNL     1      -2.209   1.055   0.401  0.00  0.00    -0.131 NA
ATOM     14  N   UNL     1       0.106   1.157   0.036  0.00  0.00    -0.259 N 
ATOM     15  C   UNL     1       1.218   1.902  -0.116  0.00  0.00    +0.282 C 
ATOM     16  O   UNL     1       2.355   1.519  -0.318  0.00  0.00    -0.262 OA
ATOM     17  S   UNL     1       0.634   3.579   0.050  0.00  0.00    -0.028 S 
ATOM     18  C   UNL     1      -3.359   3.610   1.229  0.00  0.00    +0.040 C 
ATOM     19  H   UNL     1       0.179   0.061  -0.017  0.00  0.00    +0.157 HD
ENDBRANCH   1  13
BRANCH   6  20
ATOM     20  C   UNL     1      -7.774  -0.623  -1.074  0.00  0.00    +0.120 C 
BRANCH  20  21
ATOM     21  C   UNL     1      -8.927   0.305  -1.359  0.00  0.00    +0.219 C 
ATOM     22  O   UNL     1      -9.149   1.242  -0.621  0.00  0.00    -0.275 OA
ATOM     23  N   UNL     1      -9.712   0.094  -2.434  0.00  0.00    -0.285 N 
ATOM     24  H   UNL     1      -9.567  -0.803  -3.054  0.00  0.00    +0.155 HD
BRANCH  23  25
ATOM     25  C   UNL     1     -10.713   1.016  -2.762  0.00  0.00    +0.033 A 
ATOM     26  C   UNL     1     -11.901   0.580  -3.333  0.00  0.00    +0.024 A 
ATOM     27  C   UNL     1     -12.889   1.492  -3.651  0.00  0.00    +0.017 A 
ATOM     28  C   UNL     1     -12.690   2.840  -3.411  0.00  0.00    +0.018 A 
ATOM     29  C   UNL     1     -11.505   3.278  -2.848  0.00  0.00    +0.017 A 
ATOM     30  C   UNL     1     -10.516   2.370  -2.523  0.00  0.00    +0.024 A 
ATOM     31 BR   UNL     1     -14.042   4.086  -3.854  0.00  0.00    -0.050 Br
ENDBRANCH  23  25
ENDBRANCH  20  21
ENDBRANCH   6  20
TORSDOF 4
