REMARK  Name = ZINC16181142
REMARK  6 active torsions:
REMARK  status: ('A' for Active; 'I' for Inactive)
REMARK    1  A    between atoms: C_1  and  C_2
REMARK    2  A    between atoms: C_3  and  C_11
REMARK    3  A    between atoms: N_13  and  N_14
REMARK    4  A    between atoms: C_15  and  C_17
REMARK    5  A    between atoms: C_20  and  O_23
REMARK    6  A    between atoms: O_23  and  C_24
REMARK                            x       y       z     vdW  Elec       q    Type
REMARK                         _______ _______ _______ _____ _____    ______ ____
ROOT
ATOM      1  N   UNL     1      -3.410   2.850   0.235  0.00  0.00    -0.230 N 
ATOM      2  C   UNL     1      -4.554   2.253  -0.153  0.00  0.00    +0.260 C 
ATOM      3  O   UNL     1      -4.566   1.061  -0.395  0.00  0.00    -0.269 OA
ATOM      4  H   UNL     1      -3.400   3.800   0.427  0.00  0.00    +0.173 HD
ENDROOT
BRANCH   2   5
ATOM      5  C   UNL     1      -5.792   3.045  -0.285  0.00  0.00    +0.038 A 
ATOM      6  C   UNL     1      -5.781   4.414  -0.003  0.00  0.00    +0.017 A 
ATOM      7  C   UNL     1      -6.937   5.151  -0.132  0.00  0.00    +0.047 A 
ATOM      8  C   UNL     1      -8.116   4.533  -0.532  0.00  0.00    +0.128 A 
ATOM      9  C   UNL     1      -8.132   3.171  -0.809  0.00  0.00    +0.047 A 
ATOM     10  C   UNL     1      -6.979   2.428  -0.688  0.00  0.00    +0.017 A 
BRANCH   8  11
ATOM     11  O   UNL     1      -9.255   5.262  -0.653  0.00  0.00    -0.456 OA
BRANCH  11  12
ATOM     12  C   UNL     1      -9.490   5.885  -1.838  0.00  0.00    +0.129 A 
ATOM     13  C   UNL     1      -8.572   5.782  -2.872  0.00  0.00    +0.049 A 
ATOM     14  C   UNL     1      -8.815   6.411  -4.077  0.00  0.00    +0.042 A 
ATOM     15  C   UNL     1      -9.970   7.155  -4.249  0.00  0.00    +0.124 A 
ATOM     16  C   UNL     1     -10.886   7.264  -3.216  0.00  0.00    +0.042 A 
ATOM     17  C   UNL     1     -10.648   6.631  -2.012  0.00  0.00    +0.049 A 
ATOM     18  F   UNL     1     -10.205   7.774  -5.427  0.00  0.00    -0.205 F 
ENDBRANCH  11  12
ENDBRANCH   8  11
ENDBRANCH   2   5
BRANCH   1  21
ATOM     19  C   UNL     1      -1.090   2.694   0.748  0.00  0.00    +0.279 C 
ATOM     20  O   UNL     1      -1.098   3.864   1.087  0.00  0.00    -0.267 OA
ATOM     21  N   UNL     1      -2.235   2.097   0.360  0.00  0.00    -0.229 N 
ATOM     22  H   UNL     1      -2.244   1.147   0.168  0.00  0.00    +0.173 HD
BRANCH  19  25
ATOM     23  C   UNL     1       1.024   2.669  -1.545  0.00  0.00    +0.068 C 
ATOM     24  C   UNL     1       1.082   1.924  -0.237  0.00  0.00    +0.069 A 
ATOM     25  C   UNL     1       0.123   1.960   0.762  0.00  0.00    +0.133 A 
ATOM     26  N   UNL     1       0.580   1.135   1.773  0.00  0.00    -0.295 N 
ATOM     27  C   UNL     1       0.061   0.792   2.982  0.00  0.00    +0.093 A 
ATOM     28  C   UNL     1       0.724  -0.054   3.803  0.00  0.00    +0.018 A 
ATOM     29  C   UNL     1       1.960  -0.589   3.412  0.00  0.00    +0.005 A 
ATOM     30  C   UNL     1       2.487  -0.250   2.202  0.00  0.00    +0.047 A 
ATOM     31  C   UNL     1       1.782   0.632   1.363  0.00  0.00    +0.138 A 
ATOM     32  N   UNL     1       2.058   1.121   0.156  0.00  0.00    -0.232 NA
ENDBRANCH  19  25
ENDBRANCH   1  21
TORSDOF 5
