REMARK  Name = ZINC34681347
REMARK  4 active torsions:
REMARK  status: ('A' for Active; 'I' for Inactive)
REMARK    1  A    between atoms: C_1  and  C_2
REMARK    2  A    between atoms: C_7  and  C_8
REMARK    3  A    between atoms: C_20  and  N_23
REMARK    4  A    between atoms: N_26  and  C_27
REMARK                            x       y       z     vdW  Elec       q    Type
REMARK                         _______ _______ _______ _____ _____    ______ ____
ROOT
ATOM      1  C   UNL     1       0.745   1.068   2.901  0.00  0.00    +0.247 C 
ATOM      2  O   UNL     1       0.709   2.282   2.943  0.00  0.00    -0.270 OA
ATOM      3  N   UNL     1       0.874   0.358   4.040  0.00  0.00    -0.296 N 
ATOM      4  C   UNL     1       0.834   1.089   5.306  0.00  0.00    +0.109 C 
ATOM      5  C   UNL     1      -0.573   0.989   5.861  0.00  0.00    +0.038 C 
ATOM      6  C   UNL     1      -0.730  -0.289   6.689  0.00  0.00    +0.108 C 
ATOM      7  N   UNL     1      -0.071  -1.448   6.069  0.00  0.00    -0.315 N 
ATOM      8  C   UNL     1      -0.149  -1.743   4.648  0.00  0.00    +0.125 C 
ATOM      9  C   UNL     1       1.034  -1.050   3.927  0.00  0.00    +0.127 C 
ATOM     10  C   UNL     1       0.664  -2.305   6.883  0.00  0.00    +0.099 A 
ATOM     11  C   UNL     1       1.311  -3.402   6.321  0.00  0.00    +0.043 A 
ATOM     12  C   UNL     1       2.039  -4.246   7.139  0.00  0.00    +0.028 A 
ATOM     13  C   UNL     1       2.096  -3.964   8.503  0.00  0.00    +0.051 A 
ATOM     14  C   UNL     1       1.426  -2.853   8.992  0.00  0.00    +0.107 A 
ATOM     15  N   UNL     1       0.745  -2.065   8.182  0.00  0.00    -0.348 N 
ATOM     16  H   UNL     1       0.288  -1.292   8.549  0.00  0.00    +0.167 HD
ENDROOT
BRANCH   1  23
ATOM     17  C   UNL     1      -1.680   1.283   1.338  0.00  0.00    +0.044 C 
ATOM     18  C   UNL     1      -0.516   0.466   0.839  0.00  0.00    -0.038 A 
ATOM     19  C   UNL     1      -0.597  -0.183  -0.376  0.00  0.00    +0.004 A 
ATOM     20  C   UNL     1       0.471  -0.933  -0.836  0.00  0.00    +0.000 A 
ATOM     21  C   UNL     1       1.626  -1.038  -0.081  0.00  0.00    +0.001 A 
ATOM     22  C   UNL     1       1.721  -0.393   1.134  0.00  0.00    +0.013 A 
ATOM     23  C   UNL     1       0.649   0.370   1.602  0.00  0.00    +0.040 A 
ENDBRANCH   1  23
BRANCH  13  24
ATOM     24  N   UNL     1       2.822  -4.793   9.369  0.00  0.00    -0.268 N 
ATOM     25  C   UNL     1       3.926  -5.428   8.927  0.00  0.00    +0.308 C 
ATOM     26  O   UNL     1       4.351  -5.202   7.811  0.00  0.00    -0.252 OA
ATOM     27  N   UNL     1       4.559  -6.313   9.723  0.00  0.00    -0.267 N 
ATOM     28  H   UNL     1       2.530  -4.911  10.287  0.00  0.00    +0.156 HD
ATOM     29  H   UNL     1       4.172  -6.559  10.578  0.00  0.00    +0.156 HD
BRANCH  27  30
ATOM     30  C   UNL     1       5.775  -6.878   9.315  0.00  0.00    +0.070 A 
ATOM     31  C   UNL     1       6.601  -6.189   8.438  0.00  0.00    +0.029 A 
ATOM     32  C   UNL     1       7.800  -6.747   8.037  0.00  0.00    +0.040 A 
ATOM     33  C   UNL     1       8.178  -7.993   8.509  0.00  0.00    +0.126 A 
ATOM     34  C   UNL     1       7.356  -8.683   9.384  0.00  0.00    +0.078 A 
ATOM     35  C   UNL     1       6.158  -8.126   9.793  0.00  0.00    +0.147 A 
ATOM     36  F   UNL     1       5.359  -8.796  10.652  0.00  0.00    -0.203 F 
ATOM     37  F   UNL     1       9.350  -8.536   8.114  0.00  0.00    -0.205 F 
ENDBRANCH  27  30
ENDBRANCH  13  24
TORSDOF 3
