REMARK  Name = ZINC00987151
REMARK  6 active torsions:
REMARK  status: ('A' for Active; 'I' for Inactive)
REMARK    1  A    between atoms: C_4  and  C_7
REMARK    2  A    between atoms: C_8  and  C_18
REMARK    3  A    between atoms: N_10  and  C_12
REMARK    4  A    between atoms: C_21  and  C_32
REMARK    5  A    between atoms: C_27  and  N_31
REMARK    6  A    between atoms: C_28  and  C_29
REMARK                            x       y       z     vdW  Elec       q    Type
REMARK                         _______ _______ _______ _____ _____    ______ ____
ROOT
ATOM      1  C   UNL     1       3.175  -2.176   1.286  0.00  0.00    +0.105 C 
ATOM      2  C   UNL     1       2.289  -1.432   2.252  0.00  0.00    +0.055 A 
ATOM      3  C   UNL     1       2.630  -0.780   3.443  0.00  0.00    +0.107 A 
ATOM      4  N   UNL     1       1.525  -0.268   3.955  0.00  0.00    -0.170 NA
ATOM      5  N   UNL     1       0.456  -0.582   3.101  0.00  0.00    -0.246 N 
ATOM      6  H   UNL     1      -0.471  -0.330   3.233  0.00  0.00    +0.192 HD
ATOM      7  C   UNL     1       0.945  -1.296   2.066  0.00  0.00    +0.223 A 
ATOM      8  O   UNL     1       0.297  -1.821   0.996  0.00  0.00    -0.423 OA
ATOM      9  C   UNL     1       0.960  -2.724   0.245  0.00  0.00    +0.200 C 
ATOM     10  C   UNL     1       2.292  -2.941   0.331  0.00  0.00    +0.098 C 
ENDROOT
BRANCH   1  12
ATOM     11  C   UNL     1       3.594   0.033  -0.018  0.00  0.00    +0.097 A 
ATOM     12  C   UNL     1       4.025  -1.197   0.518  0.00  0.00    +0.011 A 
ATOM     13  C   UNL     1       5.335  -1.342   0.223  0.00  0.00    +0.119 A 
ATOM     14  N   UNL     1       5.729  -0.246  -0.477  0.00  0.00    -0.239 N 
ATOM     15  N   UNL     1       4.620   0.598  -0.620  0.00  0.00    -0.166 NA
BRANCH  11  19
ATOM     16  C   UNL     1      -0.337   1.633   0.244  0.00  0.00    +0.000 A 
ATOM     17  C   UNL     1       0.721   2.305   0.830  0.00  0.00    +0.001 A 
ATOM     18  C   UNL     1       1.999   1.790   0.748  0.00  0.00    +0.010 A 
ATOM     19  C   UNL     1       2.223   0.591   0.074  0.00  0.00    +0.002 A 
ATOM     20  C   UNL     1       1.153  -0.081  -0.515  0.00  0.00    +0.010 A 
ATOM     21  C   UNL     1      -0.121   0.443  -0.426  0.00  0.00    +0.001 A 
ENDBRANCH  11  19
BRANCH  14  22
ATOM     22  C   UNL     1       7.017  -0.005  -0.973  0.00  0.00    +0.065 A 
ATOM     23  C   UNL     1       8.027  -0.936  -0.768  0.00  0.00    +0.028 A 
ATOM     24  C   UNL     1       9.295  -0.695  -1.259  0.00  0.00    +0.002 A 
ATOM     25  C   UNL     1       9.560   0.471  -1.952  0.00  0.00    +0.000 A 
ATOM     26  C   UNL     1       8.557   1.401  -2.157  0.00  0.00    +0.002 A 
ATOM     27  C   UNL     1       7.285   1.163  -1.675  0.00  0.00    +0.028 A 
ENDBRANCH  14  22
ENDBRANCH   1  12
BRANCH   3  28
ATOM     28  C   UNL     1       3.986  -0.683   4.025  0.00  0.00    +0.040 A 
ATOM     29  C   UNL     1       4.598   0.392   4.612  0.00  0.00    +0.018 A 
ATOM     30  C   UNL     1       5.883   0.245   5.088  0.00  0.00    +0.008 A 
ATOM     31  C   UNL     1       6.501  -0.957   4.961  0.00  0.00    +0.046 A 
ATOM     32  S   UNL     1       5.249  -1.938   4.152  0.00  0.00    -0.095 S 
ENDBRANCH   3  28
BRANCH   9  33
ATOM     33  N   UNL     1       0.241  -3.467  -0.658  0.00  0.00    -0.328 N 
ATOM     34  H   UNL     1      -0.716  -3.335  -0.742  0.00  0.00    +0.145 HD
ATOM     35  H   UNL     1       0.691  -4.124  -1.212  0.00  0.00    +0.145 HD
ENDBRANCH   9  33
BRANCH  10  36
ATOM     36  C   UNL     1       2.887  -3.931  -0.515  0.00  0.00    +0.101 C 
ATOM     37  N   UNL     1       3.359  -4.717  -1.187  0.00  0.00    -0.191 NA
ENDBRANCH  10  36
TORSDOF 6
