REMARK  Name = ZINC09252896
REMARK  4 active torsions:
REMARK  status: ('A' for Active; 'I' for Inactive)
REMARK    1  A    between atoms: C_6  and  C_7
REMARK    2  A    between atoms: C_7  and  C_8
REMARK    3  A    between atoms: C_7  and  N_57
REMARK    4  A    between atoms: C_20  and  C_22
REMARK                            x       y       z     vdW  Elec       q    Type
REMARK                         _______ _______ _______ _____ _____    ______ ____
ROOT
ATOM      1  C   UNL     1       6.882  -0.234   1.595  0.00  0.00    -0.058 C 
ATOM      2  C   UNL     1       5.790  -0.825   0.697  0.00  0.00    +0.089 C 
ATOM      3  N   UNL     1       4.498  -0.239   1.087  0.00  0.00    -0.301 N 
ATOM      4  C   UNL     1       4.396   1.225   1.177  0.00  0.00    +0.089 C 
ATOM      5  C   UNL     1       5.545   1.735   2.061  0.00  0.00    -0.058 C 
ATOM      6  C   UNL     1       3.434  -1.024   1.350  0.00  0.00    +0.247 C 
ATOM      7  O   UNL     1       2.361  -0.522   1.626  0.00  0.00    -0.270 OA
ATOM      8  N   UNL     1       6.824   1.241   1.506  0.00  0.00    +0.389 N 
ATOM      9  H   UNL     1       6.887   1.518   0.519  0.00  0.00    -0.080 HD
ENDROOT
BRANCH   6  10
ATOM     10  C   UNL     1       3.570  -2.492   1.302  0.00  0.00    +0.039 A 
ATOM     11  C   UNL     1       4.458  -3.081   0.397  0.00  0.00    +0.014 A 
ATOM     12  C   UNL     1       4.584  -4.452   0.356  0.00  0.00    +0.017 A 
ATOM     13  C   UNL     1       3.833  -5.245   1.212  0.00  0.00    +0.030 A 
ATOM     14  C   UNL     1       2.938  -4.670   2.121  0.00  0.00    +0.048 A 
ATOM     15  C   UNL     1       2.813  -3.290   2.162  0.00  0.00    +0.037 A 
ATOM     16  N   UNL     1       2.168  -5.451   2.979  0.00  0.00    -0.284 N 
ATOM     17  C   UNL     1       2.433  -6.699   3.357  0.00  0.00    +0.227 C 
ATOM     18  O   UNL     1       1.664  -7.241   4.123  0.00  0.00    -0.275 OA
ATOM     19  C   UNL     1       3.633  -7.475   2.887  0.00  0.00    +0.170 C 
ATOM     20  S   UNL     1       4.001  -7.002   1.171  0.00  0.00    -0.114 S 
ATOM     21  H   UNL     1       1.362  -5.047   3.335  0.00  0.00    +0.155 HD
ENDBRANCH   6  10
BRANCH   8  22
ATOM     22  C   UNL     1       7.957   1.836   2.244  0.00  0.00    -0.007 C 
BRANCH  22  28
ATOM     23  C   UNL     1       9.314   1.433   0.180  0.00  0.00    +0.005 A 
ATOM     24  C   UNL     1      10.493   1.078  -0.448  0.00  0.00    +0.038 A 
ATOM     25  C   UNL     1      11.599   0.723   0.306  0.00  0.00    +0.123 A 
ATOM     26  C   UNL     1      11.524   0.730   1.688  0.00  0.00    +0.038 A 
ATOM     27  C   UNL     1      10.345   1.090   2.314  0.00  0.00    +0.005 A 
ATOM     28  C   UNL     1       9.242   1.444   1.560  0.00  0.00    -0.057 A 
ATOM     29  F   UNL     1      12.750   0.371  -0.307  0.00  0.00    -0.205 F 
ENDBRANCH  22  28
BRANCH  22  30
ATOM     30  C   UNL     1       7.819   3.337   2.229  0.00  0.00    -0.057 A 
ATOM     31  C   UNL     1       7.489   3.989   1.056  0.00  0.00    +0.005 A 
ATOM     32  C   UNL     1       7.356   5.364   1.042  0.00  0.00    +0.038 A 
ATOM     33  C   UNL     1       7.565   6.091   2.202  0.00  0.00    +0.123 A 
ATOM     34  C   UNL     1       7.901   5.437   3.376  0.00  0.00    +0.038 A 
ATOM     35  C   UNL     1       8.027   4.061   3.388  0.00  0.00    +0.005 A 
ATOM     36  F   UNL     1       7.441   7.436   2.189  0.00  0.00    -0.205 F 
ENDBRANCH  22  30
ENDBRANCH   8  22
TORSDOF 4
