REMARK  Name = ZINC22131234
REMARK  7 active torsions:
REMARK  status: ('A' for Active; 'I' for Inactive)
REMARK    1  A    between atoms: C_1  and  C_2
REMARK    2  A    between atoms: C_12  and  C_14
REMARK    3  A    between atoms: C_17  and  S_20
REMARK    4  A    between atoms: S_20  and  N_23
REMARK    5  A    between atoms: N_23  and  C_24
REMARK    6  A    between atoms: C_29  and  O_30
REMARK    7  A    between atoms: O_30  and  C_31
REMARK                            x       y       z     vdW  Elec       q    Type
REMARK                         _______ _______ _______ _____ _____    ______ ____
ROOT
ATOM      1  C   UNL     1      -3.716   3.051  -6.660  0.00  0.00    +0.037 A 
ATOM      2  C   UNL     1      -3.147   2.337  -7.715  0.00  0.00    +0.015 A 
ATOM      3  C   UNL     1      -3.554   2.584  -9.010  0.00  0.00    +0.029 A 
ATOM      4  C   UNL     1      -4.516   3.545  -9.265  0.00  0.00    +0.109 A 
ATOM      5  C   UNL     1      -5.081   4.260  -8.223  0.00  0.00    +0.029 A 
ATOM      6  C   UNL     1      -4.687   4.020  -6.924  0.00  0.00    +0.015 A 
ENDROOT
BRANCH   1  17
ATOM      7  C   UNL     1      -0.117   0.380   2.270  0.00  0.00    +0.008 C 
ATOM      8  C   UNL     1      -0.980   0.680   1.043  0.00  0.00    -0.009 C 
ATOM      9  C   UNL     1      -1.275   2.182   0.976  0.00  0.00    +0.010 C 
ATOM     10  C   UNL     1      -2.331   2.464  -0.095  0.00  0.00    +0.056 C 
ATOM     11  C   UNL     1      -1.881   1.829  -1.406  0.00  0.00    +0.054 A 
ATOM     12  C   UNL     1      -0.936   0.853  -1.405  0.00  0.00    +0.015 A 
ATOM     13  S   UNL     1      -0.774   0.466  -3.127  0.00  0.00    -0.057 S 
ATOM     14  C   UNL     1      -1.950   1.605  -3.712  0.00  0.00    +0.165 A 
ATOM     15  N   UNL     1      -2.363   2.173  -2.597  0.00  0.00    -0.229 NA
ATOM     16  N   UNL     1      -2.352   1.853  -5.018  0.00  0.00    -0.261 N 
ATOM     17  C   UNL     1      -3.289   2.788  -5.270  0.00  0.00    +0.250 C 
ATOM     18  O   UNL     1      -3.783   3.415  -4.353  0.00  0.00    -0.270 OA
ATOM     19  C   UNL     1      -0.226   0.268  -0.232  0.00  0.00    +0.047 C 
ATOM     20  H   UNL     1      -1.905   1.286  -5.848  0.00  0.00    +0.157 HD
ENDBRANCH   1  17
BRANCH   4  21
ATOM     21  S   UNL     1      -5.026   3.859 -10.922  0.00  0.00    +0.072 S 
ATOM     22  O   UNL     1      -4.744   2.680 -11.664  0.00  0.00    -0.150 OA
ATOM     23  O   UNL     1      -6.330   4.419 -10.847  0.00  0.00    -0.150 OA
BRANCH  21  24
ATOM     24  N   UNL     1      -4.036   5.043 -11.522  0.00  0.00    -0.213 N 
ATOM     25  H   UNL     1      -4.463   5.999 -11.859  0.00  0.00    +0.174 HD
BRANCH  24  26
ATOM     26  C   UNL     1      -2.655   4.828 -11.602  0.00  0.00    +0.090 A 
ATOM     27  C   UNL     1      -2.164   3.566 -11.907  0.00  0.00    +0.028 A 
ATOM     28  C   UNL     1      -0.801   3.357 -11.989  0.00  0.00    +0.002 A 
ATOM     29  C   UNL     1       0.077   4.400 -11.758  0.00  0.00    +0.004 A 
ATOM     30  C   UNL     1      -0.405   5.659 -11.449  0.00  0.00    +0.047 A 
ATOM     31  C   UNL     1      -1.770   5.878 -11.369  0.00  0.00    +0.142 A 
BRANCH  31  32
ATOM     32  O   UNL     1      -2.245   7.115 -11.064  0.00  0.00    -0.493 OA
ATOM     33  C   UNL     1      -1.279   8.143 -10.838  0.00  0.00    +0.277 C 
ENDBRANCH  31  32
ENDBRANCH  24  26
ENDBRANCH  21  24
ENDBRANCH   4  21
TORSDOF 5
