REMARK  Name = ZINC29904093
REMARK  9 active torsions:
REMARK  status: ('A' for Active; 'I' for Inactive)
REMARK    1  A    between atoms: C_1  and  O_2
REMARK    2  A    between atoms: O_2  and  C_3
REMARK    3  A    between atoms: C_8  and  N_9
REMARK    4  A    between atoms: C_10  and  C_12
REMARK    5  A    between atoms: N_15  and  C_18
REMARK    6  A    between atoms: C_18  and  C_19
REMARK    7  A    between atoms: N_21  and  C_22
REMARK    8  A    between atoms: C_27  and  S_28
REMARK    9  A    between atoms: S_28  and  C_29
REMARK                            x       y       z     vdW  Elec       q    Type
REMARK                         _______ _______ _______ _____ _____    ______ ____
ROOT
ATOM      1  C   UNL     1      -2.815   4.695   6.370  0.00  0.00    +0.072 C 
ATOM      2  C   UNL     1      -2.855   5.722   5.235  0.00  0.00    -0.006 C 
ATOM      3  C   UNL     1      -4.296   6.197   5.034  0.00  0.00    -0.077 C 
ATOM      4  N   UNL     1      -4.793   6.796   6.279  0.00  0.00    +0.385 N 
ATOM      5  C   UNL     1      -4.809   5.816   7.372  0.00  0.00    -0.077 C 
ATOM      6  C   UNL     1      -3.383   5.330   7.643  0.00  0.00    -0.006 C 
ATOM      7  H   UNL     1      -4.101   7.603   6.562  0.00  0.00    -0.081 HD
ENDROOT
BRANCH   1   9
ATOM      8  N   UNL     1      -0.685   3.682   5.626  0.00  0.00    -0.282 N 
ATOM      9  C   UNL     1      -1.390   4.269   6.613  0.00  0.00    +0.220 C 
ATOM     10  O   UNL     1      -0.878   4.453   7.697  0.00  0.00    -0.275 OA
ATOM     11  H   UNL     1      -1.119   3.590   4.619  0.00  0.00    +0.155 HD
BRANCH   8  17
ATOM     12  C   UNL     1       1.511   3.034   4.838  0.00  0.00    +0.141 A 
ATOM     13  C   UNL     1       2.783   2.550   5.098  0.00  0.00    +0.047 A 
ATOM     14  C   UNL     1       3.146   2.217   6.389  0.00  0.00    +0.004 A 
ATOM     15  C   UNL     1       2.242   2.365   7.425  0.00  0.00    +0.002 A 
ATOM     16  C   UNL     1       0.971   2.846   7.175  0.00  0.00    +0.027 A 
ATOM     17  C   UNL     1       0.601   3.188   5.882  0.00  0.00    +0.076 A 
BRANCH  12  19
ATOM     18  C   UNL     1       2.139   3.184   2.549  0.00  0.00    +0.277 C 
ATOM     19  O   UNL     1       1.153   3.362   3.568  0.00  0.00    -0.493 OA
ENDBRANCH  12  19
ENDBRANCH   8  17
ENDBRANCH   1   9
BRANCH   4  20
ATOM     20  C   UNL     1      -6.124   7.388   6.083  0.00  0.00    +0.019 C 
BRANCH  20  21
ATOM     21  C   UNL     1      -6.065   8.399   4.968  0.00  0.00    +0.201 C 
ATOM     22  O   UNL     1      -4.997   8.704   4.481  0.00  0.00    -0.278 OA
ATOM     23  N   UNL     1      -7.200   8.965   4.511  0.00  0.00    -0.286 N 
ATOM     24  H   UNL     1      -8.158   8.760   5.012  0.00  0.00    +0.155 HD
BRANCH  23  25
ATOM     25  C   UNL     1      -7.160   9.814   3.397  0.00  0.00    +0.047 A 
ATOM     26  C   UNL     1      -6.052   9.817   2.564  0.00  0.00    +0.024 A 
ATOM     27  C   UNL     1      -6.015  10.655   1.465  0.00  0.00    +0.002 A 
ATOM     28  C   UNL     1      -7.081  11.492   1.192  0.00  0.00    +0.001 A 
ATOM     29  C   UNL     1      -8.191  11.496   2.017  0.00  0.00    +0.017 A 
ATOM     30  C   UNL     1      -8.239  10.654   3.119  0.00  0.00    +0.034 A 
BRANCH  30  31
ATOM     31  S   UNL     1      -9.655  10.652   4.168  0.00  0.00    -0.088 S 
BRANCH  31  32
ATOM     32  C   UNL     1     -10.563   9.232   3.653  0.00  0.00    +0.013 A 
ATOM     33  C   UNL     1     -10.042   8.386   2.682  0.00  0.00    +0.015 A 
ATOM     34  C   UNL     1     -10.755   7.272   2.285  0.00  0.00    +0.001 A 
ATOM     35  C   UNL     1     -11.990   7.003   2.846  0.00  0.00    +0.000 A 
ATOM     36  C   UNL     1     -12.515   7.847   3.809  0.00  0.00    +0.001 A 
ATOM     37  C   UNL     1     -11.805   8.960   4.214  0.00  0.00    +0.015 A 
ENDBRANCH  31  32
ENDBRANCH  30  31
ENDBRANCH  23  25
ENDBRANCH  20  21
ENDBRANCH   4  20
TORSDOF 8
