REMARK  Name = ZINC22820697
REMARK  8 active torsions:
REMARK  status: ('A' for Active; 'I' for Inactive)
REMARK    1  A    between atoms: C_1  and  C_2
REMARK    2  A    between atoms: C_3  and  C_29
REMARK    3  A    between atoms: C_4  and  C_19
REMARK    4  A    between atoms: C_22  and  O_27
REMARK    5  A    between atoms: C_23  and  O_25
REMARK    6  A    between atoms: O_25  and  C_26
REMARK    7  A    between atoms: O_27  and  C_28
REMARK    8  A    between atoms: N_31  and  C_32
REMARK                            x       y       z     vdW  Elec       q    Type
REMARK                         _______ _______ _______ _____ _____    ______ ____
ROOT
ATOM      1  C   UNL     1       5.104   1.469   6.612  0.00  0.00    +0.061 C 
ATOM      2  C   UNL     1       3.958   0.528   6.343  0.00  0.00    +0.018 C 
ATOM      3  C   UNL     1       2.688   0.946   6.498  0.00  0.00    +0.060 C 
ATOM      4  C   UNL     1       1.532   0.027   6.224  0.00  0.00    +0.175 C 
ATOM      5  N   UNL     1       1.965  -1.364   6.171  0.00  0.00    -0.243 NA
ATOM      6  C   UNL     1       3.206  -1.705   6.034  0.00  0.00    +0.186 C 
ATOM      7  N   UNL     1       4.203  -0.760   5.938  0.00  0.00    -0.291 N 
ATOM      8  N   UNL     1       3.537  -3.042   5.984  0.00  0.00    -0.266 N 
ATOM      9  C   UNL     1       2.547  -4.004   6.080  0.00  0.00    +0.165 A 
ATOM     10  N   UNL     1       1.252  -3.842   6.226  0.00  0.00    -0.225 NA
ATOM     11  C   UNL     1       0.394  -4.882   6.301  0.00  0.00    +0.080 A 
ATOM     12  C   UNL     1      -1.011  -4.845   6.451  0.00  0.00    +0.029 A 
ATOM     13  C   UNL     1      -1.739  -6.005   6.516  0.00  0.00    +0.002 A 
ATOM     14  C   UNL     1      -1.130  -7.249   6.437  0.00  0.00    +0.001 A 
ATOM     15  C   UNL     1       0.243  -7.322   6.290  0.00  0.00    +0.017 A 
ATOM     16  C   UNL     1       0.980  -6.166   6.224  0.00  0.00    +0.041 A 
ATOM     17  S   UNL     1       2.706  -5.784   6.044  0.00  0.00    -0.052 S 
ATOM     18  H   UNL     1       5.192  -1.032   5.539  0.00  0.00    +0.154 HD
ATOM     19  H   UNL     1       4.589  -3.345   5.869  0.00  0.00    +0.157 HD
ENDROOT
BRANCH   4  20
ATOM     20  C   UNL     1       0.906   0.400   4.905  0.00  0.00    -0.015 A 
ATOM     21  C   UNL     1       1.484  -0.023   3.723  0.00  0.00    +0.010 A 
ATOM     22  C   UNL     1       0.911   0.312   2.511  0.00  0.00    +0.050 A 
ATOM     23  C   UNL     1      -0.240   1.083   2.478  0.00  0.00    +0.162 A 
ATOM     24  C   UNL     1      -0.823   1.508   3.668  0.00  0.00    +0.162 A 
ATOM     25  C   UNL     1      -0.246   1.164   4.880  0.00  0.00    +0.055 A 
BRANCH  24  26
ATOM     26  O   UNL     1      -1.955   2.261   3.642  0.00  0.00    -0.491 OA
ATOM     27  C   UNL     1      -2.497   2.662   4.902  0.00  0.00    +0.277 C 
ENDBRANCH  24  26
BRANCH  23  28
ATOM     28  O   UNL     1      -0.803   1.418   1.286  0.00  0.00    -0.491 OA
ATOM     29  C   UNL     1      -0.150   0.946   0.106  0.00  0.00    +0.277 C 
ENDBRANCH  23  28
ENDBRANCH   4  20
BRANCH   3  30
ATOM     30  C   UNL     1       2.438   2.272   6.927  0.00  0.00    +0.248 C 
ATOM     31  O   UNL     1       2.080   2.485   8.071  0.00  0.00    -0.270 OA
ATOM     32  N   UNL     1       2.595   3.299   6.068  0.00  0.00    -0.282 N 
ATOM     33  H   UNL     1       2.832   3.102   5.012  0.00  0.00    +0.155 HD
BRANCH  32  34
ATOM     34  C   UNL     1       2.458   4.615   6.520  0.00  0.00    +0.034 A 
ATOM     35  C   UNL     1       1.915   5.584   5.686  0.00  0.00    +0.023 A 
ATOM     36  C   UNL     1       1.775   6.882   6.137  0.00  0.00    +0.002 A 
ATOM     37  C   UNL     1       2.186   7.220   7.413  0.00  0.00    +0.000 A 
ATOM     38  C   UNL     1       2.732   6.259   8.244  0.00  0.00    +0.002 A 
ATOM     39  C   UNL     1       2.869   4.958   7.801  0.00  0.00    +0.023 A 
ENDBRANCH  32  34
ENDBRANCH   3  30
TORSDOF 5
