REMARK  Name = ZINC18084190
REMARK  7 active torsions:
REMARK  status: ('A' for Active; 'I' for Inactive)
REMARK    1  A    between atoms: C_4  and  C_7
REMARK    2  A    between atoms: C_7  and  N_8
REMARK    3  A    between atoms: C_9  and  S_18
REMARK    4  A    between atoms: N_10  and  C_11
REMARK    5  A    between atoms: S_18  and  C_19
REMARK    6  A    between atoms: N_24  and  C_27
REMARK    7  A    between atoms: C_30  and  C_33
REMARK                            x       y       z     vdW  Elec       q    Type
REMARK                         _______ _______ _______ _____ _____    ______ ____
ROOT
ATOM      1  N   UNL     1       3.901  -1.253   1.767  0.00  0.00    -0.320 N 
ATOM      2  C   UNL     1       5.163  -1.791   1.839  0.00  0.00    +0.155 C 
ATOM      3  N   UNL     1       5.982  -1.684   0.818  0.00  0.00    -0.226 NA
ATOM      4  H   UNL     1       3.296  -1.332   2.521  0.00  0.00    +0.148 HD
ENDROOT
BRANCH   3   5
ATOM      5  C   UNL     1       7.279  -2.114   0.931  0.00  0.00    +0.067 A 
ATOM      6  C   UNL     1       8.085  -1.643   1.969  0.00  0.00    +0.030 A 
ATOM      7  C   UNL     1       9.389  -2.080   2.079  0.00  0.00    +0.040 A 
ATOM      8  C   UNL     1       9.899  -2.985   1.161  0.00  0.00    +0.124 A 
ATOM      9  C   UNL     1       9.103  -3.456   0.130  0.00  0.00    +0.040 A 
ATOM     10  C   UNL     1       7.796  -3.030   0.013  0.00  0.00    +0.030 A 
ATOM     11  F   UNL     1      11.177  -3.409   1.273  0.00  0.00    -0.205 F 
ENDBRANCH   3   5
BRANCH   1  12
ATOM     12  C   UNL     1       3.469  -0.561   0.550  0.00  0.00    +0.138 C 
BRANCH  12  16
ATOM     13  C   UNL     1      -0.537   0.834   1.050  0.00  0.00    +0.000 A 
ATOM     14  C   UNL     1       0.525   1.641   1.411  0.00  0.00    +0.000 A 
ATOM     15  C   UNL     1       1.822   1.189   1.249  0.00  0.00    +0.005 A 
ATOM     16  C   UNL     1       2.056  -0.069   0.727  0.00  0.00    -0.030 A 
ATOM     17  C   UNL     1       0.993  -0.876   0.368  0.00  0.00    +0.005 A 
ATOM     18  C   UNL     1      -0.304  -0.424   0.528  0.00  0.00    +0.000 A 
ENDBRANCH  12  16
ENDBRANCH   1  12
BRANCH   2  19
ATOM     19  S   UNL     1       5.683  -2.624   3.303  0.00  0.00    -0.077 S 
BRANCH  19  20
ATOM     20  C   UNL     1       4.221  -2.582   4.375  0.00  0.00    +0.149 C 
ATOM     21  C   UNL     1       4.555  -3.144   5.771  0.00  0.00    +0.120 C 
ATOM     22  C   UNL     1       3.643  -4.345   5.898  0.00  0.00    +0.228 C 
ATOM     23  O   UNL     1       3.583  -5.083   6.857  0.00  0.00    -0.275 OA
ATOM     24  N   UNL     1       2.912  -4.462   4.782  0.00  0.00    -0.209 N 
ATOM     25  C   UNL     1       3.153  -3.520   3.856  0.00  0.00    +0.240 C 
ATOM     26  O   UNL     1       2.606  -3.435   2.778  0.00  0.00    -0.274 OA
BRANCH  24  27
ATOM     27  C   UNL     1       1.972  -5.479   4.597  0.00  0.00    +0.044 A 
ATOM     28  C   UNL     1       0.822  -5.512   5.378  0.00  0.00    +0.025 A 
ATOM     29  C   UNL     1      -0.106  -6.512   5.199  0.00  0.00    +0.017 A 
ATOM     30  C   UNL     1       0.109  -7.498   4.230  0.00  0.00    +0.063 A 
ATOM     31  C   UNL     1       1.267  -7.461   3.447  0.00  0.00    +0.017 A 
ATOM     32  C   UNL     1       2.187  -6.454   3.628  0.00  0.00    +0.025 A 
BRANCH  30  33
ATOM     33  C   UNL     1      -0.881  -8.570   4.035  0.00  0.00    +0.387 C 
ATOM     34  O   UNL     1      -1.893  -8.601   4.722  0.00  0.00    -0.241 OA
ATOM     35  O   UNL     1      -0.691  -9.431   3.187  0.00  0.00    -0.241 OA
ENDBRANCH  30  33
ENDBRANCH  24  27
ENDBRANCH  19  20
ENDBRANCH   2  19
TORSDOF 7
