REMARK  Name = ZINC35166881
REMARK  7 active torsions:
REMARK  status: ('A' for Active; 'I' for Inactive)
REMARK    1  A    between atoms: C_1  and  C_2
REMARK    2  A    between atoms: C_2  and  C_4
REMARK    3  A    between atoms: C_2  and  N_10
REMARK    4  A    between atoms: C_11  and  C_13
REMARK    5  A    between atoms: C_18  and  N_19
REMARK    6  A    between atoms: C_20  and  C_22
REMARK    7  A    between atoms: N_27  and  C_29
REMARK                            x       y       z     vdW  Elec       q    Type
REMARK                         _______ _______ _______ _____ _____    ______ ____
ROOT
ATOM      1  C   UNL     1       2.722  -1.050  -2.435  0.00  0.00    +0.058 A 
ATOM      2  C   UNL     1       1.987  -1.480  -3.541  0.00  0.00    +0.015 A 
ATOM      3  C   UNL     1       2.640  -1.924  -4.671  0.00  0.00    +0.001 A 
ATOM      4  C   UNL     1       4.025  -1.946  -4.715  0.00  0.00    +0.002 A 
ATOM      5  C   UNL     1       4.765  -1.524  -3.629  0.00  0.00    +0.024 A 
ATOM      6  C   UNL     1       4.124  -1.068  -2.485  0.00  0.00    +0.046 A 
ENDROOT
BRANCH   1   8
ATOM      7  N   UNL     1       0.686  -0.462  -1.214  0.00  0.00    -0.305 N 
ATOM      8  C   UNL     1       2.029  -0.573  -1.223  0.00  0.00    +0.246 C 
ATOM      9  O   UNL     1       2.670  -0.280  -0.232  0.00  0.00    -0.270 OA
ATOM     10  H   UNL     1       0.175  -0.696  -2.005  0.00  0.00    +0.150 HD
BRANCH   7  12
ATOM     11  C   UNL     1      -0.023   1.541  -0.004  0.00  0.00    +0.033 C 
ATOM     12  C   UNL     1      -0.002   0.011  -0.011  0.00  0.00    +0.100 C 
BRANCH  12  13
ATOM     13  C   UNL     1      -1.416  -0.510  -0.003  0.00  0.00    -0.027 A 
ATOM     14  C   UNL     1      -2.143  -0.554  -1.178  0.00  0.00    +0.005 A 
ATOM     15  C   UNL     1      -3.440  -1.032  -1.171  0.00  0.00    +0.000 A 
ATOM     16  C   UNL     1      -4.010  -1.467   0.011  0.00  0.00    +0.000 A 
ATOM     17  C   UNL     1      -3.283  -1.424   1.186  0.00  0.00    +0.000 A 
ATOM     18  C   UNL     1      -1.984  -0.950   1.178  0.00  0.00    +0.005 A 
ENDBRANCH  12  13
ENDBRANCH   7  12
ENDBRANCH   1   8
BRANCH   6  19
ATOM     19  N   UNL     1       4.869  -0.636  -1.390  0.00  0.00    -0.285 N 
ATOM     20  C   UNL     1       6.040   0.003  -1.582  0.00  0.00    +0.222 C 
ATOM     21  O   UNL     1       6.398   0.288  -2.705  0.00  0.00    -0.275 OA
ATOM     22  H   UNL     1       4.545  -0.795  -0.490  0.00  0.00    +0.155 HD
BRANCH  20  23
ATOM     23  C   UNL     1       6.904   0.363  -0.401  0.00  0.00    +0.102 C 
ATOM     24  C   UNL     1       7.414  -0.907   0.319  0.00  0.00    +0.110 C 
ATOM     25  C   UNL     1       8.761  -1.177  -0.314  0.00  0.00    +0.221 C 
ATOM     26  O   UNL     1       9.366  -2.226  -0.238  0.00  0.00    -0.275 OA
ATOM     27  N   UNL     1       9.189  -0.087  -0.972  0.00  0.00    -0.271 N 
ATOM     28  C   UNL     1       8.226   1.016  -0.861  0.00  0.00    +0.127 C 
BRANCH  27  29
ATOM     29  C   UNL     1      10.398  -0.012  -1.673  0.00  0.00    +0.036 A 
ATOM     30  C   UNL     1      11.292  -1.074  -1.635  0.00  0.00    +0.024 A 
ATOM     31  C   UNL     1      12.484  -0.997  -2.328  0.00  0.00    +0.017 A 
ATOM     32  C   UNL     1      12.788   0.136  -3.061  0.00  0.00    +0.018 A 
ATOM     33  C   UNL     1      11.899   1.196  -3.101  0.00  0.00    +0.017 A 
ATOM     34  C   UNL     1      10.703   1.123  -2.414  0.00  0.00    +0.024 A 
ATOM     35 BR   UNL     1      14.421   0.237  -4.009  0.00  0.00    -0.050 Br
ENDBRANCH  27  29
ENDBRANCH  20  23
ENDBRANCH   6  19
TORSDOF 6
