REMARK  Name = ZINC44947451
REMARK  6 active torsions:
REMARK  status: ('A' for Active; 'I' for Inactive)
REMARK    1  A    between atoms: C_3  and  C_11
REMARK    2  A    between atoms: C_5  and  C_7
REMARK    3  A    between atoms: C_13  and  N_32
REMARK    4  A    between atoms: N_14  and  C_16
REMARK    5  A    between atoms: C_19  and  C_22
REMARK    6  A    between atoms: N_24  and  C_25
REMARK                            x       y       z     vdW  Elec       q    Type
REMARK                         _______ _______ _______ _____ _____    ______ ____
ROOT
ATOM      1  C   UNL     1       3.660   2.164  -0.022  0.00  0.00    +0.095 A 
ATOM      2  C   UNL     1       3.792   3.562   0.089  0.00  0.00    +0.073 A 
ATOM      3  C   UNL     1       5.117   3.859   0.039  0.00  0.00    +0.120 A 
ATOM      4  N   UNL     1       5.799   2.687  -0.099  0.00  0.00    -0.218 N 
ATOM      5  N   UNL     1       4.865   1.644  -0.129  0.00  0.00    -0.165 NA
ENDROOT
BRANCH   1   8
ATOM      6  C   UNL     1      -0.017   1.379   0.010  0.00  0.00    +0.001 A 
ATOM      7  C   UNL     1       1.168   2.088   0.002  0.00  0.00    +0.010 A 
ATOM      8  C   UNL     1       2.384   1.407  -0.013  0.00  0.00    +0.003 A 
ATOM      9  C   UNL     1       2.397   0.014  -0.021  0.00  0.00    +0.022 A 
ATOM     10  C   UNL     1       1.206  -0.685  -0.013  0.00  0.00    +0.055 A 
ATOM     11  C   UNL     1       0.002  -0.004   0.002  0.00  0.00    +0.012 A 
BRANCH  10  12
ATOM     12  C   UNL     1       1.219  -2.192  -0.022  0.00  0.00    +0.417 C 
ATOM     13  F   UNL     1       1.236  -2.665   1.294  0.00  0.00    -0.166 F 
ATOM     14  F   UNL     1       0.074  -2.663  -0.673  0.00  0.00    -0.166 F 
ATOM     15  F   UNL     1       2.358  -2.645  -0.695  0.00  0.00    -0.166 F 
ENDBRANCH  10  12
ENDBRANCH   1   8
BRANCH   4  16
ATOM     16  C   UNL     1       7.186   2.550  -0.190  0.00  0.00    +0.067 A 
ATOM     17  C   UNL     1       7.938   3.522  -0.841  0.00  0.00    +0.028 A 
ATOM     18  C   UNL     1       9.306   3.390  -0.932  0.00  0.00    +0.015 A 
ATOM     19  C   UNL     1       9.938   2.278  -0.370  0.00  0.00    +0.037 A 
ATOM     20  C   UNL     1       9.179   1.304   0.284  0.00  0.00    +0.015 A 
ATOM     21  C   UNL     1       7.813   1.444   0.376  0.00  0.00    +0.028 A 
BRANCH  19  22
ATOM     22  C   UNL     1      11.404   2.133  -0.466  0.00  0.00    +0.244 C 
ATOM     23  O   UNL     1      12.063   2.982  -1.035  0.00  0.00    -0.270 OA
ATOM     24  N   UNL     1      12.012   1.060   0.077  0.00  0.00    -0.308 N 
ATOM     25  H   UNL     1      11.486   0.383   0.531  0.00  0.00    +0.149 HD
BRANCH  24  26
ATOM     26  C   UNL     1      13.467   0.916  -0.018  0.00  0.00    +0.073 C 
ATOM     27  C   UNL     1      13.821   0.322  -1.397  0.00  0.00    +0.022 C 
ATOM     28  C   UNL     1      15.259   0.642  -1.700  0.00  0.00    +0.002 C 
ATOM     29  C   UNL     1      16.215  -0.492  -1.285  0.00  0.00    +0.000 C 
ATOM     30  C   UNL     1      15.855  -1.109   0.080  0.00  0.00    +0.000 C 
ATOM     31  C   UNL     1      15.466  -0.069   1.096  0.00  0.00    +0.002 C 
ATOM     32  C   UNL     1      13.931   0.082   1.081  0.00  0.00    +0.022 C 
ENDBRANCH  24  26
ENDBRANCH  19  22
ENDBRANCH   4  16
BRANCH   3  33
ATOM     33  N   UNL     1       5.677   5.131   0.114  0.00  0.00    -0.343 N 
ATOM     34  H   UNL     1       5.104   5.908   0.212  0.00  0.00    +0.144 HD
ATOM     35  H   UNL     1       6.640   5.240   0.068  0.00  0.00    +0.144 HD
ENDBRANCH   3  33
TORSDOF 6
