REMARK  Name = ZINC25172389
REMARK  6 active torsions:
REMARK  status: ('A' for Active; 'I' for Inactive)
REMARK    1  A    between atoms: C_4  and  C_7
REMARK    2  A    between atoms: C_7  and  C_8
REMARK    3  A    between atoms: C_7  and  N_17
REMARK    4  A    between atoms: C_18  and  C_20
REMARK    5  A    between atoms: C_24  and  S_26
REMARK    6  A    between atoms: S_26  and  N_29
REMARK                            x       y       z     vdW  Elec       q    Type
REMARK                         _______ _______ _______ _____ _____    ______ ____
ROOT
ATOM      1  N   UNL     1       3.611  -1.865  -0.930  0.00  0.00    -0.301 N 
ATOM      2  C   UNL     1       3.825  -1.716  -2.253  0.00  0.00    +0.245 C 
ATOM      3  O   UNL     1       4.099  -0.622  -2.705  0.00  0.00    -0.270 OA
ATOM      4  H   UNL     1       3.392  -2.738  -0.569  0.00  0.00    +0.150 HD
ENDROOT
BRANCH   2   5
ATOM      5  C   UNL     1       3.724  -2.884  -3.154  0.00  0.00    +0.039 A 
ATOM      6  C   UNL     1       3.403  -4.141  -2.638  0.00  0.00    +0.013 A 
ATOM      7  C   UNL     1       3.310  -5.226  -3.484  0.00  0.00    +0.003 A 
ATOM      8  C   UNL     1       3.535  -5.072  -4.841  0.00  0.00    +0.028 A 
ATOM      9  C   UNL     1       3.854  -3.829  -5.358  0.00  0.00    +0.106 A 
ATOM     10  C   UNL     1       3.944  -2.733  -4.523  0.00  0.00    +0.041 A 
BRANCH   9  11
ATOM     11  S   UNL     1       4.139  -3.642  -7.087  0.00  0.00    +0.061 S 
ATOM     12  O   UNL     1       4.955  -2.489  -7.242  0.00  0.00    -0.153 OA
ATOM     13  O   UNL     1       4.525  -4.920  -7.574  0.00  0.00    -0.153 OA
BRANCH  11  14
ATOM     14  N   UNL     1       2.681  -3.288  -7.788  0.00  0.00    -0.177 NA
ATOM     15  C   UNL     1       1.849  -4.379  -8.246  0.00  0.00    +0.109 C 
ATOM     16  C   UNL     1       2.207  -4.724  -9.712  0.00  0.00    +0.017 C 
ATOM     17  C   UNL     1       1.739  -3.662 -10.616  0.00  0.00    +0.001 C 
ATOM     18  C   UNL     1       2.390  -2.303 -10.379  0.00  0.00    +0.001 C 
ATOM     19  C   UNL     1       1.645  -1.575  -9.288  0.00  0.00    +0.017 C 
ATOM     20  C   UNL     1       2.282  -1.873  -7.915  0.00  0.00    +0.109 C 
ENDBRANCH  11  14
ENDBRANCH   9  11
ENDBRANCH   2   5
BRANCH   1  21
ATOM     21  C   UNL     1       3.711  -0.707  -0.038  0.00  0.00    +0.134 C 
BRANCH  21  22
ATOM     22  C   UNL     1       4.044  -1.175   1.356  0.00  0.00    -0.021 A 
ATOM     23  C   UNL     1       3.450  -2.325   1.857  0.00  0.00    +0.008 A 
ATOM     24  C   UNL     1       3.739  -2.765   3.118  0.00  0.00    +0.030 A 
ATOM     25  C   UNL     1       4.640  -2.054   3.914  0.00  0.00    +0.089 A 
ATOM     26  C   UNL     1       5.241  -0.890   3.408  0.00  0.00    +0.066 A 
ATOM     27  C   UNL     1       4.940  -0.460   2.122  0.00  0.00    +0.033 A 
ATOM     28  N   UNL     1       6.066  -0.420   4.410  0.00  0.00    -0.344 N 
ATOM     29  C   UNL     1       5.952  -1.275   5.462  0.00  0.00    +0.197 A 
ATOM     30  N   UNL     1       5.119  -2.231   5.173  0.00  0.00    -0.236 NA
ATOM     31  H   UNL     1       6.624   0.373   4.371  0.00  0.00    +0.167 HD
ENDBRANCH  21  22
BRANCH  21  35
ATOM     32  C   UNL     1      -0.017   1.378   0.010  0.00  0.00    +0.000 A 
ATOM     33  C   UNL     1       1.171   2.086   0.002  0.00  0.00    +0.000 A 
ATOM     34  C   UNL     1       2.377   1.411  -0.013  0.00  0.00    +0.006 A 
ATOM     35  C   UNL     1       2.396   0.029  -0.020  0.00  0.00    -0.023 A 
ATOM     36  C   UNL     1       1.208  -0.679  -0.012  0.00  0.00    +0.006 A 
ATOM     37  C   UNL     1       0.002  -0.004   0.002  0.00  0.00    +0.000 A 
ENDBRANCH  21  35
ENDBRANCH   1  21
TORSDOF 6
