REMARK  Name = ZINC50367440
REMARK  5 active torsions:
REMARK  status: ('A' for Active; 'I' for Inactive)
REMARK    1  A    between atoms: C_1  and  O_2
REMARK    2  A    between atoms: O_2  and  C_3
REMARK    3  A    between atoms: C_8  and  N_10
REMARK    4  A    between atoms: C_11  and  C_13
REMARK    5  A    between atoms: C_15  and  N_21
REMARK                            x       y       z     vdW  Elec       q    Type
REMARK                         _______ _______ _______ _____ _____    ______ ____
ROOT
ATOM      1  N   UNL     1      -1.685  -1.886   2.079  0.00  0.00    -0.306 N 
ATOM      2  C   UNL     1      -1.269  -2.793   2.986  0.00  0.00    +0.244 C 
ATOM      3  O   UNL     1      -0.530  -3.697   2.647  0.00  0.00    -0.270 OA
ATOM      4  H   UNL     1      -2.274  -1.165   2.349  0.00  0.00    +0.149 HD
ENDROOT
BRANCH   2   5
ATOM      5  C   UNL     1      -1.712  -2.689   4.392  0.00  0.00    +0.040 A 
ATOM      6  C   UNL     1      -1.279  -3.623   5.333  0.00  0.00    +0.037 A 
ATOM      7  C   UNL     1      -1.698  -3.520   6.650  0.00  0.00    +0.045 A 
ATOM      8  C   UNL     1      -2.549  -2.487   7.030  0.00  0.00    +0.080 A 
ATOM      9  C   UNL     1      -2.980  -1.560   6.096  0.00  0.00    +0.062 A 
ATOM     10  C   UNL     1      -2.561  -1.652   4.783  0.00  0.00    +0.034 A 
ATOM     11 CL   UNL     1      -4.042  -0.275   6.578  0.00  0.00    -0.082 Cl
ATOM     12 CL   UNL     1      -3.074  -2.361   8.680  0.00  0.00    -0.080 Cl
BRANCH   7  13
ATOM     13  N   UNL     1      -1.266  -4.454   7.596  0.00  0.00    -0.357 N 
ATOM     14  H   UNL     1      -0.673  -5.174   7.331  0.00  0.00    +0.142 HD
ATOM     15  H   UNL     1      -1.560  -4.382   8.518  0.00  0.00    +0.142 HD
ENDBRANCH   7  13
ENDBRANCH   2   5
BRANCH   1  20
ATOM     16  C   UNL     1      -1.295  -0.603   0.011  0.00  0.00    +0.138 C 
ATOM     17  C   UNL     1      -1.767  -0.897  -1.435  0.00  0.00    +0.033 C 
ATOM     18  C   UNL     1      -2.806  -2.027  -1.232  0.00  0.00    +0.004 C 
ATOM     19  C   UNL     1      -2.205  -2.897  -0.108  0.00  0.00    +0.025 C 
ATOM     20  C   UNL     1      -1.245  -1.990   0.685  0.00  0.00    +0.102 C 
BRANCH  16  22
ATOM     21  C   UNL     1      -0.017   1.425   0.010  0.00  0.00    +0.194 C 
ATOM     22  O   UNL     1       0.002  -0.004   0.002  0.00  0.00    -0.378 OA
ENDBRANCH  16  22
ENDBRANCH   1  20
TORSDOF 4
