REMARK  Name = ZINC39657691
REMARK  12 active torsions:
REMARK  status: ('A' for Active; 'I' for Inactive)
REMARK    1  A    between atoms: C_1  and  C_2
REMARK    2  A    between atoms: C_2  and  C_3
REMARK    3  A    between atoms: C_3  and  C_4
REMARK    4  A    between atoms: C_4  and  C_6
REMARK    5  A    between atoms: C_4  and  C_7
REMARK    6  A    between atoms: C_11  and  C_20
REMARK    7  A    between atoms: N_22  and  C_23
REMARK    8  A    between atoms: C_23  and  C_24
REMARK    9  A    between atoms: C_29  and  S_30
REMARK   10  A    between atoms: S_30  and  C_31
REMARK   11  A    between atoms: C_36  and  C_37
REMARK   12  A    between atoms: C_37  and  O_38
REMARK                            x       y       z     vdW  Elec       q    Type
REMARK                         _______ _______ _______ _____ _____    ______ ____
ROOT
ATOM      1  C   UNL     1      -3.410  -8.067   0.977  0.00  0.00    +0.218 C 
ATOM      2  O   UNL     1      -3.761  -8.720   0.017  0.00  0.00    -0.275 OA
ATOM      3  N   UNL     1      -2.107  -8.020   1.319  0.00  0.00    -0.311 N 
ATOM      4  H   UNL     1      -1.826  -7.498   2.087  0.00  0.00    +0.149 HD
ENDROOT
BRANCH   1   9
ATOM      5  C   UNL     1      -7.780  -5.937   1.700  0.00  0.00    +0.218 C 
ATOM      6  O   UNL     1      -8.756  -6.187   2.375  0.00  0.00    -0.275 OA
ATOM      7  N   UNL     1      -6.770  -6.826   1.620  0.00  0.00    -0.300 N 
ATOM      8  C   UNL     1      -5.505  -6.698   0.860  0.00  0.00    +0.121 C 
ATOM      9  C   UNL     1      -4.429  -7.308   1.786  0.00  0.00    +0.100 C 
ATOM     10  C   UNL     1      -5.203  -8.263   2.710  0.00  0.00    -0.004 C 
ATOM     11  C   UNL     1      -6.672  -8.151   2.278  0.00  0.00    +0.115 C 
ATOM     12  C   UNL     1      -5.052  -7.830   4.165  0.00  0.00    -0.010 C 
ATOM     13  C   UNL     1      -5.782  -8.827   5.068  0.00  0.00    -0.082 C 
ATOM     14  N   UNL     1      -5.218 -10.169   4.875  0.00  0.00    +0.379 N 
ATOM     15  C   UNL     1      -5.449 -10.616   3.497  0.00  0.00    -0.082 C 
ATOM     16  C   UNL     1      -4.705  -9.694   2.526  0.00  0.00    -0.010 C 
ATOM     17  H   UNL     1      -4.225 -10.144   5.057  0.00  0.00    -0.086 HD
ATOM     18  H   UNL     1      -5.658 -10.813   5.515  0.00  0.00    -0.086 HD
BRANCH   5  19
ATOM     19  C   UNL     1      -7.696  -4.631   0.952  0.00  0.00    +0.072 C 
ATOM     20  C   UNL     1      -7.567  -4.910  -0.547  0.00  0.00    +0.017 C 
BRANCH  19  21
ATOM     21  C   UNL     1      -8.961  -3.812   1.212  0.00  0.00    +0.012 C 
BRANCH  21  23
ATOM     22  C   UNL     1     -10.088  -1.618   0.814  0.00  0.00    +0.004 C 
ATOM     23  C   UNL     1      -8.822  -2.437   0.554  0.00  0.00    -0.003 C 
ENDBRANCH  21  23
ENDBRANCH  19  21
ENDBRANCH   5  19
ENDBRANCH   1   9
BRANCH   3  24
ATOM     24  C   UNL     1      -1.116  -8.758   0.532  0.00  0.00    +0.140 C 
BRANCH  24  25
ATOM     25  C   UNL     1       0.255  -8.541   1.120  0.00  0.00    -0.017 A 
ATOM     26  C   UNL     1       1.113  -7.620   0.552  0.00  0.00    +0.006 A 
ATOM     27  C   UNL     1       2.370  -7.420   1.090  0.00  0.00    +0.000 A 
ATOM     28  C   UNL     1       2.775  -8.141   2.199  0.00  0.00    +0.001 A 
ATOM     29  C   UNL     1       1.923  -9.064   2.772  0.00  0.00    +0.015 A 
ATOM     30  C   UNL     1       0.655  -9.264   2.237  0.00  0.00    +0.017 A 
BRANCH  30  31
ATOM     31  S   UNL     1      -0.438 -10.435   2.970  0.00  0.00    -0.089 S 
BRANCH  31  32
ATOM     32  C   UNL     1       0.411 -10.961   4.421  0.00  0.00    +0.018 A 
ATOM     33  C   UNL     1       0.567 -10.088   5.492  0.00  0.00    +0.015 A 
ATOM     34  C   UNL     1       1.233 -10.504   6.628  0.00  0.00    +0.001 A 
ATOM     35  C   UNL     1       1.744 -11.787   6.701  0.00  0.00    +0.000 A 
ATOM     36  C   UNL     1       1.591 -12.658   5.638  0.00  0.00    +0.007 A 
ATOM     37  C   UNL     1       0.921 -12.251   4.501  0.00  0.00    -0.008 A 
BRANCH  37  38
ATOM     38  C   UNL     1       0.748 -13.203   3.346  0.00  0.00    +0.192 C 
BRANCH  38  39
ATOM     39  O   UNL     1       1.354 -14.457   3.667  0.00  0.00    -0.390 OA
ATOM     40  H   UNL     1       1.281 -15.120   2.967  0.00  0.00    +0.210 HD
ENDBRANCH  38  39
ENDBRANCH  37  38
ENDBRANCH  31  32
ENDBRANCH  30  31
ENDBRANCH  24  25
ENDBRANCH   3  24
TORSDOF 10
