REMARK  Name = ZINC16021446
REMARK  7 active torsions:
REMARK  status: ('A' for Active; 'I' for Inactive)
REMARK    1  A    between atoms: C_1  and  C_2
REMARK    2  A    between atoms: C_5  and  N_9
REMARK    3  A    between atoms: C_6  and  C_8
REMARK    4  A    between atoms: C_10  and  C_12
REMARK    5  A    between atoms: C_15  and  C_18
REMARK    6  A    between atoms: C_18  and  N_19
REMARK    7  A    between atoms: C_20  and  C_22
REMARK                            x       y       z     vdW  Elec       q    Type
REMARK                         _______ _______ _______ _____ _____    ______ ____
ROOT
ATOM      1  C   UNL     1      -0.134  -6.343  -1.187  0.00  0.00    +0.075 C 
ATOM      2  C   UNL     1       1.115  -6.931  -0.528  0.00  0.00    +0.013 C 
ATOM      3  C   UNL     1       2.357  -6.498  -1.310  0.00  0.00    +0.006 C 
ATOM      4  C   UNL     1       2.254  -7.002  -2.750  0.00  0.00    +0.006 C 
ATOM      5  C   UNL     1       1.005  -6.413  -3.409  0.00  0.00    +0.006 C 
ATOM      6  C   UNL     1      -0.236  -6.847  -2.628  0.00  0.00    +0.013 C 
ENDROOT
BRANCH   1   8
ATOM      7  N   UNL     1       0.059  -4.170  -0.021  0.00  0.00    -0.285 N 
ATOM      8  C   UNL     1      -0.040  -4.839  -1.187  0.00  0.00    +0.220 C 
ATOM      9  O   UNL     1      -0.054  -4.230  -2.236  0.00  0.00    -0.275 OA
ATOM     10  H   UNL     1       0.135  -4.658   0.814  0.00  0.00    +0.155 HD
BRANCH   7  15
ATOM     11  C   UNL     1       0.026   1.503   0.005  0.00  0.00    +0.044 C 
ATOM     12  C   UNL     1       0.034  -0.004  -0.002  0.00  0.00    -0.050 A 
ATOM     13  C   UNL     1       0.632  -0.685  -1.046  0.00  0.00    +0.005 A 
ATOM     14  C   UNL     1       0.642  -2.066  -1.055  0.00  0.00    +0.024 A 
ATOM     15  C   UNL     1       0.051  -2.771  -0.014  0.00  0.00    +0.036 A 
ATOM     16  C   UNL     1      -0.548  -2.083   1.033  0.00  0.00    -0.029 A 
ATOM     17  C   UNL     1      -0.550  -0.702   1.039  0.00  0.00    +0.008 A 
ATOM     18  C   UNL     1      -1.190  -2.843   2.165  0.00  0.00    +0.045 C 
ENDBRANCH   7  15
ENDBRANCH   1   8
BRANCH   4  19
ATOM     19  C   UNL     1       3.496  -6.568  -3.532  0.00  0.00    +0.107 C 
BRANCH  19  20
ATOM     20  N   UNL     1       3.456  -7.151  -4.876  0.00  0.00    -0.314 N 
ATOM     21  C   UNL     1       4.453  -6.904  -5.748  0.00  0.00    +0.230 C 
ATOM     22  O   UNL     1       5.384  -6.199  -5.420  0.00  0.00    -0.274 OA
ATOM     23  H   UNL     1       2.711  -7.714  -5.138  0.00  0.00    +0.149 HD
BRANCH  21  24
ATOM     24  C   UNL     1       4.412  -7.503  -7.130  0.00  0.00    +0.145 C 
ATOM     25  C   UNL     1       3.491  -6.671  -8.023  0.00  0.00    +0.063 C 
ATOM     26  C   UNL     1       3.628  -7.113  -9.457  0.00  0.00    -0.041 A 
ATOM     27  C   UNL     1       2.642  -6.745 -10.360  0.00  0.00    +0.004 A 
ATOM     28  C   UNL     1       2.732  -7.126 -11.684  0.00  0.00    +0.000 A 
ATOM     29  C   UNL     1       3.811  -7.877 -12.112  0.00  0.00    +0.000 A 
ATOM     30  C   UNL     1       4.792  -8.244 -11.214  0.00  0.00    +0.005 A 
ATOM     31  C   UNL     1       4.702  -7.865  -9.882  0.00  0.00    -0.030 A 
ATOM     32  C   UNL     1       5.792  -8.300  -8.938  0.00  0.00    +0.117 C 
ATOM     33  N   UNL     1       5.763  -7.497  -7.712  0.00  0.00    -0.301 NA
ATOM     34  H   UNL     1       6.075  -6.555  -7.892  0.00  0.00    +0.123 HD
ENDBRANCH  21  24
ENDBRANCH  19  20
ENDBRANCH   4  19
TORSDOF 5
