REMARK  Name = ZINC32127725
REMARK  11 active torsions:
REMARK  status: ('A' for Active; 'I' for Inactive)
REMARK    1  A    between atoms: C_1  and  C_2
REMARK    2  A    between atoms: C_5  and  C_24
REMARK    3  A    between atoms: C_7  and  N_8
REMARK    4  A    between atoms: N_8  and  C_9
REMARK    5  A    between atoms: C_9  and  N_11
REMARK    6  A    between atoms: C_12  and  C_14
REMARK    7  A    between atoms: C_17  and  C_20
REMARK    8  A    between atoms: C_20  and  C_21
REMARK    9  A    between atoms: C_20  and  C_22
REMARK   10  A    between atoms: C_20  and  C_23
REMARK   11  A    between atoms: C_27  and  C_32
REMARK                            x       y       z     vdW  Elec       q    Type
REMARK                         _______ _______ _______ _____ _____    ______ ____
ROOT
ATOM      1  N   UNL     1       3.635  -4.811  -0.058  0.00  0.00    -0.296 N 
ATOM      2  H   UNL     1       4.536  -4.224   0.172  0.00  0.00    +0.154 HD
ENDROOT
BRANCH   1   9
ATOM      3  C   UNL     1       5.882  -6.181  -1.130  0.00  0.00    +0.045 C 
ATOM      4  C   UNL     1       4.744  -6.916  -0.470  0.00  0.00    -0.029 A 
ATOM      5  C   UNL     1       4.778  -8.295  -0.374  0.00  0.00    +0.006 A 
ATOM      6  C   UNL     1       3.739  -8.975   0.229  0.00  0.00    +0.011 A 
ATOM      7  C   UNL     1       2.650  -8.271   0.744  0.00  0.00    +0.011 A 
ATOM      8  C   UNL     1       2.618  -6.880   0.653  0.00  0.00    +0.034 A 
ATOM      9  C   UNL     1       3.664  -6.206   0.041  0.00  0.00    +0.036 A 
BRANCH   7  10
ATOM     10  C   UNL     1       1.535  -8.998   1.392  0.00  0.00    +0.132 A 
ATOM     11  N   UNL     1       1.390 -10.285   1.575  0.00  0.00    -0.156 NA
ATOM     12  N   UNL     1       0.267 -10.799   2.209  0.00  0.00    -0.190 N 
ATOM     13  C   UNL     1      -0.265 -12.014   2.590  0.00  0.00    +0.153 A 
ATOM     14  N   UNL     1      -1.409 -11.788   3.173  0.00  0.00    -0.132 NA
ATOM     15  N   UNL     1      -1.651 -10.524   3.196  0.00  0.00    -0.120 NA
ATOM     16  C   UNL     1      -0.672  -9.887   2.628  0.00  0.00    +0.218 A 
ATOM     17  S   UNL     1       0.047  -8.342   2.130  0.00  0.00    -0.026 S 
ATOM     18  C   UNL     1       0.365 -13.365   2.369  0.00  0.00    +0.090 C 
ENDBRANCH   7  10
ENDBRANCH   1   9
BRANCH   1  19
ATOM     19  C   UNL     1       2.501  -4.186  -0.433  0.00  0.00    +0.141 C 
ATOM     20  S   UNL     1       1.141  -5.102  -0.926  0.00  0.00    -0.018 S 
BRANCH  19  21
ATOM     21  N   UNL     1       2.439  -2.839  -0.422  0.00  0.00    -0.264 N 
ATOM     22  C   UNL     1       1.306  -2.214  -0.798  0.00  0.00    +0.250 C 
ATOM     23  O   UNL     1       0.340  -2.864  -1.147  0.00  0.00    -0.270 OA
ATOM     24  H   UNL     1       3.313  -2.251  -0.106  0.00  0.00    +0.157 HD
BRANCH  22  25
ATOM     25  C   UNL     1       1.237  -0.738  -0.786  0.00  0.00    +0.037 A 
ATOM     26  C   UNL     1       0.065  -0.087  -1.175  0.00  0.00    +0.013 A 
ATOM     27  C   UNL     1       0.007   1.291  -1.160  0.00  0.00    +0.005 A 
ATOM     28  C   UNL     1       1.109   2.028  -0.761  0.00  0.00    -0.042 A 
ATOM     29  C   UNL     1       2.273   1.389  -0.375  0.00  0.00    +0.005 A 
ATOM     30  C   UNL     1       2.344   0.012  -0.384  0.00  0.00    +0.013 A 
BRANCH  28  31
ATOM     31  C   UNL     1       1.039   3.534  -0.749  0.00  0.00    -0.013 C 
ATOM     32  C   UNL     1      -0.074   3.984   0.200  0.00  0.00    +0.015 C 
ATOM     33  C   UNL     1       2.377   4.102  -0.272  0.00  0.00    +0.015 C 
ATOM     34  C   UNL     1       0.742   4.042  -2.161  0.00  0.00    +0.015 C 
ENDBRANCH  28  31
ENDBRANCH  22  25
ENDBRANCH  19  21
ENDBRANCH   1  19
TORSDOF 6
