REMARK  Name = ZINC10876428
REMARK  10 active torsions:
REMARK  status: ('A' for Active; 'I' for Inactive)
REMARK    1  A    between atoms: C_1  and  C_2
REMARK    2  A    between atoms: C_3  and  C_32
REMARK    3  A    between atoms: N_9  and  C_29
REMARK    4  A    between atoms: C_10  and  S_12
REMARK    5  A    between atoms: S_12  and  C_13
REMARK    6  A    between atoms: C_13  and  C_14
REMARK    7  A    between atoms: N_19  and  C_20
REMARK    8  A    between atoms: C_26  and  C_28
REMARK    9  A    between atoms: C_29  and  C_30
REMARK   10  A    between atoms: C_29  and  C_31
REMARK                            x       y       z     vdW  Elec       q    Type
REMARK                         _______ _______ _______ _____ _____    ______ ____
ROOT
ATOM      1  S   UNL     1       6.689   7.056  -3.614  0.00  0.00    -0.078 S 
ENDROOT
BRANCH   1  11
ATOM      2  C   UNL     1      13.205   9.233  -2.490  0.00  0.00    +0.045 C 
ATOM      3  C   UNL     1      12.450   7.933  -2.388  0.00  0.00    -0.026 A 
ATOM      4  C   UNL     1      13.073   6.816  -1.987  0.00  0.00    -0.008 A 
ATOM      5  S   UNL     1      11.785   5.584  -2.033  0.00  0.00    -0.073 S 
ATOM      6  C   UNL     1      10.446   6.606  -2.589  0.00  0.00    +0.117 A 
ATOM      7  C   UNL     1      11.037   7.876  -2.724  0.00  0.00    +0.075 A 
ATOM      8  C   UNL     1      10.169   8.923  -3.169  0.00  0.00    +0.263 A 
ATOM      9  O   UNL     1      10.594  10.057  -3.315  0.00  0.00    -0.267 OA
ATOM     10  N   UNL     1       8.879   8.640  -3.425  0.00  0.00    -0.285 N 
ATOM     11  C   UNL     1       8.386   7.377  -3.267  0.00  0.00    +0.173 A 
ATOM     12  N   UNL     1       9.162   6.395  -2.853  0.00  0.00    -0.216 NA
ATOM     13  C   UNL     1      14.517   6.642  -1.592  0.00  0.00    +0.052 C 
BRANCH  10  14
ATOM     14  C   UNL     1       7.986   9.708  -3.880  0.00  0.00    +0.087 C 
ATOM     15  C   UNL     1       7.956  10.827  -2.837  0.00  0.00    +0.031 C 
ATOM     16  C   UNL     1       8.494  10.265  -5.211  0.00  0.00    +0.031 C 
ENDBRANCH  10  14
ENDBRANCH   1  11
BRANCH   1  17
ATOM     17  C   UNL     1       6.620   5.287  -3.240  0.00  0.00    +0.173 C 
BRANCH  17  18
ATOM     18  C   UNL     1       5.221   4.778  -3.472  0.00  0.00    +0.231 C 
ATOM     19  O   UNL     1       4.356   5.537  -3.853  0.00  0.00    -0.274 OA
ATOM     20  N   UNL     1       4.932   3.479  -3.257  0.00  0.00    -0.239 N 
ATOM     21  C   UNL     1       3.680   3.025  -3.465  0.00  0.00    +0.306 C 
ATOM     22  O   UNL     1       2.812   3.785  -3.846  0.00  0.00    -0.252 OA
ATOM     23  N   UNL     1       3.391   1.726  -3.249  0.00  0.00    -0.296 N 
ATOM     24  H   UNL     1       5.624   2.872  -2.952  0.00  0.00    +0.159 HD
ATOM     25  H   UNL     1       4.083   1.119  -2.944  0.00  0.00    +0.151 HD
BRANCH  23  26
ATOM     26  C   UNL     1       2.030   1.232  -3.475  0.00  0.00    +0.077 C 
ATOM     27  C   UNL     1       1.184   1.476  -2.224  0.00  0.00    +0.022 C 
ATOM     28  C   UNL     1      -0.236   0.960  -2.460  0.00  0.00    +0.002 C 
ATOM     29  C   UNL     1      -0.191  -0.540  -2.759  0.00  0.00    +0.000 C 
ATOM     30  C   UNL     1       0.655  -0.785  -4.010  0.00  0.00    +0.005 C 
ATOM     31  C   UNL     1       2.076  -0.268  -3.774  0.00  0.00    +0.006 C 
ATOM     32  C   UNL     1       2.922  -0.513  -5.026  0.00  0.00    +0.009 C 
ENDBRANCH  23  26
ENDBRANCH  17  18
ENDBRANCH   1  17
TORSDOF 5
