REMARK  Name = ZINC33960228
REMARK  8 active torsions:
REMARK  status: ('A' for Active; 'I' for Inactive)
REMARK    1  A    between atoms: C_1  and  C_2
REMARK    2  A    between atoms: C_5  and  C_34
REMARK    3  A    between atoms: N_8  and  S_10
REMARK    4  A    between atoms: S_10  and  C_13
REMARK    5  A    between atoms: C_17  and  C_19
REMARK    6  A    between atoms: N_24  and  N_25
REMARK    7  A    between atoms: C_26  and  C_27
REMARK    8  A    between atoms: C_31  and  O_33
REMARK                            x       y       z     vdW  Elec       q    Type
REMARK                         _______ _______ _______ _____ _____    ______ ____
ROOT
ATOM      1  C   UNL     1       2.629   2.448   2.067  0.00  0.00    +0.106 A 
ATOM      2  C   UNL     1       3.559   3.149   1.320  0.00  0.00    +0.028 A 
ATOM      3  C   UNL     1       3.376   4.496   1.066  0.00  0.00    +0.003 A 
ATOM      4  C   UNL     1       2.263   5.148   1.556  0.00  0.00    +0.010 A 
ATOM      5  C   UNL     1       1.323   4.447   2.309  0.00  0.00    +0.003 A 
ATOM      6  C   UNL     1       1.510   3.088   2.558  0.00  0.00    +0.038 A 
ENDROOT
BRANCH   5   7
ATOM      7  C   UNL     1       0.125   5.143   2.839  0.00  0.00    +0.080 A 
ATOM      8  C   UNL     1      -0.120   6.446   2.506  0.00  0.00    +0.077 A 
ATOM      9  S   UNL     1      -1.639   6.738   3.403  0.00  0.00    -0.059 S 
ATOM     10  C   UNL     1      -1.790   5.109   4.124  0.00  0.00    +0.178 A 
ATOM     11  N   UNL     1      -0.720   4.506   3.636  0.00  0.00    -0.224 NA
ATOM     12  N   UNL     1      -2.770   4.610   4.965  0.00  0.00    -0.215 N 
ATOM     13  H   UNL     1      -2.718   3.695   5.280  0.00  0.00    +0.176 HD
BRANCH  12  14
ATOM     14  N   UNL     1      -3.836   5.429   5.361  0.00  0.00    -0.188 NA
ATOM     15  C   UNL     1      -4.755   4.961   6.150  0.00  0.00    +0.138 C 
BRANCH  15  16
ATOM     16  C   UNL     1      -5.877   5.822   6.567  0.00  0.00    -0.002 A 
ATOM     17  C   UNL     1      -5.956   7.141   6.110  0.00  0.00    +0.010 A 
ATOM     18  C   UNL     1      -7.008   7.943   6.502  0.00  0.00    +0.004 A 
ATOM     19  C   UNL     1      -7.984   7.447   7.346  0.00  0.00    +0.045 A 
ATOM     20  C   UNL     1      -7.914   6.139   7.806  0.00  0.00    +0.117 A 
ATOM     21  C   UNL     1      -6.866   5.323   7.415  0.00  0.00    +0.054 A 
BRANCH  20  22
ATOM     22  O   UNL     1      -8.877   5.658   8.636  0.00  0.00    -0.507 OA
ATOM     23  H   UNL     1      -9.623   5.248   8.178  0.00  0.00    +0.292 HD
ENDBRANCH  20  22
ENDBRANCH  15  16
ENDBRANCH  12  14
ENDBRANCH   5   7
BRANCH   1  24
ATOM     24  S   UNL     1       2.871   0.732   2.387  0.00  0.00    +0.061 S 
ATOM     25  O   UNL     1       2.133   0.430   3.563  0.00  0.00    -0.153 OA
ATOM     26  O   UNL     1       4.268   0.492   2.281  0.00  0.00    -0.153 OA
BRANCH  24  32
ATOM     27  C   UNL     1      -0.019   1.526   0.010  0.00  0.00    +0.009 C 
ATOM     28  C   UNL     1       0.002  -0.004   0.002  0.00  0.00    +0.002 C 
ATOM     29  C   UNL     1       0.720  -0.498  -1.256  0.00  0.00    +0.009 C 
ATOM     30  C   UNL     1       2.145   0.059  -1.285  0.00  0.00    +0.002 C 
ATOM     31  C   UNL     1       2.912  -0.448  -0.060  0.00  0.00    +0.112 C 
ATOM     32  N   UNL     1       2.153  -0.103   1.150  0.00  0.00    -0.176 NA
ATOM     33  C   UNL     1       0.744  -0.512   1.242  0.00  0.00    +0.112 C 
ATOM     34  C   UNL     1       2.850  -0.408  -2.559  0.00  0.00    +0.009 C 
ENDBRANCH  24  32
ENDBRANCH   1  24
TORSDOF 6
