REMARK  Name = ZINC09103489
REMARK  8 active torsions:
REMARK  status: ('A' for Active; 'I' for Inactive)
REMARK    1  A    between atoms: C_4  and  C_7
REMARK    2  A    between atoms: N_9  and  N_10
REMARK    3  A    between atoms: C_11  and  C_13
REMARK    4  A    between atoms: N_15  and  C_16
REMARK    5  A    between atoms: C_16  and  C_17
REMARK    6  A    between atoms: C_17  and  C_19
REMARK    7  A    between atoms: C_17  and  S_24
REMARK    8  A    between atoms: S_24  and  C_27
REMARK                            x       y       z     vdW  Elec       q    Type
REMARK                         _______ _______ _______ _____ _____    ______ ____
ROOT
ATOM      1  C   UNL     1      -4.363  -0.291   1.897  0.00  0.00    +0.136 C 
ENDROOT
BRANCH   1   4
ATOM      2  C   UNL     1      -6.701  -0.248   1.212  0.00  0.00    +0.301 C 
ATOM      3  O   UNL     1      -6.848  -1.327   1.747  0.00  0.00    -0.265 OA
ATOM      4  N   UNL     1      -5.496   0.355   1.230  0.00  0.00    -0.305 N 
ATOM      5  H   UNL     1      -5.379   1.218   0.802  0.00  0.00    +0.149 HD
BRANCH   2   7
ATOM      6  N   UNL     1      -9.062  -0.192   0.513  0.00  0.00    -0.226 N 
ATOM      7  C   UNL     1      -7.857   0.412   0.531  0.00  0.00    +0.315 C 
ATOM      8  O   UNL     1      -7.711   1.491  -0.004  0.00  0.00    -0.264 OA
ATOM      9  H   UNL     1      -9.179  -1.054   0.941  0.00  0.00    +0.173 HD
BRANCH   6  12
ATOM     10  C   UNL     1     -11.350  -0.177  -0.143  0.00  0.00    +0.260 C 
ATOM     11  O   UNL     1     -11.497  -1.258   0.394  0.00  0.00    -0.269 OA
ATOM     12  N   UNL     1     -10.146   0.427  -0.124  0.00  0.00    -0.230 N 
ATOM     13  H   UNL     1     -10.028   1.289  -0.553  0.00  0.00    +0.173 HD
BRANCH  10  17
ATOM     14  C   UNL     1     -14.635   1.698  -2.076  0.00  0.00    +0.000 A 
ATOM     15  C   UNL     1     -14.806   0.468  -1.466  0.00  0.00    +0.001 A 
ATOM     16  C   UNL     1     -13.743  -0.146  -0.837  0.00  0.00    +0.013 A 
ATOM     17  C   UNL     1     -12.494   0.476  -0.816  0.00  0.00    +0.038 A 
ATOM     18  C   UNL     1     -12.330   1.719  -1.428  0.00  0.00    +0.013 A 
ATOM     19  C   UNL     1     -13.400   2.320  -2.059  0.00  0.00    +0.001 A 
ENDBRANCH  10  17
ENDBRANCH   6  12
ENDBRANCH   2   7
ENDBRANCH   1   4
BRANCH   1  20
ATOM     20  C   UNL     1      -3.124   0.597   1.772  0.00  0.00    +0.189 C 
BRANCH  20  21
ATOM     21  C   UNL     1      -1.958  -0.068   2.458  0.00  0.00    +0.016 A 
ATOM     22  C   UNL     1      -1.207   0.381   3.493  0.00  0.00    +0.013 A 
ATOM     23  C   UNL     1      -0.178  -0.410   3.967  0.00  0.00    +0.008 A 
ATOM     24  C   UNL     1       0.057  -1.607   3.376  0.00  0.00    +0.045 A 
ATOM     25  S   UNL     1      -1.204  -1.649   2.113  0.00  0.00    -0.100 S 
ENDBRANCH  20  21
BRANCH  20  26
ATOM     26  S   UNL     1      -2.732   0.846   0.019  0.00  0.00    +0.006 S 
ATOM     27  O   UNL     1      -3.679   1.724  -0.575  0.00  0.00    -0.169 OA
ATOM     28  O   UNL     1      -2.412  -0.396  -0.593  0.00  0.00    -0.169 OA
BRANCH  26  29
ATOM     29  C   UNL     1      -1.219   1.750   0.017  0.00  0.00    +0.093 A 
ATOM     30  C   UNL     1      -1.242   3.133   0.033  0.00  0.00    +0.031 A 
ATOM     31  C   UNL     1      -0.058   3.846   0.024  0.00  0.00    +0.051 A 
ATOM     32  C   UNL     1       1.155   3.177   0.008  0.00  0.00    +0.166 A 
ATOM     33  C   UNL     1       1.178   1.784   0.000  0.00  0.00    +0.168 A 
ATOM     34  C   UNL     1      -0.013   1.076   0.008  0.00  0.00    +0.076 A 
ATOM     35  O   UNL     1       2.478   1.369  -0.015  0.00  0.00    -0.453 OA
ATOM     36  C   UNL     1       3.243   2.517  -0.428  0.00  0.00    +0.466 C 
ATOM     37  O   UNL     1       2.441   3.634  -0.002  0.00  0.00    -0.453 OA
ENDBRANCH  26  29
ENDBRANCH  20  26
ENDBRANCH   1  20
TORSDOF 8
