REMARK  Name = ZINC11388669
REMARK  11 active torsions:
REMARK  status: ('A' for Active; 'I' for Inactive)
REMARK    1  A    between atoms: C_1  and  C_2
REMARK    2  A    between atoms: C_5  and  O_8
REMARK    3  A    between atoms: O_8  and  C_9
REMARK    4  A    between atoms: C_14  and  N_15
REMARK    5  A    between atoms: C_16  and  C_18
REMARK    6  A    between atoms: C_18  and  S_19
REMARK    7  A    between atoms: S_19  and  C_20
REMARK    8  A    between atoms: C_23  and  C_26
REMARK    9  A    between atoms: N_24  and  N_25
REMARK   10  A    between atoms: C_29  and  O_32
REMARK   11  A    between atoms: O_32  and  C_33
REMARK                            x       y       z     vdW  Elec       q    Type
REMARK                         _______ _______ _______ _____ _____    ______ ____
ROOT
ATOM      1  C   UNL     1       1.239   2.254   0.746  0.00  0.00    +0.173 C 
ENDROOT
BRANCH   1   3
ATOM      2  N   UNL     1       2.538   4.359   0.718  0.00  0.00    -0.282 N 
ATOM      3  C   UNL     1       1.351   3.749   0.904  0.00  0.00    +0.228 C 
ATOM      4  O   UNL     1       0.372   4.402   1.199  0.00  0.00    -0.275 OA
ATOM      5  H   UNL     1       3.315   3.840   0.461  0.00  0.00    +0.155 HD
BRANCH   2  11
ATOM      6  C   UNL     1       3.889   6.316   1.171  0.00  0.00    +0.150 A 
ATOM      7  C   UNL     1       3.993   7.688   1.341  0.00  0.00    +0.048 A 
ATOM      8  C   UNL     1       2.867   8.484   1.249  0.00  0.00    +0.004 A 
ATOM      9  C   UNL     1       1.635   7.916   0.981  0.00  0.00    +0.002 A 
ATOM     10  C   UNL     1       1.523   6.550   0.805  0.00  0.00    +0.027 A 
ATOM     11  C   UNL     1       2.649   5.745   0.896  0.00  0.00    +0.076 A 
BRANCH   6  12
ATOM     12  O   UNL     1       4.995   5.532   1.267  0.00  0.00    -0.454 OA
BRANCH  12  17
ATOM     13  C   UNL     1       9.840   7.965   2.792  0.00  0.00    +0.044 C 
ATOM     14  C   UNL     1       8.544   7.314   2.384  0.00  0.00    -0.050 A 
ATOM     15  C   UNL     1       7.582   7.035   3.337  0.00  0.00    +0.007 A 
ATOM     16  C   UNL     1       6.393   6.438   2.966  0.00  0.00    +0.046 A 
ATOM     17  C   UNL     1       6.164   6.119   1.635  0.00  0.00    +0.129 A 
ATOM     18  C   UNL     1       7.133   6.396   0.681  0.00  0.00    +0.046 A 
ATOM     19  C   UNL     1       8.318   6.997   1.057  0.00  0.00    +0.007 A 
ENDBRANCH  12  17
ENDBRANCH   6  12
ENDBRANCH   2  11
ENDBRANCH   1   3
BRANCH   1  20
ATOM     20  S   UNL     1      -0.469   1.741   1.058  0.00  0.00    -0.075 S 
BRANCH  20  21
ATOM     21  C   UNL     1      -0.315   0.003   0.811  0.00  0.00    +0.209 A 
ATOM     22  N   UNL     1       0.781  -0.644   0.486  0.00  0.00    -0.121 NA
ATOM     23  N   UNL     1       0.539  -1.903   0.390  0.00  0.00    -0.127 NA
ATOM     24  C   UNL     1      -0.729  -2.136   0.640  0.00  0.00    +0.182 A 
ATOM     25  N   UNL     1      -1.315  -0.922   0.918  0.00  0.00    -0.224 N 
BRANCH  24  26
ATOM     26  C   UNL     1      -1.400  -3.453   0.625  0.00  0.00    +0.021 A 
ATOM     27  C   UNL     1      -0.641  -4.625   0.634  0.00  0.00    +0.015 A 
ATOM     28  C   UNL     1      -1.271  -5.851   0.625  0.00  0.00    +0.046 A 
ATOM     29  C   UNL     1      -2.657  -5.921   0.597  0.00  0.00    +0.127 A 
ATOM     30  C   UNL     1      -3.415  -4.758   0.583  0.00  0.00    +0.046 A 
ATOM     31  C   UNL     1      -2.793  -3.528   0.597  0.00  0.00    +0.015 A 
BRANCH  29  32
ATOM     32  O   UNL     1      -3.274  -7.132   0.583  0.00  0.00    -0.434 OA
BRANCH  32  33
ATOM     33  C   UNL     1      -2.434  -8.288   0.598  0.00  0.00    +0.541 C 
ATOM     34  F   UNL     1      -1.603  -8.276  -0.527  0.00  0.00    -0.166 F 
ATOM     35  F   UNL     1      -1.650  -8.280   1.757  0.00  0.00    -0.166 F 
ENDBRANCH  32  33
ENDBRANCH  29  32
ENDBRANCH  24  26
BRANCH  25  36
ATOM     36  N   UNL     1      -2.623  -0.691   1.234  0.00  0.00    -0.295 N 
ATOM     37  H   UNL     1      -3.173  -0.531   0.403  0.00  0.00    +0.163 HD
ATOM     38  H   UNL     1      -3.003  -1.450   1.779  0.00  0.00    +0.163 HD
ENDBRANCH  25  36
ENDBRANCH  20  21
ENDBRANCH   1  20
TORSDOF 10
