REMARK  Name = ZINC35751029
REMARK  7 active torsions:
REMARK  status: ('A' for Active; 'I' for Inactive)
REMARK    1  A    between atoms: C_4  and  C_7
REMARK    2  A    between atoms: C_7  and  N_8
REMARK    3  A    between atoms: C_9  and  C_31
REMARK    4  A    between atoms: C_11  and  C_16
REMARK    5  A    between atoms: C_19  and  N_22
REMARK    6  A    between atoms: C_23  and  C_25
REMARK    7  A    between atoms: N_33  and  C_34
REMARK                            x       y       z     vdW  Elec       q    Type
REMARK                         _______ _______ _______ _____ _____    ______ ____
ROOT
ATOM      1  N   UNL     1       4.176  -0.422   2.342  0.00  0.00    -0.248 N 
ATOM      2  C   UNL     1       5.216   0.341   3.061  0.00  0.00    +0.211 C 
ATOM      3  C   UNL     1       4.952  -0.054   4.533  0.00  0.00    +0.238 C 
ATOM      4  O   UNL     1       4.291  -1.326   4.389  0.00  0.00    -0.440 OA
ATOM      5  C   UNL     1       3.682  -1.342   3.191  0.00  0.00    +0.405 C 
ATOM      6  O   UNL     1       2.784  -2.109   2.904  0.00  0.00    -0.226 OA
ENDROOT
BRANCH   3   7
ATOM      7  C   UNL     1       4.051   0.949   5.207  0.00  0.00    -0.005 A 
ATOM      8  C   UNL     1       2.678   0.829   5.091  0.00  0.00    +0.009 A 
ATOM      9  C   UNL     1       1.849   1.746   5.706  0.00  0.00    +0.024 A 
ATOM     10  C   UNL     1       2.395   2.789   6.443  0.00  0.00    +0.034 A 
ATOM     11  C   UNL     1       3.774   2.906   6.558  0.00  0.00    +0.024 A 
ATOM     12  C   UNL     1       4.598   1.983   5.943  0.00  0.00    +0.009 A 
BRANCH  10  13
ATOM     13  N   UNL     1       1.559   3.720   7.067  0.00  0.00    -0.282 N 
ATOM     14  C   UNL     1       0.359   3.333   7.546  0.00  0.00    +0.248 C 
ATOM     15  O   UNL     1       0.044   2.160   7.519  0.00  0.00    -0.270 OA
ATOM     16  H   UNL     1       1.841   4.643   7.156  0.00  0.00    +0.155 HD
BRANCH  14  17
ATOM     17  C   UNL     1      -0.572   4.337   8.103  0.00  0.00    +0.037 A 
ATOM     18  C   UNL     1      -0.215   5.686   8.129  0.00  0.00    +0.013 A 
ATOM     19  C   UNL     1      -1.090   6.617   8.650  0.00  0.00    +0.001 A 
ATOM     20  C   UNL     1      -2.318   6.216   9.146  0.00  0.00    +0.000 A 
ATOM     21  C   UNL     1      -2.678   4.881   9.123  0.00  0.00    +0.001 A 
ATOM     22  C   UNL     1      -1.815   3.940   8.599  0.00  0.00    +0.013 A 
ENDBRANCH  14  17
ENDBRANCH  10  13
ENDBRANCH   3   7
BRANCH   2  23
ATOM     23  C   UNL     1       6.593  -0.086   2.624  0.00  0.00    +0.242 C 
ATOM     24  O   UNL     1       6.748  -1.149   2.060  0.00  0.00    -0.273 OA
ATOM     25  N   UNL     1       7.653   0.712   2.861  0.00  0.00    -0.284 N 
ATOM     26  H   UNL     1       7.542   1.525   3.377  0.00  0.00    +0.155 HD
BRANCH  25  27
ATOM     27  C   UNL     1       8.914   0.366   2.362  0.00  0.00    +0.033 A 
ATOM     28  C   UNL     1      10.059   0.690   3.079  0.00  0.00    +0.023 A 
ATOM     29  C   UNL     1      11.302   0.348   2.584  0.00  0.00    +0.002 A 
ATOM     30  C   UNL     1      11.407  -0.316   1.376  0.00  0.00    +0.000 A 
ATOM     31  C   UNL     1      10.270  -0.640   0.659  0.00  0.00    +0.002 A 
ATOM     32  C   UNL     1       9.023  -0.306   1.152  0.00  0.00    +0.023 A 
ENDBRANCH  25  27
ENDBRANCH   2  23
BRANCH   1  33
ATOM     33  C   UNL     1       3.753  -0.210   0.956  0.00  0.00    +0.147 C 
BRANCH  33  37
ATOM     34  C   UNL     1       0.566   2.632   0.854  0.00  0.00    +0.000 A 
ATOM     35  C   UNL     1       1.878   3.061   0.764  0.00  0.00    +0.000 A 
ATOM     36  C   UNL     1       2.909   2.141   0.797  0.00  0.00    +0.005 A 
ATOM     37  C   UNL     1       2.629   0.793   0.920  0.00  0.00    -0.030 A 
ATOM     38  C   UNL     1       1.318   0.365   1.011  0.00  0.00    +0.005 A 
ATOM     39  C   UNL     1       0.286   1.284   0.977  0.00  0.00    +0.000 A 
ENDBRANCH  33  37
ENDBRANCH   1  33
TORSDOF 7
