REMARK  Name = ZINC05149619
REMARK  9 active torsions:
REMARK  status: ('A' for Active; 'I' for Inactive)
REMARK    1  A    between atoms: C_1  and  C_2
REMARK    2  A    between atoms: C_2  and  O_3
REMARK    3  A    between atoms: O_3  and  C_4
REMARK    4  A    between atoms: C_7  and  C_10
REMARK    5  A    between atoms: C_17  and  N_31
REMARK    6  A    between atoms: C_18  and  C_29
REMARK    7  A    between atoms: C_19  and  C_21
REMARK    8  A    between atoms: C_24  and  S_27
REMARK    9  A    between atoms: S_27  and  C_28
REMARK                            x       y       z     vdW  Elec       q    Type
REMARK                         _______ _______ _______ _____ _____    ______ ____
ROOT
ATOM      1  C   UNL     1       1.142  -6.040   1.762  0.00  0.00    +0.100 A 
ATOM      2  C   UNL     1       2.227  -6.722   2.322  0.00  0.00    +0.054 A 
ATOM      3  C   UNL     1       1.949  -8.058   2.288  0.00  0.00    +0.223 A 
ATOM      4  N   UNL     1       0.733  -8.210   1.724  0.00  0.00    -0.246 N 
ATOM      5  H   UNL     1       0.277  -9.052   1.569  0.00  0.00    +0.192 HD
ATOM      6  N   UNL     1       0.240  -6.935   1.406  0.00  0.00    -0.171 NA
ATOM      7  O   UNL     1       2.806  -8.996   2.762  0.00  0.00    -0.423 OA
ATOM      8  C   UNL     1       3.834  -8.574   3.526  0.00  0.00    +0.200 C 
ATOM      9  C   UNL     1       4.212  -7.281   3.630  0.00  0.00    +0.098 C 
ATOM     10  C   UNL     1       3.511  -6.171   2.886  0.00  0.00    +0.102 C 
ENDROOT
BRANCH   1  14
ATOM     11  C   UNL     1       0.802  -1.824   1.306  0.00  0.00    +0.121 A 
ATOM     12  C   UNL     1       0.259  -2.671   0.349  0.00  0.00    +0.046 A 
ATOM     13  C   UNL     1       0.367  -4.038   0.495  0.00  0.00    +0.013 A 
ATOM     14  C   UNL     1       1.024  -4.569   1.603  0.00  0.00    +0.003 A 
ATOM     15  C   UNL     1       1.569  -3.717   2.561  0.00  0.00    +0.013 A 
ATOM     16  C   UNL     1       1.461  -2.350   2.408  0.00  0.00    +0.046 A 
BRANCH  11  17
ATOM     17  O   UNL     1       0.693  -0.477   1.160  0.00  0.00    -0.492 OA
BRANCH  17  19
ATOM     18  C   UNL     1      -0.019   1.526   0.010  0.00  0.00    +0.048 C 
ATOM     19  C   UNL     1       0.002  -0.004   0.002  0.00  0.00    +0.225 C 
ENDBRANCH  17  19
ENDBRANCH  11  17
ENDBRANCH   1  14
BRANCH  10  20
ATOM     20  C   UNL     1       4.388  -5.677   1.766  0.00  0.00    -0.034 A 
ATOM     21  C   UNL     1       4.803  -6.551   0.777  0.00  0.00    +0.005 A 
ATOM     22  C   UNL     1       5.607  -6.101  -0.252  0.00  0.00    +0.015 A 
ATOM     23  C   UNL     1       5.999  -4.768  -0.293  0.00  0.00    +0.008 A 
ATOM     24  C   UNL     1       5.580  -3.893   0.702  0.00  0.00    +0.015 A 
ATOM     25  C   UNL     1       4.772  -4.349   1.725  0.00  0.00    +0.005 A 
BRANCH  23  26
ATOM     26  S   UNL     1       7.026  -4.190  -1.603  0.00  0.00    -0.129 S 
ATOM     27  C   UNL     1       7.262  -2.430  -1.232  0.00  0.00    +0.090 C 
ENDBRANCH  23  26
ENDBRANCH  10  20
BRANCH   8  28
ATOM     28  N   UNL     1       4.538  -9.513   4.239  0.00  0.00    -0.328 N 
ATOM     29  H   UNL     1       4.290 -10.449   4.184  0.00  0.00    +0.145 HD
ATOM     30  H   UNL     1       5.283  -9.240   4.797  0.00  0.00    +0.145 HD
ENDBRANCH   8  28
BRANCH   9  31
ATOM     31  C   UNL     1       5.318  -6.952   4.478  0.00  0.00    +0.101 C 
ATOM     32  N   UNL     1       6.196  -6.690   5.151  0.00  0.00    -0.191 NA
ENDBRANCH   9  31
TORSDOF 7
