REMARK  Name = ZINC62353513
REMARK  4 active torsions:
REMARK  status: ('A' for Active; 'I' for Inactive)
REMARK    1  A    between atoms: C_1  and  C_2
REMARK    2  A    between atoms: C_6  and  N_16
REMARK    3  A    between atoms: C_7  and  N_8
REMARK    4  A    between atoms: C_9  and  C_11
REMARK                            x       y       z     vdW  Elec       q    Type
REMARK                         _______ _______ _______ _____ _____    ______ ____
ROOT
ATOM      1  C   UNL     1      -1.624   0.906   0.457  0.00  0.00    +0.046 C 
ATOM      2  C   UNL     1      -0.743  -0.293   0.216  0.00  0.00    -0.026 A 
ATOM      3  C   UNL     1      -0.852  -1.005  -0.964  0.00  0.00    +0.020 A 
ATOM      4  C   UNL     1      -0.045  -2.106  -1.190  0.00  0.00    +0.020 A 
ATOM      5  C   UNL     1       0.875  -2.500  -0.236  0.00  0.00    +0.040 A 
ATOM      6  C   UNL     1       0.992  -1.791   0.950  0.00  0.00    +0.047 A 
ATOM      7  C   UNL     1       0.182  -0.678   1.175  0.00  0.00    +0.058 A 
ATOM      8 BR   UNL     1      -0.202  -3.074  -2.806  0.00  0.00    -0.050 Br
ENDROOT
BRANCH   7   9
ATOM      9  N   UNL     1       0.299   0.047   2.368  0.00  0.00    -0.278 N 
ATOM     10  C   UNL     1       0.519   1.376   2.331  0.00  0.00    +0.267 C 
ATOM     11  O   UNL     1       0.687   1.935   1.264  0.00  0.00    -0.268 OA
ATOM     12  H   UNL     1       0.222  -0.408   3.221  0.00  0.00    +0.155 HD
BRANCH  10  13
ATOM     13  C   UNL     1       0.556   2.151   3.583  0.00  0.00    +0.133 A 
ATOM     14  C   UNL     1       0.771   3.504   3.591  0.00  0.00    +0.079 A 
ATOM     15  S   UNL     1       0.716   3.868   5.230  0.00  0.00    -0.083 S 
ATOM     16  C   UNL     1       0.429   2.331   5.841  0.00  0.00    +0.156 A 
ATOM     17  N   UNL     1       0.376   1.577   4.776  0.00  0.00    -0.243 NA
ENDBRANCH  10  13
ENDBRANCH   7   9
BRANCH   6  18
ATOM     18  N   UNL     1       1.922  -2.188   1.916  0.00  0.00    -0.356 N 
ATOM     19  H   UNL     1       2.558  -2.893   1.717  0.00  0.00    +0.142 HD
ATOM     20  H   UNL     1       1.932  -1.758   2.786  0.00  0.00    +0.142 HD
ENDBRANCH   6  18
TORSDOF 3
