REMARK  Name = ZINC39992580
REMARK  7 active torsions:
REMARK  status: ('A' for Active; 'I' for Inactive)
REMARK    1  A    between atoms: C_6  and  C_7
REMARK    2  A    between atoms: C_8  and  C_9
REMARK    3  A    between atoms: C_8  and  C_11
REMARK    4  A    between atoms: N_13  and  C_14
REMARK    5  A    between atoms: C_15  and  C_23
REMARK    6  A    between atoms: N_25  and  C_26
REMARK    7  A    between atoms: C_26  and  C_27
REMARK                            x       y       z     vdW  Elec       q    Type
REMARK                         _______ _______ _______ _____ _____    ______ ____
ROOT
ATOM      1  C   UNL     1      -3.669  -4.926  -0.409  0.00  0.00    +0.085 A 
ATOM      2  C   UNL     1      -3.841  -6.297  -0.521  0.00  0.00    +0.069 A 
ATOM      3  C   UNL     1      -5.204  -6.790  -0.607  0.00  0.00    -0.023 A 
ATOM      4  C   UNL     1      -6.146  -5.822  -0.566  0.00  0.00    -0.004 A 
ATOM      5  S   UNL     1      -5.233  -4.315  -0.409  0.00  0.00    -0.077 S 
ATOM      6  C   UNL     1      -7.630  -6.008  -0.635  0.00  0.00    +0.043 C 
ATOM      7  C   UNL     1      -7.915  -7.431  -1.138  0.00  0.00    +0.005 C 
ATOM      8  C   UNL     1      -7.056  -8.419  -0.344  0.00  0.00    +0.005 C 
ATOM      9  C   UNL     1      -5.584  -8.258  -0.733  0.00  0.00    +0.037 C 
ENDROOT
BRANCH   1  12
ATOM     10  C   UNL     1      -2.499  -2.878  -0.203  0.00  0.00    +0.259 C 
ATOM     11  O   UNL     1      -3.561  -2.284  -0.189  0.00  0.00    -0.269 OA
ATOM     12  N   UNL     1      -2.480  -4.221  -0.312  0.00  0.00    -0.275 N 
ATOM     13  H   UNL     1      -1.633  -4.695  -0.324  0.00  0.00    +0.156 HD
BRANCH  10  15
ATOM     14  C   UNL     1      -1.256  -0.759   0.011  0.00  0.00    +0.032 C 
ATOM     15  C   UNL     1      -1.236  -2.130  -0.101  0.00  0.00    +0.114 C 
BRANCH  14  21
ATOM     16  C   UNL     1       1.089  -0.489  -0.770  0.00  0.00    +0.009 A 
ATOM     17  C   UNL     1       2.264   0.229  -0.811  0.00  0.00    +0.016 A 
ATOM     18  C   UNL     1       2.370   1.431  -0.130  0.00  0.00    +0.018 A 
ATOM     19  C   UNL     1       1.297   1.921   0.597  0.00  0.00    +0.016 A 
ATOM     20  C   UNL     1       0.115   1.215   0.648  0.00  0.00    +0.009 A 
ATOM     21  C   UNL     1      -0.001  -0.001  -0.038  0.00  0.00    -0.024 A 
ATOM     22 BR   UNL     1       3.988   2.408  -0.193  0.00  0.00    -0.050 Br
ENDBRANCH  14  21
BRANCH  15  23
ATOM     23  C   UNL     1       0.014  -2.829  -0.117  0.00  0.00    +0.104 C 
ATOM     24  N   UNL     1       1.005  -3.384  -0.130  0.00  0.00    -0.191 NA
ENDBRANCH  15  23
ENDBRANCH  10  15
ENDBRANCH   1  12
BRANCH   2  25
ATOM     25  C   UNL     1      -2.695  -7.210  -0.551  0.00  0.00    +0.247 C 
ATOM     26  O   UNL     1      -2.256  -7.671   0.486  0.00  0.00    -0.270 OA
ATOM     27  N   UNL     1      -2.127  -7.540  -1.728  0.00  0.00    -0.309 N 
ATOM     28  H   UNL     1      -2.476  -7.173  -2.555  0.00  0.00    +0.149 HD
BRANCH  27  29
ATOM     29  C   UNL     1      -0.982  -8.453  -1.759  0.00  0.00    +0.136 C 
BRANCH  29  30
ATOM     30  C   UNL     1      -0.532  -8.659  -3.207  0.00  0.00    +0.135 C 
ATOM     31  C   UNL     1       0.658  -9.650  -3.264  0.00  0.00    +0.035 C 
ATOM     32  C   UNL     1       0.518 -10.195  -4.712  0.00  0.00    +0.031 C 
ATOM     33  C   UNL     1      -1.013 -10.201  -4.913  0.00  0.00    +0.160 C 
ATOM     34  O   UNL     1      -1.578  -9.281  -3.970  0.00  0.00    -0.375 OA
ENDBRANCH  29  30
ENDBRANCH  27  29
ENDBRANCH   2  25
TORSDOF 7
