REMARK  Name = ZINC58994039
REMARK  9 active torsions:
REMARK  status: ('A' for Active; 'I' for Inactive)
REMARK    1  A    between atoms: C_2  and  C_3
REMARK    2  A    between atoms: C_3  and  S_4
REMARK    3  A    between atoms: S_4  and  C_5
REMARK    4  A    between atoms: C_10  and  N_11
REMARK    5  A    between atoms: C_12  and  C_14
REMARK    6  A    between atoms: C_14  and  S_15
REMARK    7  A    between atoms: S_15  and  C_16
REMARK    8  A    between atoms: N_21  and  N_22
REMARK    9  A    between atoms: C_23  and  C_24
REMARK                            x       y       z     vdW  Elec       q    Type
REMARK                         _______ _______ _______ _____ _____    ______ ____
ROOT
ATOM      1  C   UNL     1       2.064  -6.087   8.083  0.00  0.00    +0.211 A 
ATOM      2  N   UNL     1       2.261  -6.893   9.131  0.00  0.00    -0.186 NA
ATOM      3  C   UNL     1       1.223  -6.831   9.939  0.00  0.00    +0.232 A 
ATOM      4  N   UNL     1       0.332  -5.968   9.406  0.00  0.00    -0.245 N 
ATOM      5  N   UNL     1       0.899  -5.496   8.212  0.00  0.00    -0.144 NA
ATOM      6  N   UNL     1       1.072  -7.528  11.123  0.00  0.00    -0.205 N 
ATOM      7  H   UNL     1       0.267  -7.416  11.653  0.00  0.00    +0.177 HD
ATOM      8  H   UNL     1      -0.529  -5.719   9.778  0.00  0.00    +0.192 HD
ENDROOT
BRANCH   6   9
ATOM      9  N   UNL     1       2.082  -8.396  11.559  0.00  0.00    -0.188 NA
ATOM     10  C   UNL     1       1.940  -9.050  12.671  0.00  0.00    +0.138 C 
BRANCH  10  11
ATOM     11  C   UNL     1       3.002  -9.964  13.130  0.00  0.00    -0.004 A 
ATOM     12  C   UNL     1       4.166 -10.123  12.373  0.00  0.00    +0.009 A 
ATOM     13  C   UNL     1       5.156 -10.979  12.808  0.00  0.00    +0.002 A 
ATOM     14  C   UNL     1       5.000 -11.679  13.991  0.00  0.00    +0.015 A 
ATOM     15  C   UNL     1       3.850 -11.527  14.746  0.00  0.00    +0.018 A 
ATOM     16  C   UNL     1       2.853 -10.669  14.326  0.00  0.00    +0.024 A 
ATOM     17 BR   UNL     1       3.647 -12.490  16.361  0.00  0.00    -0.050 Br
ENDBRANCH  10  11
ENDBRANCH   6   9
BRANCH   1  18
ATOM     18  S   UNL     1       3.189  -5.849   6.748  0.00  0.00    -0.075 S 
BRANCH  18  19
ATOM     19  C   UNL     1       2.352  -4.649   5.676  0.00  0.00    +0.173 C 
BRANCH  19  21
ATOM     20  N   UNL     1       2.798  -3.483   3.540  0.00  0.00    -0.284 N 
ATOM     21  C   UNL     1       3.219  -4.354   4.479  0.00  0.00    +0.228 C 
ATOM     22  O   UNL     1       4.296  -4.900   4.361  0.00  0.00    -0.275 OA
ATOM     23  H   UNL     1       1.976  -2.987   3.673  0.00  0.00    +0.155 HD
BRANCH  20  29
ATOM     24  C   UNL     1       3.446  -2.102   1.658  0.00  0.00    +0.029 A 
ATOM     25  C   UNL     1       4.196  -1.921   0.505  0.00  0.00    +0.016 A 
ATOM     26  C   UNL     1       5.038  -2.924   0.064  0.00  0.00    +0.001 A 
ATOM     27  C   UNL     1       5.136  -4.110   0.768  0.00  0.00    +0.002 A 
ATOM     28  C   UNL     1       4.392  -4.299   1.918  0.00  0.00    +0.024 A 
ATOM     29  C   UNL     1       3.549  -3.296   2.372  0.00  0.00    +0.047 A 
BRANCH  24  30
ATOM     30  S   UNL     1       2.372  -0.824   2.223  0.00  0.00    -0.119 S 
BRANCH  30  31
ATOM     31  C   UNL     1       2.576   0.496   0.996  0.00  0.00    +0.101 C 
BRANCH  31  33
ATOM     32  C   UNL     1       2.243   2.811   1.697  0.00  0.00    +0.005 C 
ATOM     33  C   UNL     1       1.700   1.665   1.366  0.00  0.00    -0.024 C 
ENDBRANCH  31  33
ENDBRANCH  30  31
ENDBRANCH  24  30
ENDBRANCH  20  29
ENDBRANCH  19  21
ENDBRANCH  18  19
ENDBRANCH   1  18
TORSDOF 9
