REMARK  Name = ZINC40875872
REMARK  7 active torsions:
REMARK  status: ('A' for Active; 'I' for Inactive)
REMARK    1  A    between atoms: C_1  and  C_2
REMARK    2  A    between atoms: C_2  and  C_3
REMARK    3  A    between atoms: C_5  and  C_8
REMARK    4  A    between atoms: C_11  and  N_15
REMARK    5  A    between atoms: C_19  and  C_22
REMARK    6  A    between atoms: C_27  and  C_30
REMARK    7  A    between atoms: C_27  and  N_33
REMARK                            x       y       z     vdW  Elec       q    Type
REMARK                         _______ _______ _______ _____ _____    ______ ____
ROOT
ATOM      1  N   UNL     1      -5.935  -2.556  -4.943  0.00  0.00    -0.327 N 
ATOM      2  C   UNL     1      -7.166  -1.845  -4.571  0.00  0.00    +0.105 C 
ATOM      3  C   UNL     1      -8.140  -1.896  -5.752  0.00  0.00    +0.020 C 
ATOM      4  C   UNL     1      -8.357  -3.353  -6.167  0.00  0.00    +0.016 C 
ATOM      5  C   UNL     1      -7.026  -3.961  -6.613  0.00  0.00    +0.092 C 
ATOM      6  C   UNL     1      -6.039  -3.932  -5.448  0.00  0.00    +0.118 C 
ENDROOT
BRANCH   5   7
ATOM      7  C   UNL     1      -7.246  -5.386  -7.053  0.00  0.00    +0.220 C 
ATOM      8  O   UNL     1      -7.026  -6.298  -6.286  0.00  0.00    -0.275 OA
ATOM      9  N   UNL     1      -7.689  -5.645  -8.299  0.00  0.00    -0.301 N 
ATOM     10  C   UNL     1      -7.857  -4.560  -9.275  0.00  0.00    +0.107 C 
ATOM     11  C   UNL     1      -9.284  -4.612  -9.831  0.00  0.00    +0.016 C 
ATOM     12  C   UNL     1      -9.557  -6.010 -10.391  0.00  0.00    +0.015 C 
ATOM     13  C   UNL     1      -9.437  -7.044  -9.270  0.00  0.00    +0.016 C 
ATOM     14  C   UNL     1      -8.007  -7.019  -8.710  0.00  0.00    +0.107 C 
BRANCH  12  15
ATOM     15  N   UNL     1     -10.913  -6.054 -10.955  0.00  0.00    +0.389 N 
ATOM     16  C   UNL     1     -11.032  -5.050 -12.019  0.00  0.00    -0.077 C 
ATOM     17  C   UNL     1     -12.466  -5.037 -12.554  0.00  0.00    -0.019 C 
ATOM     18  C   UNL     1     -12.809  -6.420 -13.114  0.00  0.00    -0.004 C 
ATOM     19  C   UNL     1     -12.610  -7.468 -12.016  0.00  0.00    -0.019 C 
ATOM     20  C   UNL     1     -11.171  -7.392 -11.501  0.00  0.00    -0.077 C 
ATOM     21  H   UNL     1     -11.585  -5.853 -10.229  0.00  0.00    -0.080 HD
ENDBRANCH  12  15
BRANCH  12  22
ATOM     22  C   UNL     1      -8.554  -6.322 -11.472  0.00  0.00    +0.200 C 
ATOM     23  O   UNL     1      -7.906  -5.429 -11.975  0.00  0.00    -0.278 OA
ATOM     24  N   UNL     1      -8.378  -7.594 -11.880  0.00  0.00    -0.330 N 
ATOM     25  H   UNL     1      -8.945  -8.299 -11.530  0.00  0.00    +0.145 HD
ATOM     26  H   UNL     1      -7.683  -7.806 -12.524  0.00  0.00    +0.145 HD
ENDBRANCH  12  22
ENDBRANCH   5   7
BRANCH   1  30
ATOM     27  C   UNL     1      -2.221  -0.698  -4.588  0.00  0.00    +0.025 A 
ATOM     28  C   UNL     1      -2.947  -0.589  -5.774  0.00  0.00    +0.013 A 
ATOM     29  C   UNL     1      -4.175  -1.205  -5.889  0.00  0.00    +0.027 A 
ATOM     30  C   UNL     1      -4.691  -1.934  -4.824  0.00  0.00    +0.065 A 
ATOM     31  C   UNL     1      -3.968  -2.045  -3.639  0.00  0.00    +0.145 A 
ATOM     32  C   UNL     1      -2.736  -1.435  -3.522  0.00  0.00    +0.052 A 
ATOM     33  F   UNL     1      -4.472  -2.754  -2.605  0.00  0.00    -0.204 F 
BRANCH  27  36
ATOM     34  C   UNL     1       0.851   1.135  -4.982  0.00  0.00    +0.227 A 
ATOM     35  N   UNL     1      -0.297   0.699  -5.415  0.00  0.00    -0.191 NA
ATOM     36  C   UNL     1      -0.900  -0.036  -4.463  0.00  0.00    +0.202 A 
ATOM     37  N   UNL     1      -0.124  -0.070  -3.407  0.00  0.00    -0.056 NA
ATOM     38  O   UNL     1       1.031   0.688  -3.732  0.00  0.00    -0.338 OA
BRANCH  34  40
ATOM     39  C   UNL     1       1.506   3.468  -5.506  0.00  0.00    +0.014 C 
ATOM     40  C   UNL     1       1.818   1.992  -5.759  0.00  0.00    +0.095 C 
ENDBRANCH  34  40
ENDBRANCH  27  36
ENDBRANCH   1  30
TORSDOF 6
