REMARK  Name = ZINC55176749
REMARK  1 active torsions:
REMARK  status: ('A' for Active; 'I' for Inactive)
REMARK    1  A    between atoms: C_10  and  C_13
REMARK                            x       y       z     vdW  Elec       q    Type
REMARK                         _______ _______ _______ _____ _____    ______ ____
ROOT
ATOM      1  C   UNL     1      -0.017   1.376   0.010  0.00  0.00    +0.069 A 
ATOM      2  C   UNL     1       1.177   2.084   0.002  0.00  0.00    +0.069 A 
ATOM      3  C   UNL     1       2.402   1.395  -0.013  0.00  0.00    +0.092 A 
ATOM      4  C   UNL     1       2.405  -0.004  -0.021  0.00  0.00    +0.071 A 
ATOM      5  C   UNL     1       1.212  -0.692  -0.013  0.00  0.00    +0.161 A 
ATOM      6  C   UNL     1       0.002  -0.004   0.002  0.00  0.00    +0.160 A 
ATOM      7  F   UNL     1      -1.161  -0.692   0.010  0.00  0.00    -0.202 F 
ATOM      8  F   UNL     1       1.216  -2.042  -0.021  0.00  0.00    -0.202 F 
ATOM      9  N   UNL     1       3.387   2.327  -0.018  0.00  0.00    -0.226 NA
ATOM     10  C   UNL     1       2.858   3.528  -0.007  0.00  0.00    +0.158 A 
ATOM     11  N   UNL     1       1.492   3.431   0.006  0.00  0.00    -0.337 N 
ATOM     12  H   UNL     1       0.862   4.169   0.015  0.00  0.00    +0.167 HD
ENDROOT
BRANCH  10  13
ATOM     13  C   UNL     1       3.620   4.792  -0.007  0.00  0.00    +0.115 A 
ATOM     14  C   UNL     1       4.990   4.776  -0.025  0.00  0.00    +0.080 A 
ATOM     15  S   UNL     1       5.344   6.528  -0.016  0.00  0.00    -0.060 S 
ATOM     16  C   UNL     1       3.651   7.102   0.011  0.00  0.00    +0.156 A 
ATOM     17  N   UNL     1       2.985   5.964   0.005  0.00  0.00    -0.222 NA
ATOM     18  N   UNL     1       3.168   8.399   0.027  0.00  0.00    -0.338 N 
ATOM     19  H   UNL     1       3.785   9.147   0.025  0.00  0.00    +0.144 HD
ATOM     20  H   UNL     1       2.211   8.560   0.042  0.00  0.00    +0.144 HD
ENDBRANCH  10  13
TORSDOF 1
