REMARK  Name = ZINC13260378
REMARK  6 active torsions:
REMARK  status: ('A' for Active; 'I' for Inactive)
REMARK    1  A    between atoms: C_4  and  C_7
REMARK    2  A    between atoms: C_8  and  S_9
REMARK    3  A    between atoms: S_9  and  N_12
REMARK    4  A    between atoms: C_15  and  C_18
REMARK    5  A    between atoms: N_20  and  C_21
REMARK    6  A    between atoms: C_26  and  C_27
REMARK                            x       y       z     vdW  Elec       q    Type
REMARK                         _______ _______ _______ _____ _____    ______ ____
ROOT
ATOM      1  N   UNL     1      -0.854   1.853   1.420  0.00  0.00    -0.177 NA
ATOM      2  C   UNL     1      -0.645   3.172   2.032  0.00  0.00    +0.110 C 
ATOM      3  C   UNL     1      -2.002   3.885   2.132  0.00  0.00    +0.030 C 
ATOM      4  C   UNL     1      -2.987   2.991   2.889  0.00  0.00    +0.078 C 
ATOM      5  C   UNL     1      -3.186   1.683   2.120  0.00  0.00    +0.030 C 
ATOM      6  C   UNL     1      -1.846   0.947   2.016  0.00  0.00    +0.110 C 
ENDROOT
BRANCH   4   7
ATOM      7  C   UNL     1      -4.309   3.701   3.022  0.00  0.00    +0.220 C 
ATOM      8  O   UNL     1      -5.312   3.209   2.549  0.00  0.00    -0.275 OA
ATOM      9  N   UNL     1      -4.378   4.882   3.668  0.00  0.00    -0.285 N 
ATOM     10  H   UNL     1      -3.589   5.244   4.102  0.00  0.00    +0.155 HD
BRANCH   9  11
ATOM     11  C   UNL     1      -5.580   5.583   3.711  0.00  0.00    +0.048 A 
ATOM     12  C   UNL     1      -6.785   4.898   3.792  0.00  0.00    +0.025 A 
ATOM     13  C   UNL     1      -7.976   5.595   3.840  0.00  0.00    +0.017 A 
ATOM     14  C   UNL     1      -7.980   6.980   3.796  0.00  0.00    +0.019 A 
ATOM     15  C   UNL     1      -6.794   7.678   3.710  0.00  0.00    +0.032 A 
ATOM     16  C   UNL     1      -5.580   6.986   3.667  0.00  0.00    +0.085 A 
ATOM     17 BR   UNL     1      -9.621   7.918   3.854  0.00  0.00    -0.050 Br
BRANCH  16  18
ATOM     18  C   UNL     1      -4.309   7.725   3.574  0.00  0.00    +0.388 C 
ATOM     19  O   UNL     1      -3.263   7.121   3.438  0.00  0.00    -0.241 OA
ATOM     20  O   UNL     1      -4.305   9.071   3.641  0.00  0.00    -0.241 OA
ENDBRANCH  16  18
ENDBRANCH   9  11
ENDBRANCH   4   7
BRANCH   1  21
ATOM     21  S   UNL     1       0.017   1.392   0.089  0.00  0.00    +0.054 S 
ATOM     22  O   UNL     1       0.030  -0.029   0.084  0.00  0.00    -0.153 OA
ATOM     23  O   UNL     1       1.209   2.165   0.096  0.00  0.00    -0.153 OA
BRANCH  21  25
ATOM     24  C   UNL     1      -0.407   2.813  -2.147  0.00  0.00    +0.028 C 
ATOM     25  C   UNL     1      -0.899   1.892  -1.331  0.00  0.00    +0.153 C 
BRANCH  24  29
ATOM     26  C   UNL     1      -2.615   4.018  -5.570  0.00  0.00    +0.000 A 
ATOM     27  C   UNL     1      -1.381   4.588  -5.309  0.00  0.00    +0.001 A 
ATOM     28  C   UNL     1      -0.659   4.201  -4.199  0.00  0.00    +0.008 A 
ATOM     29  C   UNL     1      -1.175   3.232  -3.338  0.00  0.00    -0.024 A 
ATOM     30  C   UNL     1      -2.417   2.657  -3.609  0.00  0.00    +0.008 A 
ATOM     31  C   UNL     1      -3.132   3.057  -4.719  0.00  0.00    +0.001 A 
ENDBRANCH  24  29
ENDBRANCH  21  25
ENDBRANCH   1  21
TORSDOF 6
