REMARK  Name = ZINC09088216
REMARK  7 active torsions:
REMARK  status: ('A' for Active; 'I' for Inactive)
REMARK    1  A    between atoms: C_1  and  C_2
REMARK    2  A    between atoms: C_2  and  C_3
REMARK    3  A    between atoms: C_2  and  C_4
REMARK    4  A    between atoms: C_2  and  C_5
REMARK    5  A    between atoms: C_5  and  C_7
REMARK    6  A    between atoms: C_9  and  C_31
REMARK    7  A    between atoms: C_31  and  C_33
REMARK                            x       y       z     vdW  Elec       q    Type
REMARK                         _______ _______ _______ _____ _____    ______ ____
ROOT
ATOM      1  C   UNL     1      -3.041   1.217  -1.339  0.00  0.00    +0.136 C 
ATOM      2  C   UNL     1      -1.752   2.045  -1.067  0.00  0.00    +0.109 C 
ATOM      3  C   UNL     1      -1.565   1.906   0.459  0.00  0.00    +0.107 C 
ATOM      4  C   UNL     1      -1.103   3.175   1.090  0.00  0.00    -0.008 A 
ATOM      5  C   UNL     1      -1.721   4.381   1.339  0.00  0.00    +0.006 A 
ATOM      6  C   UNL     1      -0.951   5.392   1.902  0.00  0.00    +0.000 A 
ATOM      7  C   UNL     1       0.380   5.201   2.204  0.00  0.00    +0.002 A 
ATOM      8  C   UNL     1       1.009   3.987   1.978  0.00  0.00    +0.023 A 
ATOM      9  C   UNL     1       0.244   2.959   1.429  0.00  0.00    +0.038 A 
ATOM     10  N   UNL     1       0.608   1.653   1.147  0.00  0.00    -0.284 N 
ATOM     11  C   UNL     1      -0.454   0.920   0.745  0.00  0.00    +0.231 C 
ATOM     12  O   UNL     1      -0.502  -0.282   0.633  0.00  0.00    -0.274 OA
ATOM     13  C   UNL     1      -2.900   1.400   0.998  0.00  0.00    +0.107 C 
ATOM     14  C   UNL     1      -5.201   1.680  -0.043  0.00  0.00    +0.054 C 
ATOM     15  C   UNL     1      -5.686   2.243   1.079  0.00  0.00    +0.022 C 
ATOM     16  C   UNL     1      -4.761   2.612   2.171  0.00  0.00    -0.019 A 
ATOM     17  C   UNL     1      -3.423   2.210   2.146  0.00  0.00    -0.020 A 
ATOM     18  C   UNL     1      -2.596   2.534   3.202  0.00  0.00    +0.006 A 
ATOM     19  C   UNL     1      -3.070   3.292   4.258  0.00  0.00    +0.000 A 
ATOM     20  C   UNL     1      -4.387   3.716   4.274  0.00  0.00    +0.001 A 
ATOM     21  C   UNL     1      -5.234   3.376   3.241  0.00  0.00    +0.008 A 
ATOM     22  H   UNL     1       1.513   1.312   1.223  0.00  0.00    +0.155 HD
ATOM     23  N   UNL     1      -3.680   1.795  -0.136  0.00  0.00    -0.384 NA
ATOM     24  H   UNL     1      -3.524   2.807  -0.211  0.00  0.00    +0.127 HD
ENDROOT
BRANCH   1  25
ATOM     25  C   UNL     1      -2.736  -0.244  -1.504  0.00  0.00    +0.158 C 
ATOM     26  O   UNL     1      -2.848  -0.995  -0.565  0.00  0.00    -0.295 OA
BRANCH  25  28
ATOM     27  C   UNL     1      -2.150  -2.296  -2.768  0.00  0.00    +0.018 C 
ATOM     28  C   UNL     1      -2.289  -0.774  -2.843  0.00  0.00    +0.022 C 
ATOM     29  C   UNL     1      -3.325  -0.408  -3.907  0.00  0.00    +0.018 C 
ATOM     30  C   UNL     1      -0.939  -0.156  -3.211  0.00  0.00    +0.018 C 
ENDBRANCH  25  28
ENDBRANCH   1  25
BRANCH   2  31
ATOM     31  C   UNL     1      -1.935   3.475  -1.498  0.00  0.00    +0.188 C 
ATOM     32  O   UNL     1      -3.048   3.954  -1.552  0.00  0.00    -0.290 OA
BRANCH  31  33
ATOM     33  C   UNL     1      -0.761   4.294  -1.856  0.00  0.00    +0.106 A 
ATOM     34  C   UNL     1      -0.938   5.617  -2.261  0.00  0.00    +0.031 A 
ATOM     35  C   UNL     1       0.175   6.375  -2.589  0.00  0.00    +0.004 A 
ATOM     36  C   UNL     1       1.425   5.781  -2.512  0.00  0.00    +0.020 A 
ATOM     37  C   UNL     1       1.527   4.459  -2.106  0.00  0.00    +0.111 A 
ATOM     38  N   UNL     1       0.456   3.764  -1.795  0.00  0.00    -0.252 NA
ENDBRANCH  31  33
ENDBRANCH   2  31
TORSDOF 4
