REMARK  Name = ZINC39926557
REMARK  6 active torsions:
REMARK  status: ('A' for Active; 'I' for Inactive)
REMARK    1  A    between atoms: C_4  and  N_7
REMARK    2  A    between atoms: C_8  and  S_24
REMARK    3  A    between atoms: S_24  and  C_25
REMARK    4  A    between atoms: C_25  and  C_26
REMARK    5  A    between atoms: N_28  and  N_29
REMARK    6  A    between atoms: C_30  and  C_31
REMARK                            x       y       z     vdW  Elec       q    Type
REMARK                         _______ _______ _______ _____ _____    ______ ____
ROOT
ATOM      1  N   UNL     1       3.622  -0.651  -0.037  0.00  0.00    -0.246 N 
ATOM      2  C   UNL     1       3.623  -2.102   0.059  0.00  0.00    +0.210 C 
ATOM      3  N   UNL     1       4.745  -2.699   0.790  0.00  0.00    -0.277 NA
ATOM      4  C   UNL     1       5.656  -1.683   1.294  0.00  0.00    +0.135 C 
ATOM      5  C   UNL     1       5.993  -0.781   0.069  0.00  0.00    +0.130 C 
ATOM      6  C   UNL     1       4.784   0.067  -0.150  0.00  0.00    +0.231 C 
ATOM      7  O   UNL     1       4.824   1.254  -0.395  0.00  0.00    -0.274 OA
ATOM      8  C   UNL     1       7.332  -0.164   0.186  0.00  0.00    -0.046 C 
ATOM      9  C   UNL     1       8.216  -0.842   0.932  0.00  0.00    -0.013 C 
ATOM     10  S   UNL     1       7.357  -2.294   1.601  0.00  0.00    -0.110 S 
ATOM     11  C   UNL     1       9.650  -0.480   1.180  0.00  0.00    +0.042 C 
ATOM     12  C   UNL     1      10.068   0.609   0.184  0.00  0.00    +0.005 C 
ATOM     13  C   UNL     1       8.988   1.696   0.174  0.00  0.00    +0.005 C 
ATOM     14  C   UNL     1       7.722   1.149  -0.484  0.00  0.00    +0.032 C 
ATOM     15  H   UNL     1       4.416  -3.292   1.537  0.00  0.00    +0.126 HD
ENDROOT
BRANCH   1  19
ATOM     16  C   UNL     1      -0.017   1.378   0.012  0.00  0.00    +0.000 A 
ATOM     17  C   UNL     1       0.224   0.416  -0.952  0.00  0.00    +0.002 A 
ATOM     18  C   UNL     1       1.429  -0.258  -0.971  0.00  0.00    +0.023 A 
ATOM     19  C   UNL     1       2.400   0.031  -0.021  0.00  0.00    +0.039 A 
ATOM     20  C   UNL     1       2.155   0.998   0.945  0.00  0.00    +0.023 A 
ATOM     21  C   UNL     1       0.948   1.668   0.959  0.00  0.00    +0.002 A 
ENDBRANCH   1  19
BRANCH   2  22
ATOM     22  S   UNL     1       2.087  -2.615   0.876  0.00  0.00    -0.113 S 
BRANCH  22  23
ATOM     23  C   UNL     1       2.160  -1.806   2.497  0.00  0.00    +0.169 C 
BRANCH  23  24
ATOM     24  C   UNL     1       0.925  -2.154   3.288  0.00  0.00    +0.242 C 
ATOM     25  O   UNL     1       0.080  -2.877   2.806  0.00  0.00    -0.273 OA
ATOM     26  N   UNL     1       0.761  -1.662   4.532  0.00  0.00    -0.206 N 
ATOM     27  H   UNL     1       1.437  -1.083   4.918  0.00  0.00    +0.177 HD
BRANCH  26  28
ATOM     28  N   UNL     1      -0.387  -1.986   5.268  0.00  0.00    -0.188 NA
ATOM     29  C   UNL     1      -0.546  -1.508   6.476  0.00  0.00    +0.136 C 
BRANCH  29  30
ATOM     30  C   UNL     1      -1.695  -1.832   7.212  0.00  0.00    +0.000 C 
ATOM     31  C   UNL     1      -2.019  -1.407   8.498  0.00  0.00    +0.004 A 
ATOM     32  C   UNL     1      -1.354  -0.571   9.423  0.00  0.00    +0.010 A 
ATOM     33  C   UNL     1      -1.917  -0.324  10.633  0.00  0.00    +0.001 A 
ATOM     34  C   UNL     1      -3.149  -0.877  10.994  0.00  0.00    +0.002 A 
ATOM     35  C   UNL     1      -3.843  -1.687  10.158  0.00  0.00    +0.026 A 
ATOM     36  C   UNL     1      -3.318  -1.992   8.874  0.00  0.00    +0.043 A 
ATOM     37  N   UNL     1      -3.787  -2.738   7.896  0.00  0.00    -0.380 N 
ATOM     38  C   UNL     1      -2.844  -2.712   6.773  0.00  0.00    +0.150 C 
ATOM     39  H   UNL     1      -4.626  -3.225   7.914  0.00  0.00    +0.160 HD
ENDBRANCH  29  30
ENDBRANCH  26  28
ENDBRANCH  23  24
ENDBRANCH  22  23
ENDBRANCH   2  22
TORSDOF 6
