REMARK  Name = ZINC00664726
REMARK  9 active torsions:
REMARK  status: ('A' for Active; 'I' for Inactive)
REMARK    1  A    between atoms: C_1  and  C_2
REMARK    2  A    between atoms: C_5  and  C_9
REMARK    3  A    between atoms: C_7  and  C_8
REMARK    4  A    between atoms: C_16  and  N_37
REMARK    5  A    between atoms: C_17  and  C_35
REMARK    6  A    between atoms: C_18  and  C_20
REMARK    7  A    between atoms: C_25  and  O_26
REMARK    8  A    between atoms: O_26  and  C_27
REMARK    9  A    between atoms: C_27  and  C_28
REMARK                            x       y       z     vdW  Elec       q    Type
REMARK                         _______ _______ _______ _____ _____    ______ ____
ROOT
ATOM      1  C   UNL     1      -0.441  -5.072  -0.386  0.00  0.00    +0.074 A 
ATOM      2  C   UNL     1      -1.333  -5.612  -1.251  0.00  0.00    +0.054 A 
ATOM      3  C   UNL     1      -1.187  -7.013  -1.211  0.00  0.00    +0.245 A 
ATOM      4  N   UNL     1      -0.247  -7.303  -0.358  0.00  0.00    -0.135 NA
ATOM      5  N   UNL     1       0.251  -6.106   0.179  0.00  0.00    -0.273 N 
ATOM      6  H   UNL     1       0.960  -6.026   0.836  0.00  0.00    +0.189 HD
ATOM      7  O   UNL     1      -1.950  -7.838  -1.979  0.00  0.00    -0.421 OA
ATOM      8  C   UNL     1      -2.661  -7.278  -2.977  0.00  0.00    +0.201 C 
ATOM      9  C   UNL     1      -2.877  -5.952  -3.112  0.00  0.00    +0.098 C 
ATOM     10  C   UNL     1      -2.342  -4.931  -2.140  0.00  0.00    +0.105 C 
ENDROOT
BRANCH   1  15
ATOM     11  C   UNL     1       0.309   0.533   0.687  0.00  0.00    +0.044 C 
ATOM     12  C   UNL     1       0.113  -0.934   0.406  0.00  0.00    -0.047 A 
ATOM     13  C   UNL     1       0.036  -1.381  -0.901  0.00  0.00    +0.004 A 
ATOM     14  C   UNL     1      -0.144  -2.723  -1.165  0.00  0.00    +0.010 A 
ATOM     15  C   UNL     1      -0.247  -3.631  -0.111  0.00  0.00    +0.000 A 
ATOM     16  C   UNL     1      -0.168  -3.174   1.205  0.00  0.00    +0.013 A 
ATOM     17  C   UNL     1       0.017  -1.830   1.456  0.00  0.00    -0.047 A 
ATOM     18  C   UNL     1       0.109  -1.336   2.876  0.00  0.00    +0.044 C 
ENDBRANCH   1  15
BRANCH  10  19
ATOM     19  C   UNL     1      -3.470  -4.385  -1.303  0.00  0.00    +0.007 A 
ATOM     20  C   UNL     1      -4.155  -5.217  -0.438  0.00  0.00    +0.008 A 
ATOM     21  C   UNL     1      -5.190  -4.717   0.330  0.00  0.00    +0.001 A 
ATOM     22  C   UNL     1      -5.543  -3.383   0.234  0.00  0.00    +0.004 A 
ATOM     23  C   UNL     1      -4.862  -2.547  -0.629  0.00  0.00    +0.046 A 
ATOM     24  C   UNL     1      -3.819  -3.045  -1.396  0.00  0.00    +0.125 A 
BRANCH  24  25
ATOM     25  O   UNL     1      -3.143  -2.224  -2.242  0.00  0.00    -0.487 OA
BRANCH  25  26
ATOM     26  C   UNL     1      -3.604  -0.875  -2.342  0.00  0.00    +0.264 C 
BRANCH  26  27
ATOM     27  C   UNL     1      -2.817  -0.153  -3.406  0.00  0.00    -0.010 A 
ATOM     28  C   UNL     1      -1.646   0.502  -3.075  0.00  0.00    +0.008 A 
ATOM     29  C   UNL     1      -0.924   1.164  -4.050  0.00  0.00    +0.020 A 
ATOM     30  C   UNL     1      -1.375   1.171  -5.359  0.00  0.00    +0.041 A 
ATOM     31  C   UNL     1      -2.547   0.515  -5.690  0.00  0.00    +0.020 A 
ATOM     32  C   UNL     1      -3.265  -0.151  -4.714  0.00  0.00    +0.008 A 
ATOM     33 CL   UNL     1      -0.469   2.003  -6.584  0.00  0.00    -0.084 Cl
ENDBRANCH  26  27
ENDBRANCH  25  26
ENDBRANCH  24  25
ENDBRANCH  10  19
BRANCH   8  34
ATOM     34  N   UNL     1      -3.202  -8.112  -3.923  0.00  0.00    -0.328 N 
ATOM     35  H   UNL     1      -3.067  -9.071  -3.858  0.00  0.00    +0.145 HD
ATOM     36  H   UNL     1      -3.720  -7.744  -4.656  0.00  0.00    +0.145 HD
ENDBRANCH   8  34
BRANCH   9  37
ATOM     37  C   UNL     1      -3.648  -5.495  -4.228  0.00  0.00    +0.101 C 
ATOM     38  N   UNL     1      -4.261  -5.133  -5.114  0.00  0.00    -0.191 NA
ENDBRANCH   9  37
TORSDOF 7
