REMARK  Name = ZINC58890022
REMARK  13 active torsions:
REMARK  status: ('A' for Active; 'I' for Inactive)
REMARK    1  A    between atoms: C_1  and  C_2
REMARK    2  A    between atoms: C_6  and  C_8
REMARK    3  A    between atoms: C_8  and  O_9
REMARK    4  A    between atoms: O_9  and  C_10
REMARK    5  A    between atoms: C_11  and  O_33
REMARK    6  A    between atoms: C_13  and  C_17
REMARK    7  A    between atoms: N_18  and  N_19
REMARK    8  A    between atoms: C_20  and  C_22
REMARK    9  A    between atoms: C_22  and  C_23
REMARK   10  A    between atoms: C_23  and  C_24
REMARK   11  A    between atoms: C_24  and  C_26
REMARK   12  A    between atoms: C_24  and  O_32
REMARK   13  A    between atoms: O_33  and  C_34
REMARK                            x       y       z     vdW  Elec       q    Type
REMARK                         _______ _______ _______ _____ _____    ______ ____
ROOT
ATOM      1  C   UNL     1       0.226  -3.795   4.532  0.00  0.00    +0.176 A 
ATOM      2  C   UNL     1       1.077  -3.106   5.393  0.00  0.00    +0.163 A 
ATOM      3  C   UNL     1       1.711  -3.777   6.421  0.00  0.00    +0.059 A 
ATOM      4  C   UNL     1       1.497  -5.147   6.594  0.00  0.00    -0.001 A 
ATOM      5  C   UNL     1       0.643  -5.832   5.727  0.00  0.00    +0.028 A 
ATOM      6  C   UNL     1       0.009  -5.155   4.706  0.00  0.00    +0.064 A 
ATOM      7 BR   UNL     1      -1.154  -6.082   3.538  0.00  0.00    -0.046 Br
ENDROOT
BRANCH   4   8
ATOM      8  C   UNL     1       2.172  -5.868   7.689  0.00  0.00    +0.138 C 
ATOM      9  N   UNL     1       2.212  -7.165   7.685  0.00  0.00    -0.188 NA
BRANCH   9  10
ATOM     10  N   UNL     1       2.128  -7.864   6.473  0.00  0.00    -0.207 N 
ATOM     11  C   UNL     1       2.037  -9.209   6.476  0.00  0.00    +0.232 C 
ATOM     12  O   UNL     1       2.027  -9.814   7.528  0.00  0.00    -0.274 OA
ATOM     13  H   UNL     1       2.136  -7.381   5.633  0.00  0.00    +0.177 HD
BRANCH  11  14
ATOM     14  C   UNL     1       1.947  -9.961   5.173  0.00  0.00    +0.100 C 
BRANCH  14  15
ATOM     15  C   UNL     1       1.853 -11.462   5.456  0.00  0.00    +0.045 C 
BRANCH  15  16
ATOM     16  C   UNL     1       1.761 -12.225   4.133  0.00  0.00    +0.145 C 
BRANCH  16  17
ATOM     17  C   UNL     1       1.793 -13.707   4.405  0.00  0.00    -0.019 A 
ATOM     18  C   UNL     1       0.624 -14.378   4.715  0.00  0.00    +0.006 A 
ATOM     19  C   UNL     1       0.653 -15.737   4.964  0.00  0.00    +0.000 A 
ATOM     20  C   UNL     1       1.850 -16.426   4.904  0.00  0.00    +0.000 A 
ATOM     21  C   UNL     1       3.018 -15.755   4.594  0.00  0.00    +0.000 A 
ATOM     22  C   UNL     1       2.989 -14.397   4.341  0.00  0.00    +0.006 A 
ENDBRANCH  16  17
BRANCH  16  23
ATOM     23  O   UNL     1       0.540 -11.888   3.472  0.00  0.00    -0.387 OA
ATOM     24  H   UNL     1      -0.254 -12.101   3.980  0.00  0.00    +0.210 HD
ENDBRANCH  16  23
ENDBRANCH  15  16
ENDBRANCH  14  15
ENDBRANCH  11  14
ENDBRANCH   9  10
ENDBRANCH   4   8
BRANCH   2  25
ATOM     25  O   UNL     1       1.284  -1.773   5.222  0.00  0.00    -0.491 OA
ATOM     26  C   UNL     1       2.168  -1.130   6.142  0.00  0.00    +0.277 C 
ENDBRANCH   2  25
BRANCH   1  27
ATOM     27  O   UNL     1      -0.397  -3.133   3.521  0.00  0.00    -0.483 OA
BRANCH  27  28
ATOM     28  C   UNL     1      -1.675  -2.561   3.810  0.00  0.00    +0.264 C 
BRANCH  28  34
ATOM     29  C   UNL     1      -2.097   1.545   0.981  0.00  0.00    +0.044 C 
ATOM     30  C   UNL     1      -2.410   0.091   1.226  0.00  0.00    -0.050 A 
ATOM     31  C   UNL     1      -3.186  -0.611   0.323  0.00  0.00    +0.003 A 
ATOM     32  C   UNL     1      -3.473  -1.944   0.549  0.00  0.00    +0.001 A 
ATOM     33  C   UNL     1      -2.984  -2.575   1.677  0.00  0.00    +0.007 A 
ATOM     34  C   UNL     1      -2.207  -1.873   2.580  0.00  0.00    -0.010 A 
ATOM     35  C   UNL     1      -1.917  -0.541   2.352  0.00  0.00    +0.010 A 
ENDBRANCH  28  34
ENDBRANCH  27  28
ENDBRANCH   1  27
TORSDOF 11
