REMARK  Name = ZINC52603393
REMARK  10 active torsions:
REMARK  status: ('A' for Active; 'I' for Inactive)
REMARK    1  A    between atoms: C_1  and  C_2
REMARK    2  A    between atoms: C_2  and  C_3
REMARK    3  A    between atoms: C_2  and  C_13
REMARK    4  A    between atoms: C_2  and  N_24
REMARK    5  A    between atoms: C_3  and  C_4
REMARK    6  A    between atoms: N_15  and  C_16
REMARK    7  A    between atoms: C_16  and  C_17
REMARK    8  A    between atoms: C_17  and  C_18
REMARK    9  A    between atoms: C_25  and  O_27
REMARK   10  A    between atoms: O_27  and  C_28
REMARK                            x       y       z     vdW  Elec       q    Type
REMARK                         _______ _______ _______ _____ _____    ______ ____
ROOT
ATOM      1  C   UNL     1      -0.019   1.526   0.010  0.00  0.00    +0.042 C 
ATOM      2  C   UNL     1       0.002  -0.004   0.002  0.00  0.00    +0.114 C 
ENDROOT
BRANCH   2   3
ATOM      3  C   UNL     1       0.707  -0.490  -1.238  0.00  0.00    +0.237 C 
ATOM      4  O   UNL     1       1.522   0.219  -1.790  0.00  0.00    -0.273 OA
ATOM      5  N   UNL     1       0.433  -1.713  -1.733  0.00  0.00    -0.313 N 
ATOM      6  H   UNL     1      -0.218  -2.281  -1.292  0.00  0.00    +0.149 HD
BRANCH   5   7
ATOM      7  C   UNL     1       1.119  -2.186  -2.939  0.00  0.00    +0.110 C 
BRANCH   7   8
ATOM      8  C   UNL     1       0.630  -3.593  -3.285  0.00  0.00    +0.074 C 
BRANCH   8   9
ATOM      9  C   UNL     1       1.335  -4.079  -4.525  0.00  0.00    +0.043 A 
ATOM     10  C   UNL     1       2.016  -5.282  -4.497  0.00  0.00    +0.023 A 
ATOM     11  C   UNL     1       2.661  -5.720  -5.643  0.00  0.00    +0.003 A 
ATOM     12  C   UNL     1       2.598  -4.928  -6.780  0.00  0.00    +0.020 A 
ATOM     13  C   UNL     1       1.898  -3.738  -6.733  0.00  0.00    +0.111 A 
ATOM     14  N   UNL     1       1.291  -3.355  -5.626  0.00  0.00    -0.260 NA
ENDBRANCH   8   9
ENDBRANCH   7   8
ENDBRANCH   5   7
ENDBRANCH   2   3
BRANCH   2  15
ATOM     15  N   UNL     1      -1.372  -0.511   0.012  0.00  0.00    -0.267 N 
ATOM     16  C   UNL     1      -2.197  -0.202   1.033  0.00  0.00    +0.401 C 
ATOM     17  O   UNL     1      -1.800   0.497   1.944  0.00  0.00    -0.226 OA
ATOM     18  H   UNL     1      -1.689  -1.069  -0.715  0.00  0.00    +0.153 HD
BRANCH  16  19
ATOM     19  O   UNL     1      -3.460  -0.668   1.042  0.00  0.00    -0.447 OA
BRANCH  19  20
ATOM     20  C   UNL     1      -4.278  -0.301   2.155  0.00  0.00    +0.184 C 
ATOM     21  C   UNL     1      -4.131  -1.347   3.263  0.00  0.00    +0.031 C 
ATOM     22  C   UNL     1      -5.008  -0.954   4.454  0.00  0.00    +0.010 C 
ATOM     23  C   UNL     1      -6.470  -0.884   4.010  0.00  0.00    -0.010 C 
ATOM     24  C   UNL     1      -6.909  -2.251   3.483  0.00  0.00    +0.007 C 
ATOM     25  C   UNL     1      -6.033  -2.644   2.292  0.00  0.00    -0.010 C 
ATOM     26  C   UNL     1      -4.570  -2.714   2.736  0.00  0.00    +0.010 C 
ATOM     27  C   UNL     1      -6.180  -1.599   1.184  0.00  0.00    +0.010 C 
ATOM     28  C   UNL     1      -5.741  -0.231   1.711  0.00  0.00    +0.031 C 
ATOM     29  C   UNL     1      -6.617   0.161   2.902  0.00  0.00    +0.010 C 
ENDBRANCH  19  20
ENDBRANCH  16  19
ENDBRANCH   2  15
BRANCH   2  30
ATOM     30  C   UNL     1       0.742  -0.511   1.242  0.00  0.00    +0.068 C 
BRANCH  30  31
ATOM     31  C   UNL     1       0.762  -2.018   1.233  0.00  0.00    -0.039 C 
ATOM     32  C   UNL     1       1.751  -2.815   0.768  0.00  0.00    -0.001 A 
ATOM     33  C   UNL     1       3.052  -2.529   0.152  0.00  0.00    +0.010 A 
ATOM     34  C   UNL     1       3.843  -3.561  -0.220  0.00  0.00    +0.001 A 
ATOM     35  C   UNL     1       3.451  -4.894  -0.034  0.00  0.00    +0.002 A 
ATOM     36  C   UNL     1       2.271  -5.236   0.524  0.00  0.00    +0.026 A 
ATOM     37  C   UNL     1       1.361  -4.231   0.954  0.00  0.00    +0.043 A 
ATOM     38  N   UNL     1       0.177  -4.306   1.512  0.00  0.00    -0.380 N 
ATOM     39  C   UNL     1      -0.315  -2.945   1.750  0.00  0.00    +0.144 C 
ATOM     40  H   UNL     1      -0.293  -5.125   1.735  0.00  0.00    +0.160 HD
ENDBRANCH  30  31
ENDBRANCH   2  30
TORSDOF 9
