REMARK  Name = ZINC35692882
REMARK  12 active torsions:
REMARK  status: ('A' for Active; 'I' for Inactive)
REMARK    1  A    between atoms: C_1  and  C_2
REMARK    2  A    between atoms: C_2  and  O_3
REMARK    3  A    between atoms: O_3  and  C_4
REMARK    4  A    between atoms: C_4  and  C_6
REMARK    5  A    between atoms: C_7  and  C_29
REMARK    6  A    between atoms: C_11  and  C_13
REMARK    7  A    between atoms: C_18  and  C_21
REMARK    8  A    between atoms: C_22  and  N_24
REMARK    9  A    between atoms: N_24  and  C_25
REMARK   10  A    between atoms: C_25  and  C_26
REMARK   11  A    between atoms: C_26  and  O_27
REMARK   12  A    between atoms: O_27  and  C_28
REMARK                            x       y       z     vdW  Elec       q    Type
REMARK                         _______ _______ _______ _____ _____    ______ ____
ROOT
ATOM      1  C   UNL     1       1.925  -2.382  -2.180  0.00  0.00    +0.088 C 
ATOM      2  C   UNL     1       1.689  -3.715  -2.516  0.00  0.00    +0.086 C 
ATOM      3  N   UNL     1       1.810  -4.117  -3.780  0.00  0.00    -0.224 NA
ATOM      4  C   UNL     1       2.147  -3.340  -4.785  0.00  0.00    +0.166 C 
ATOM      5  N   UNL     1       2.419  -2.005  -4.663  0.00  0.00    -0.267 N 
ATOM      6  C   UNL     1       2.310  -1.435  -3.294  0.00  0.00    +0.157 C 
ATOM      7  C   UNL     1       2.758  -1.327  -5.818  0.00  0.00    +0.048 C 
ATOM      8  C   UNL     1       2.795  -2.032  -6.971  0.00  0.00    +0.072 C 
ATOM      9  S   UNL     1       2.347  -3.666  -6.419  0.00  0.00    -0.060 S 
ENDROOT
BRANCH   2  10
ATOM     10  C   UNL     1       1.302  -4.684  -1.466  0.00  0.00    +0.001 A 
ATOM     11  C   UNL     1       0.094  -4.534  -0.785  0.00  0.00    +0.010 A 
ATOM     12  C   UNL     1      -0.260  -5.441   0.193  0.00  0.00    +0.001 A 
ATOM     13  C   UNL     1       0.580  -6.497   0.499  0.00  0.00    +0.000 A 
ATOM     14  C   UNL     1       1.780  -6.650  -0.172  0.00  0.00    +0.001 A 
ATOM     15  C   UNL     1       2.143  -5.754  -1.157  0.00  0.00    +0.010 A 
ENDBRANCH   2  10
BRANCH   6  16
ATOM     16  C   UNL     1       3.644  -0.826  -2.944  0.00  0.00    +0.015 A 
ATOM     17  C   UNL     1       3.911   0.379  -2.383  0.00  0.00    +0.013 A 
ATOM     18  C   UNL     1       5.227   0.732  -2.149  0.00  0.00    +0.008 A 
ATOM     19  C   UNL     1       6.211  -0.136  -2.488  0.00  0.00    +0.045 A 
ATOM     20  S   UNL     1       5.281  -1.507  -3.154  0.00  0.00    -0.099 S 
ENDBRANCH   6  16
BRANCH   7  21
ATOM     21  C   UNL     1       3.068   0.109  -5.795  0.00  0.00    +0.091 C 
ATOM     22  C   UNL     1       3.523   0.718  -6.906  0.00  0.00    +0.239 C 
ATOM     23  O   UNL     1       3.590   0.035  -8.075  0.00  0.00    -0.271 OA
BRANCH  22  24
ATOM     24  N   UNL     1       3.923   2.043  -6.855  0.00  0.00    -0.310 N 
ATOM     25  H   UNL     1       3.875   2.532  -6.019  0.00  0.00    +0.149 HD
BRANCH  24  26
ATOM     26  C   UNL     1       4.419   2.706  -8.064  0.00  0.00    +0.132 C 
BRANCH  26  27
ATOM     27  C   UNL     1       4.790   4.153  -7.737  0.00  0.00    +0.178 C 
BRANCH  27  28
ATOM     28  O   UNL     1       5.888   4.168  -6.821  0.00  0.00    -0.381 OA
ATOM     29  C   UNL     1       6.316   5.479  -6.448  0.00  0.00    +0.194 C 
ENDBRANCH  27  28
ENDBRANCH  26  27
ENDBRANCH  24  26
ENDBRANCH  22  24
ENDBRANCH   7  21
BRANCH   1  30
ATOM     30  C   UNL     1       1.804  -1.937  -0.863  0.00  0.00    +0.339 C 
ATOM     31  O   UNL     1       1.609  -2.737   0.036  0.00  0.00    -0.245 OA
BRANCH  30  32
ATOM     32  O   UNL     1       1.903  -0.618  -0.583  0.00  0.00    -0.462 OA
BRANCH  32  34
ATOM     33  C   UNL     1       1.910   1.286   0.906  0.00  0.00    +0.048 C 
ATOM     34  C   UNL     1       1.770  -0.233   0.787  0.00  0.00    +0.229 C 
ENDBRANCH  32  34
ENDBRANCH  30  32
ENDBRANCH   1  30
TORSDOF 10
