REMARK  Name = ZINC33939859
REMARK  8 active torsions:
REMARK  status: ('A' for Active; 'I' for Inactive)
REMARK    1  A    between atoms: C_1  and  C_2
REMARK    2  A    between atoms: C_2  and  C_4
REMARK    3  A    between atoms: C_8  and  N_10
REMARK    4  A    between atoms: C_11  and  C_34
REMARK    5  A    between atoms: C_16  and  C_33
REMARK    6  A    between atoms: C_18  and  C_24
REMARK    7  A    between atoms: N_26  and  C_27
REMARK    8  A    between atoms: N_36  and  C_37
REMARK                            x       y       z     vdW  Elec       q    Type
REMARK                         _______ _______ _______ _____ _____    ______ ____
ROOT
ATOM      1  N   UNL     1      -2.379  -4.241  -0.079  0.00  0.00    -0.256 N 
ATOM      2  C   UNL     1      -3.604  -5.089   0.061  0.00  0.00    +0.203 C 
ATOM      3  C   UNL     1      -3.044  -6.347   0.649  0.00  0.00    +0.128 C 
ATOM      4  C   UNL     1      -2.613  -6.181   2.095  0.00  0.00    +0.009 C 
ATOM      5  C   UNL     1      -2.154  -7.366   2.471  0.00  0.00    +0.007 C 
ATOM      6  C   UNL     1      -2.250  -8.245   1.218  0.00  0.00    +0.098 C 
ATOM      7  O   UNL     1      -3.465  -7.688   0.564  0.00  0.00    -0.355 OA
ATOM      8  C   UNL     1      -1.093  -7.665   0.315  0.00  0.00    +0.126 C 
ATOM      9  C   UNL     1      -1.750  -6.435  -0.257  0.00  0.00    +0.128 C 
ATOM     10  C   UNL     1      -1.269  -5.045  -0.168  0.00  0.00    +0.228 C 
ATOM     11  O   UNL     1      -0.112  -4.681  -0.170  0.00  0.00    -0.275 OA
ATOM     12  C   UNL     1      -2.245  -9.757   1.454  0.00  0.00    +0.047 C 
ENDROOT
BRANCH   1  17
ATOM     13  C   UNL     1      -1.740  -0.729   0.848  0.00  0.00    +0.019 A 
ATOM     14  C   UNL     1      -2.356  -0.065  -0.218  0.00  0.00    +0.011 A 
ATOM     15  C   UNL     1      -2.968  -0.790  -1.220  0.00  0.00    +0.002 A 
ATOM     16  C   UNL     1      -2.976  -2.172  -1.174  0.00  0.00    +0.023 A 
ATOM     17  C   UNL     1      -2.367  -2.842  -0.119  0.00  0.00    +0.038 A 
ATOM     18  C   UNL     1      -1.744  -2.125   0.890  0.00  0.00    +0.035 A 
BRANCH  13  20
ATOM     19  C   UNL     1      -1.085   1.547   1.871  0.00  0.00    +0.091 C 
ATOM     20  C   UNL     1      -1.086   0.041   1.919  0.00  0.00    +0.160 C 
ATOM     21  O   UNL     1      -0.549  -0.537   2.840  0.00  0.00    -0.292 OA
ENDBRANCH  13  20
ENDBRANCH   1  17
BRANCH   8  22
ATOM     22  C   UNL     1       0.110  -7.300   1.146  0.00  0.00    +0.224 C 
ATOM     23  O   UNL     1       0.165  -6.218   1.691  0.00  0.00    -0.275 OA
ATOM     24  N   UNL     1       1.125  -8.177   1.284  0.00  0.00    -0.285 N 
ATOM     25  H   UNL     1       1.121  -9.006   0.781  0.00  0.00    +0.155 HD
BRANCH  24  26
ATOM     26  C   UNL     1       2.185  -7.890   2.152  0.00  0.00    +0.033 A 
ATOM     27  C   UNL     1       3.438  -8.444   1.927  0.00  0.00    +0.023 A 
ATOM     28  C   UNL     1       4.482  -8.159   2.785  0.00  0.00    +0.002 A 
ATOM     29  C   UNL     1       4.279  -7.322   3.868  0.00  0.00    +0.000 A 
ATOM     30  C   UNL     1       3.033  -6.769   4.095  0.00  0.00    +0.002 A 
ATOM     31  C   UNL     1       1.986  -7.045   3.236  0.00  0.00    +0.023 A 
ENDBRANCH  24  26
ENDBRANCH   8  22
BRANCH   2  32
ATOM     32  C   UNL     1      -4.597  -4.451   0.999  0.00  0.00    +0.237 C 
ATOM     33  O   UNL     1      -4.234  -3.589   1.772  0.00  0.00    -0.274 OA
ATOM     34  N   UNL     1      -5.887  -4.839   0.980  0.00  0.00    -0.311 N 
ATOM     35  H   UNL     1      -6.178  -5.528   0.362  0.00  0.00    +0.149 HD
BRANCH  34  36
ATOM     36  C   UNL     1      -6.852  -4.219   1.892  0.00  0.00    +0.073 C 
ATOM     37  C   UNL     1      -6.810  -4.935   3.243  0.00  0.00    +0.022 C 
ATOM     38  C   UNL     1      -7.817  -4.288   4.195  0.00  0.00    +0.002 C 
ATOM     39  C   UNL     1      -9.223  -4.399   3.603  0.00  0.00    +0.000 C 
ATOM     40  C   UNL     1      -9.266  -3.683   2.251  0.00  0.00    +0.002 C 
ATOM     41  C   UNL     1      -8.258  -4.330   1.299  0.00  0.00    +0.022 C 
ENDBRANCH  34  36
ENDBRANCH   2  32
TORSDOF 6
