REMARK  Name = ZINC02399267
REMARK  6 active torsions:
REMARK  status: ('A' for Active; 'I' for Inactive)
REMARK    1  A    between atoms: C_1  and  O_2
REMARK    2  A    between atoms: O_2  and  C_3
REMARK    3  A    between atoms: C_6  and  N_9
REMARK    4  A    between atoms: C_12  and  C_16
REMARK    5  A    between atoms: C_12  and  N_20
REMARK    6  A    between atoms: C_21  and  C_23
REMARK                            x       y       z     vdW  Elec       q    Type
REMARK                         _______ _______ _______ _____ _____    ______ ____
ROOT
ATOM      1  N   UNL     1      -4.892  -2.582   0.034  0.00  0.00    -0.187 N 
ATOM      2  C   UNL     1      -5.056  -3.919  -0.058  0.00  0.00    +0.283 C 
ATOM      3  O   UNL     1      -4.192  -4.763  -0.161  0.00  0.00    -0.270 OA
ATOM      4  C   UNL     1      -6.556  -4.135  -0.005  0.00  0.00    +0.305 C 
ATOM      5  N   UNL     1      -7.105  -2.775   0.122  0.00  0.00    -0.188 NA
ATOM      6  C   UNL     1      -6.107  -1.951   0.143  0.00  0.00    +0.345 C 
ATOM      7  O   UNL     1      -6.246  -0.612   0.256  0.00  0.00    -0.247 OA
ENDROOT
BRANCH   1  11
ATOM      8  C   UNL     1      -1.201  -0.638   0.010  0.00  0.00    +0.120 A 
ATOM      9  C   UNL     1      -2.374   0.102  -0.002  0.00  0.00    +0.047 A 
ATOM     10  C   UNL     1      -3.596  -0.541   0.006  0.00  0.00    +0.027 A 
ATOM     11  C   UNL     1      -3.650  -1.928   0.026  0.00  0.00    +0.046 A 
ATOM     12  C   UNL     1      -2.476  -2.668   0.038  0.00  0.00    +0.027 A 
ATOM     13  C   UNL     1      -1.254  -2.024   0.025  0.00  0.00    +0.047 A 
BRANCH   8  15
ATOM     14  C   UNL     1      -0.017   1.425  -0.013  0.00  0.00    +0.277 C 
ATOM     15  O   UNL     1       0.002  -0.004   0.002  0.00  0.00    -0.495 OA
ENDBRANCH   8  15
ENDBRANCH   1  11
BRANCH   4  16
ATOM     16  C   UNL     1      -6.933  -4.982   1.212  0.00  0.00    +0.440 C 
ATOM     17  F   UNL     1      -6.527  -4.327   2.380  0.00  0.00    -0.166 F 
ATOM     18  F   UNL     1      -8.320  -5.167   1.240  0.00  0.00    -0.166 F 
ATOM     19  F   UNL     1      -6.298  -6.226   1.130  0.00  0.00    -0.166 F 
ENDBRANCH   4  16
BRANCH   4  20
ATOM     20  N   UNL     1      -7.029  -4.767  -1.239  0.00  0.00    -0.273 N 
ATOM     21  C   UNL     1      -6.554  -5.975  -1.602  0.00  0.00    +0.246 C 
ATOM     22  O   UNL     1      -5.734  -6.540  -0.905  0.00  0.00    -0.270 OA
ATOM     23  H   UNL     1      -7.683  -4.316  -1.795  0.00  0.00    +0.152 HD
BRANCH  21  24
ATOM     24  C   UNL     1      -7.030  -6.612  -2.847  0.00  0.00    +0.037 A 
ATOM     25  C   UNL     1      -7.968  -5.963  -3.652  0.00  0.00    +0.016 A 
ATOM     26  C   UNL     1      -8.410  -6.562  -4.812  0.00  0.00    +0.039 A 
ATOM     27  C   UNL     1      -7.924  -7.807  -5.180  0.00  0.00    +0.123 A 
ATOM     28  C   UNL     1      -6.993  -8.457  -4.384  0.00  0.00    +0.039 A 
ATOM     29  C   UNL     1      -6.540  -7.864  -3.225  0.00  0.00    +0.016 A 
ATOM     30  F   UNL     1      -8.361  -8.390  -6.318  0.00  0.00    -0.205 F 
ENDBRANCH  21  24
ENDBRANCH   4  20
TORSDOF 5
