REMARK  Name = ZINC09159357
REMARK  5 active torsions:
REMARK  status: ('A' for Active; 'I' for Inactive)
REMARK    1  A    between atoms: C_4  and  C_7
REMARK    2  A    between atoms: C_14  and  N_36
REMARK    3  A    between atoms: C_15  and  C_34
REMARK    4  A    between atoms: N_23  and  C_26
REMARK    5  A    between atoms: C_26  and  C_27
REMARK                            x       y       z     vdW  Elec       q    Type
REMARK                         _______ _______ _______ _____ _____    ______ ____
ROOT
ATOM      1  C   UNL     1       4.337   0.336  -1.486  0.00  0.00    +0.074 A 
ATOM      2  C   UNL     1       4.636  -0.470  -2.533  0.00  0.00    +0.066 A 
ATOM      3  C   UNL     1       5.999  -0.292  -2.847  0.00  0.00    +0.246 A 
ATOM      4  N   UNL     1       6.498   0.583  -2.022  0.00  0.00    -0.135 NA
ATOM      5  N   UNL     1       5.480   1.007  -1.153  0.00  0.00    -0.273 N 
ATOM      6  H   UNL     1       5.572   1.659  -0.441  0.00  0.00    +0.189 HD
ATOM      7  O   UNL     1       6.597  -0.972  -3.863  0.00  0.00    -0.421 OA
ATOM      8  C   UNL     1       5.804  -1.624  -4.736  0.00  0.00    +0.201 C 
ATOM      9  C   UNL     1       4.488  -1.864  -4.539  0.00  0.00    +0.110 C 
ATOM     10  C   UNL     1       3.760  -1.421  -3.300  0.00  0.00    +0.145 C 
ATOM     11  C   UNL     1       3.358  -2.589  -2.458  0.00  0.00    -0.001 A 
ATOM     12  C   UNL     1       4.102  -3.568  -1.835  0.00  0.00    +0.007 A 
ATOM     13  C   UNL     1       3.402  -4.528  -1.113  0.00  0.00    +0.000 A 
ATOM     14  C   UNL     1       2.025  -4.500  -1.024  0.00  0.00    +0.002 A 
ATOM     15  C   UNL     1       1.270  -3.519  -1.648  0.00  0.00    +0.024 A 
ATOM     16  C   UNL     1       1.960  -2.549  -2.377  0.00  0.00    +0.041 A 
ATOM     17  N   UNL     1       1.468  -1.471  -3.091  0.00  0.00    -0.265 N 
ATOM     18  C   UNL     1       2.454  -0.753  -3.668  0.00  0.00    +0.241 C 
ATOM     19  O   UNL     1       2.319   0.240  -4.352  0.00  0.00    -0.274 OA
ENDROOT
BRANCH   1  23
ATOM     20  C   UNL     1       0.549   0.721   0.399  0.00  0.00    +0.000 A 
ATOM     21  C   UNL     1       1.070  -0.536   0.149  0.00  0.00    +0.001 A 
ATOM     22  C   UNL     1       2.300  -0.668  -0.463  0.00  0.00    +0.010 A 
ATOM     23  C   UNL     1       3.018   0.470  -0.830  0.00  0.00    +0.000 A 
ATOM     24  C   UNL     1       2.487   1.735  -0.576  0.00  0.00    +0.010 A 
ATOM     25  C   UNL     1       1.257   1.853   0.037  0.00  0.00    +0.001 A 
ENDBRANCH   1  23
BRANCH   8  26
ATOM     26  N   UNL     1       6.369  -2.074  -5.902  0.00  0.00    -0.328 N 
ATOM     27  H   UNL     1       7.311  -1.919  -6.076  0.00  0.00    +0.145 HD
ATOM     28  H   UNL     1       5.828  -2.547  -6.553  0.00  0.00    +0.145 HD
ENDBRANCH   8  26
BRANCH   9  29
ATOM     29  C   UNL     1       3.758  -2.567  -5.551  0.00  0.00    +0.102 C 
ATOM     30  N   UNL     1       3.180  -3.126  -6.353  0.00  0.00    -0.191 NA
ENDBRANCH   9  29
BRANCH  17  31
ATOM     31  C   UNL     1       0.044  -1.147  -3.207  0.00  0.00    +0.148 C 
BRANCH  31  32
ATOM     32  C   UNL     1      -0.225   0.182  -2.549  0.00  0.00    -0.030 A 
ATOM     33  C   UNL     1      -1.107   0.261  -1.488  0.00  0.00    +0.006 A 
ATOM     34  C   UNL     1      -1.353   1.480  -0.883  0.00  0.00    +0.020 A 
ATOM     35  C   UNL     1      -0.717   2.620  -1.340  0.00  0.00    +0.041 A 
ATOM     36  C   UNL     1       0.166   2.539  -2.402  0.00  0.00    +0.020 A 
ATOM     37  C   UNL     1       0.416   1.320  -3.002  0.00  0.00    +0.006 A 
ATOM     38 CL   UNL     1      -1.026   4.150  -0.582  0.00  0.00    -0.084 Cl
ENDBRANCH  31  32
ENDBRANCH  17  31
TORSDOF 5
