REMARK  Name = ZINC59169078
REMARK  14 active torsions:
REMARK  status: ('A' for Active; 'I' for Inactive)
REMARK    1  A    between atoms: C_1  and  C_2
REMARK    2  A    between atoms: C_2  and  C_4
REMARK    3  A    between atoms: C_7  and  N_10
REMARK    4  A    between atoms: N_10  and  C_11
REMARK    5  A    between atoms: C_11  and  N_13
REMARK    6  A    between atoms: N_13  and  C_14
REMARK    7  A    between atoms: N_13  and  C_23
REMARK    8  A    between atoms: C_14  and  C_15
REMARK    9  A    between atoms: C_20  and  O_21
REMARK   10  A    between atoms: O_21  and  C_22
REMARK   11  A    between atoms: C_25  and  C_31
REMARK   12  A    between atoms: C_25  and  C_32
REMARK   13  A    between atoms: C_27  and  C_29
REMARK   14  A    between atoms: C_27  and  C_30
REMARK                            x       y       z     vdW  Elec       q    Type
REMARK                         _______ _______ _______ _____ _____    ______ ____
ROOT
ATOM      1  N   UNL     1       0.594  -4.697  -6.138  0.00  0.00    -0.305 N 
ENDROOT
BRANCH   1   2
ATOM      2  C   UNL     1       0.719  -3.919  -7.376  0.00  0.00    +0.073 C 
ATOM      3  C   UNL     1       1.800  -2.851  -7.192  0.00  0.00    +0.009 C 
ATOM      4  C   UNL     1       1.933  -2.024  -8.470  0.00  0.00    -0.072 C 
ATOM      5  N   UNL     1       0.660  -1.461  -8.894  0.00  0.00    +0.386 N 
ATOM      6  C   UNL     1      -0.496  -2.343  -8.911  0.00  0.00    -0.072 C 
ATOM      7  C   UNL     1      -0.606  -3.215  -7.665  0.00  0.00    +0.009 C 
ATOM      8  C   UNL     1      -0.520  -3.221 -10.165  0.00  0.00    -0.010 C 
ATOM      9  C   UNL     1      -1.760  -1.452  -8.960  0.00  0.00    -0.010 C 
ATOM     10  C   UNL     1       2.591  -2.854  -9.571  0.00  0.00    -0.010 C 
ATOM     11  C   UNL     1       2.882  -0.845  -8.155  0.00  0.00    -0.010 C 
ATOM     12  H   UNL     1       0.446  -0.662  -8.292  0.00  0.00    -0.084 HD
ATOM     13  H   UNL     1       0.779  -1.067  -9.831  0.00  0.00    -0.084 HD
ENDBRANCH   1   2
BRANCH   1  14
ATOM     14  C   UNL     1       0.381  -4.069  -4.965  0.00  0.00    +0.138 C 
ATOM     15  S   UNL     1       0.359  -4.963  -3.505  0.00  0.00    -0.018 S 
BRANCH  14  16
ATOM     16  N   UNL     1       0.184  -2.735  -4.941  0.00  0.00    -0.297 N 
ATOM     17  H   UNL     1       0.122  -2.240  -5.772  0.00  0.00    +0.154 HD
BRANCH  16  21
ATOM     18  C   UNL     1      -0.156  -0.749  -1.308  0.00  0.00    +0.017 A 
ATOM     19  C   UNL     1       0.686  -0.246  -2.307  0.00  0.00    +0.013 A 
ATOM     20  C   UNL     1       0.795  -0.902  -3.500  0.00  0.00    +0.024 A 
ATOM     21  C   UNL     1       0.070  -2.070  -3.723  0.00  0.00    +0.033 A 
ATOM     22  C   UNL     1      -0.768  -2.574  -2.733  0.00  0.00    +0.024 A 
ATOM     23  C   UNL     1      -0.879  -1.927  -1.535  0.00  0.00    +0.013 A 
BRANCH  18  25
ATOM     24  C   UNL     1       0.502   1.220   0.218  0.00  0.00    +0.091 C 
ATOM     25  C   UNL     1      -0.277  -0.047  -0.024  0.00  0.00    +0.160 C 
ATOM     26  O   UNL     1      -1.003  -0.487   0.842  0.00  0.00    -0.292 OA
ENDBRANCH  18  25
ENDBRANCH  16  21
ENDBRANCH  14  16
ENDBRANCH   1  14
BRANCH   1  27
ATOM     27  C   UNL     1       0.702  -6.158  -6.176  0.00  0.00    +0.145 C 
BRANCH  27  28
ATOM     28  C   UNL     1      -0.664  -6.757  -6.393  0.00  0.00    +0.011 A 
ATOM     29  C   UNL     1      -1.376  -7.260  -5.321  0.00  0.00    +0.009 A 
ATOM     30  C   UNL     1      -2.629  -7.810  -5.519  0.00  0.00    +0.001 A 
ATOM     31  C   UNL     1      -3.173  -7.857  -6.789  0.00  0.00    +0.004 A 
ATOM     32  C   UNL     1      -2.466  -7.355  -7.864  0.00  0.00    +0.046 A 
ATOM     33  C   UNL     1      -1.210  -6.798  -7.667  0.00  0.00    +0.125 A 
BRANCH  33  34
ATOM     34  O   UNL     1      -0.515  -6.298  -8.722  0.00  0.00    -0.495 OA
ATOM     35  C   UNL     1      -1.139  -6.374 -10.005  0.00  0.00    +0.277 C 
ENDBRANCH  33  34
ENDBRANCH  27  28
ENDBRANCH   1  27
TORSDOF 8
