REMARK  Name = ZINC20528648
REMARK  7 active torsions:
REMARK  status: ('A' for Active; 'I' for Inactive)
REMARK    1  A    between atoms: C_4  and  C_7
REMARK    2  A    between atoms: C_8  and  C_9
REMARK    3  A    between atoms: N_14  and  C_17
REMARK    4  A    between atoms: C_20  and  N_23
REMARK    5  A    between atoms: C_24  and  C_26
REMARK    6  A    between atoms: C_27  and  C_28
REMARK    7  A    between atoms: C_32  and  N_34
REMARK                            x       y       z     vdW  Elec       q    Type
REMARK                         _______ _______ _______ _____ _____    ______ ____
ROOT
ATOM      1  C   UNL     1      -2.329  12.258  -0.178  0.00  0.00    +0.030 A 
ATOM      2  C   UNL     1      -3.545  11.594  -0.079  0.00  0.00    +0.025 A 
ATOM      3  C   UNL     1      -3.576  10.217   0.004  0.00  0.00    +0.025 A 
ATOM      4  C   UNL     1      -2.390   9.494  -0.012  0.00  0.00    +0.034 A 
ATOM      5  C   UNL     1      -1.173  10.157  -0.105  0.00  0.00    +0.025 A 
ATOM      6  C   UNL     1      -1.143  11.535  -0.194  0.00  0.00    +0.025 A 
ENDROOT
BRANCH   1  12
ATOM      7  C   UNL     1      -1.441  17.164  -2.145  0.00  0.00    +0.240 C 
ATOM      8  O   UNL     1      -0.282  17.535  -2.150  0.00  0.00    -0.271 OA
ATOM      9  N   UNL     1      -1.837  16.205  -1.285  0.00  0.00    -0.295 N 
ATOM     10  C   UNL     1      -0.915  15.675  -0.269  0.00  0.00    +0.127 C 
ATOM     11  C   UNL     1      -0.917  14.145  -0.360  0.00  0.00    +0.124 C 
ATOM     12  N   UNL     1      -2.298  13.654  -0.263  0.00  0.00    -0.327 N 
ATOM     13  C   UNL     1      -3.114  14.131  -1.388  0.00  0.00    +0.124 C 
ATOM     14  C   UNL     1      -3.202  15.660  -1.339  0.00  0.00    +0.127 C 
BRANCH   7  16
ATOM     15  C   UNL     1      -2.034  18.788  -3.861  0.00  0.00    +0.013 C 
ATOM     16  C   UNL     1      -2.405  17.760  -3.072  0.00  0.00    +0.068 C 
BRANCH  15  20
ATOM     17  C   UNL     1      -4.827  20.513  -6.548  0.00  0.00    +0.000 A 
ATOM     18  C   UNL     1      -3.536  21.008  -6.485  0.00  0.00    +0.001 A 
ATOM     19  C   UNL     1      -2.623  20.453  -5.614  0.00  0.00    +0.008 A 
ATOM     20  C   UNL     1      -3.004  19.387  -4.793  0.00  0.00    -0.025 A 
ATOM     21  C   UNL     1      -4.308  18.888  -4.867  0.00  0.00    +0.008 A 
ATOM     22  C   UNL     1      -5.212  19.458  -5.739  0.00  0.00    +0.001 A 
ENDBRANCH  15  20
ENDBRANCH   7  16
ENDBRANCH   1  12
BRANCH   4  23
ATOM     23  N   UNL     1      -2.421   8.096   0.073  0.00  0.00    -0.282 N 
ATOM     24  C   UNL     1      -3.422   7.408  -0.510  0.00  0.00    +0.241 C 
ATOM     25  O   UNL     1      -4.344   8.003  -1.036  0.00  0.00    -0.270 OA
ATOM     26  H   UNL     1      -1.627   7.561   0.615  0.00  0.00    +0.155 HD
BRANCH  24  27
ATOM     27  C   UNL     1      -3.401   5.944  -0.509  0.00  0.00    +0.068 C 
ATOM     28  C   UNL     1      -4.403   5.255  -1.092  0.00  0.00    +0.013 C 
BRANCH  28  29
ATOM     29  C   UNL     1      -4.382   3.783  -1.091  0.00  0.00    -0.023 A 
ATOM     30  C   UNL     1      -3.324   3.096  -0.488  0.00  0.00    +0.008 A 
ATOM     31  C   UNL     1      -3.314   1.717  -0.488  0.00  0.00    +0.003 A 
ATOM     32  C   UNL     1      -4.342   1.014  -1.092  0.00  0.00    +0.033 A 
ATOM     33  C   UNL     1      -5.392   1.687  -1.691  0.00  0.00    +0.127 A 
ATOM     34  C   UNL     1      -5.419   3.066  -1.695  0.00  0.00    +0.040 A 
BRANCH  33  35
ATOM     35  N   UNL     1      -6.489   0.925  -2.329  0.00  0.00    +0.056 N 
ATOM     36  O   UNL     1      -6.466  -0.293  -2.327  0.00  0.00    -0.126 OA
ATOM     37  O   UNL     1      -7.414   1.516  -2.857  0.00  0.00    -0.126 OA
ENDBRANCH  33  35
ENDBRANCH  28  29
ENDBRANCH  24  27
ENDBRANCH   4  23
TORSDOF 7
