REMARK  Name = ZINC39696162
REMARK  8 active torsions:
REMARK  status: ('A' for Active; 'I' for Inactive)
REMARK    1  A    between atoms: C_1  and  C_2
REMARK    2  A    between atoms: C_2  and  C_3
REMARK    3  A    between atoms: C_6  and  C_9
REMARK    4  A    between atoms: C_9  and  C_11
REMARK    5  A    between atoms: C_9  and  N_12
REMARK    6  A    between atoms: C_13  and  C_15
REMARK    7  A    between atoms: C_26  and  C_28
REMARK    8  A    between atoms: C_33  and  C_34
REMARK                            x       y       z     vdW  Elec       q    Type
REMARK                         _______ _______ _______ _____ _____    ______ ____
ROOT
ATOM      1  C   UNL     1       5.069  -5.448  -4.517  0.00  0.00    +0.100 C 
ATOM      2  C   UNL     1       6.321  -4.549  -4.398  0.00  0.00    +0.121 C 
ATOM      3  N   UNL     1       7.396  -5.313  -5.072  0.00  0.00    -0.296 N 
ATOM      4  C   UNL     1       6.733  -5.923  -6.250  0.00  0.00    +0.115 C 
ATOM      5  C   UNL     1       5.343  -6.347  -5.734  0.00  0.00    -0.004 C 
ATOM      6  C   UNL     1       4.288  -6.115  -6.810  0.00  0.00    -0.010 C 
ATOM      7  C   UNL     1       4.547  -7.062  -7.986  0.00  0.00    -0.082 C 
ATOM      8  N   UNL     1       4.499  -8.452  -7.516  0.00  0.00    +0.379 N 
ATOM      9  C   UNL     1       5.577  -8.692  -6.549  0.00  0.00    -0.082 C 
ATOM     10  C   UNL     1       5.361  -7.814  -5.313  0.00  0.00    -0.010 C 
ATOM     11  C   UNL     1       8.686  -5.429  -4.699  0.00  0.00    +0.247 C 
ATOM     12  O   UNL     1       9.475  -6.016  -5.413  0.00  0.00    -0.270 OA
ATOM     13  H   UNL     1       3.609  -8.626  -7.075  0.00  0.00    -0.086 HD
ATOM     14  H   UNL     1       4.610  -9.075  -8.302  0.00  0.00    -0.086 HD
ENDROOT
BRANCH  11  15
ATOM     15  C   UNL     1       9.142  -4.842  -3.421  0.00  0.00    +0.043 A 
ATOM     16  C   UNL     1       8.602  -3.636  -2.972  0.00  0.00    +0.051 A 
ATOM     17  C   UNL     1       9.031  -3.093  -1.776  0.00  0.00    +0.124 A 
ATOM     18  C   UNL     1       9.996  -3.745  -1.024  0.00  0.00    +0.038 A 
ATOM     19  C   UNL     1      10.534  -4.940  -1.465  0.00  0.00    +0.007 A 
ATOM     20  C   UNL     1      10.108  -5.495  -2.655  0.00  0.00    -0.038 A 
ATOM     21  C   UNL     1      10.692  -6.801  -3.130  0.00  0.00    +0.044 C 
ATOM     22  F   UNL     1       8.511  -1.925  -1.340  0.00  0.00    -0.205 F 
ENDBRANCH  11  15
BRANCH   1  24
ATOM     23  N   UNL     1       2.635  -5.048  -4.340  0.00  0.00    -0.308 N 
ATOM     24  C   UNL     1       3.841  -4.607  -4.751  0.00  0.00    +0.219 C 
ATOM     25  O   UNL     1       3.936  -3.535  -5.310  0.00  0.00    -0.275 OA
ATOM     26  H   UNL     1       2.558  -5.905  -3.893  0.00  0.00    +0.149 HD
BRANCH  23  27
ATOM     27  C   UNL     1       1.440  -4.231  -4.568  0.00  0.00    +0.100 C 
ATOM     28  C   UNL     1       1.293  -3.216  -3.433  0.00  0.00    +0.033 C 
BRANCH  27  32
ATOM     29  C   UNL     1      -2.006  -6.753  -4.681  0.00  0.00    -0.048 A 
ATOM     30  C   UNL     1      -1.894  -5.696  -5.565  0.00  0.00    +0.004 A 
ATOM     31  C   UNL     1      -0.779  -4.880  -5.528  0.00  0.00    +0.006 A 
ATOM     32  C   UNL     1       0.224  -5.120  -4.607  0.00  0.00    -0.027 A 
ATOM     33  C   UNL     1       0.111  -6.177  -3.723  0.00  0.00    +0.006 A 
ATOM     34  C   UNL     1      -1.006  -6.990  -3.757  0.00  0.00    +0.004 A 
BRANCH  29  36
ATOM     35  C   UNL     1      -4.298  -7.077  -3.793  0.00  0.00    +0.009 C 
ATOM     36  C   UNL     1      -3.222  -7.643  -4.722  0.00  0.00    +0.032 C 
ENDBRANCH  29  36
ENDBRANCH  27  32
ENDBRANCH  23  27
ENDBRANCH   1  24
TORSDOF 5
