REMARK  Name = ZINC67133247
REMARK  5 active torsions:
REMARK  status: ('A' for Active; 'I' for Inactive)
REMARK    1  A    between atoms: C_1  and  C_2
REMARK    2  A    between atoms: C_3  and  C_17
REMARK    3  A    between atoms: N_6  and  C_7
REMARK    4  A    between atoms: N_19  and  N_20
REMARK    5  A    between atoms: C_21  and  C_23
REMARK                            x       y       z     vdW  Elec       q    Type
REMARK                         _______ _______ _______ _____ _____    ______ ____
ROOT
ATOM      1  C   UNL     1      -0.353   1.476   0.049  0.00  0.00    +0.068 C 
ATOM      2  C   UNL     1      -0.142  -0.015   0.019  0.00  0.00    +0.074 A 
ATOM      3  C   UNL     1      -0.169  -0.820  -1.085  0.00  0.00    +0.172 A 
ATOM      4  N   UNL     1       0.065  -2.085  -0.696  0.00  0.00    -0.124 NA
ATOM      5  N   UNL     1       0.237  -2.119   0.579  0.00  0.00    -0.060 NA
ATOM      6  N   UNL     1       0.118  -0.814   1.077  0.00  0.00    -0.214 N 
ENDROOT
BRANCH   6   7
ATOM      7  C   UNL     1       0.241  -0.415   2.413  0.00  0.00    +0.093 A 
ATOM      8  C   UNL     1       1.021   0.670   2.744  0.00  0.00    +0.030 A 
ATOM      9  C   UNL     1       1.153   1.077   4.069  0.00  0.00    +0.003 A 
ATOM     10  C   UNL     1       0.514   0.413   5.072  0.00  0.00    +0.010 A 
ATOM     11  C   UNL     1      -0.290  -0.698   4.775  0.00  0.00    +0.002 A 
ATOM     12  C   UNL     1      -0.438  -1.120   3.431  0.00  0.00    +0.096 A 
ATOM     13  N   UNL     1      -1.206  -2.174   3.144  0.00  0.00    -0.253 NA
ATOM     14  C   UNL     1      -1.839  -2.832   4.085  0.00  0.00    +0.111 A 
ATOM     15  C   UNL     1      -1.742  -2.468   5.426  0.00  0.00    +0.020 A 
ATOM     16  C   UNL     1      -0.964  -1.406   5.789  0.00  0.00    +0.011 A 
ENDBRANCH   6   7
BRANCH   3  17
ATOM     17  C   UNL     1      -0.415  -0.375  -2.470  0.00  0.00    +0.282 C 
ATOM     18  O   UNL     1      -0.616   0.801  -2.704  0.00  0.00    -0.267 OA
ATOM     19  N   UNL     1      -0.416  -1.272  -3.476  0.00  0.00    -0.229 N 
ATOM     20  H   UNL     1      -0.256  -2.211  -3.289  0.00  0.00    +0.173 HD
BRANCH  19  21
ATOM     21  N   UNL     1      -0.649  -0.850  -4.791  0.00  0.00    -0.230 N 
ATOM     22  C   UNL     1      -0.651  -1.747  -5.797  0.00  0.00    +0.263 C 
ATOM     23  O   UNL     1      -0.450  -2.923  -5.563  0.00  0.00    -0.269 OA
ATOM     24  H   UNL     1      -0.810   0.088  -4.978  0.00  0.00    +0.173 HD
BRANCH  22  25
ATOM     25  C   UNL     1      -0.897  -1.302  -7.183  0.00  0.00    +0.073 A 
ATOM     26  C   UNL     1      -1.123   0.049  -7.457  0.00  0.00    +0.016 A 
ATOM     27  C   UNL     1      -1.351   0.458  -8.754  0.00  0.00    +0.001 A 
ATOM     28  C   UNL     1      -1.358  -0.466  -9.785  0.00  0.00    +0.003 A 
ATOM     29  C   UNL     1      -1.136  -1.805  -9.524  0.00  0.00    +0.039 A 
ATOM     30  C   UNL     1      -0.899  -2.230  -8.229  0.00  0.00    +0.136 A 
ATOM     31  F   UNL     1      -0.676  -3.538  -7.976  0.00  0.00    -0.205 F 
ENDBRANCH  22  25
ENDBRANCH  19  21
ENDBRANCH   3  17
TORSDOF 4
