REMARK  Name = ZINC08385057
REMARK  9 active torsions:
REMARK  status: ('A' for Active; 'I' for Inactive)
REMARK    1  A    between atoms: C_1  and  C_2
REMARK    2  A    between atoms: C_6  and  N_13
REMARK    3  A    between atoms: C_9  and  C_11
REMARK    4  A    between atoms: C_9  and  C_12
REMARK    5  A    between atoms: N_15  and  C_16
REMARK    6  A    between atoms: N_22  and  C_23
REMARK    7  A    between atoms: C_29  and  O_36
REMARK    8  A    between atoms: C_32  and  C_34
REMARK    9  A    between atoms: C_32  and  C_35
REMARK                            x       y       z     vdW  Elec       q    Type
REMARK                         _______ _______ _______ _____ _____    ______ ____
ROOT
ATOM      1  C   UNL     1       0.116   0.888   4.984  0.00  0.00    +0.011 C 
ATOM      2  C   UNL     1       0.250  -0.636   4.830  0.00  0.00    -0.025 C 
ATOM      3  C   UNL     1      -0.724  -1.065   3.758  0.00  0.00    +0.037 C 
ATOM      4  C   UNL     1      -0.363  -2.365   3.073  0.00  0.00    -0.065 C 
ATOM      5  C   UNL     1       0.781  -2.975   3.230  0.00  0.00    -0.017 C 
ATOM      6  C   UNL     1       1.108  -4.257   2.506  0.00  0.00    +0.111 C 
ATOM      7  C   UNL     1       0.114  -4.608   1.406  0.00  0.00    +0.036 C 
ATOM      8  C   UNL     1      -1.320  -4.378   1.877  0.00  0.00    -0.029 C 
ATOM      9  C   UNL     1      -1.481  -2.904   2.205  0.00  0.00    +0.037 C 
ATOM     10  C   UNL     1      -2.288  -4.742   0.737  0.00  0.00    +0.011 C 
ATOM     11  C   UNL     1      -1.644  -5.247   3.091  0.00  0.00    +0.011 C 
ATOM     12  C   UNL     1       1.809  -2.435   4.203  0.00  0.00    +0.090 C 
ATOM     13  C   UNL     1       1.674  -0.920   4.362  0.00  0.00    +0.046 C 
ATOM     14  C   UNL     1       1.631  -3.112   5.559  0.00  0.00    +0.045 C 
ATOM     15  C   UNL     1       0.395  -2.705   6.333  0.00  0.00    -0.031 C 
ATOM     16  C   UNL     1      -0.019  -1.254   6.182  0.00  0.00    +0.013 C 
ATOM     17  C   UNL     1      -0.786  -3.621   5.980  0.00  0.00    +0.011 C 
ATOM     18  C   UNL     1       0.694  -2.939   7.836  0.00  0.00    +0.011 C 
ENDROOT
BRANCH   6  19
ATOM     19  N   UNL     1       2.415  -4.177   1.837  0.00  0.00    -0.351 N 
ATOM     20  C   UNL     1       3.088  -5.265   1.588  0.00  0.00    +0.181 C 
ATOM     21  N   UNL     1       4.350  -5.186   1.045  0.00  0.00    -0.327 N 
ATOM     22  N   UNL     1       2.535  -6.495   1.869  0.00  0.00    -0.327 N 
ATOM     23  H   UNL     1       4.875  -5.991   0.918  0.00  0.00    +0.169 HD
ATOM     24  H   UNL     1       1.612  -6.557   2.160  0.00  0.00    +0.169 HD
ATOM     25  H   UNL     1       2.777  -3.314   1.580  0.00  0.00    +0.163 HD
BRANCH  21  26
ATOM     26  C   UNL     1       4.875  -3.943   0.676  0.00  0.00    +0.042 A 
ATOM     27  C   UNL     1       4.087  -3.031  -0.013  0.00  0.00    +0.026 A 
ATOM     28  C   UNL     1       4.608  -1.805  -0.376  0.00  0.00    +0.002 A 
ATOM     29  C   UNL     1       5.914  -1.484  -0.054  0.00  0.00    +0.000 A 
ATOM     30  C   UNL     1       6.702  -2.390   0.632  0.00  0.00    +0.002 A 
ATOM     31  C   UNL     1       6.185  -3.616   1.002  0.00  0.00    +0.026 A 
ENDBRANCH  21  26
BRANCH  22  32
ATOM     32  C   UNL     1       3.306  -7.654   1.735  0.00  0.00    +0.042 A 
ATOM     33  C   UNL     1       4.585  -7.707   2.274  0.00  0.00    +0.026 A 
ATOM     34  C   UNL     1       5.343  -8.854   2.141  0.00  0.00    +0.002 A 
ATOM     35  C   UNL     1       4.830  -9.949   1.470  0.00  0.00    +0.000 A 
ATOM     36  C   UNL     1       3.557  -9.900   0.932  0.00  0.00    +0.002 A 
ATOM     37  C   UNL     1       2.792  -8.758   1.067  0.00  0.00    +0.026 A 
ENDBRANCH  22  32
ENDBRANCH   6  19
BRANCH  12  38
ATOM     38  O   UNL     1       3.155  -2.675   3.761  0.00  0.00    -0.384 OA
ATOM     39  H   UNL     1       3.833  -2.341   4.364  0.00  0.00    +0.211 HD
ENDBRANCH  12  38
TORSDOF 4
