REMARK  Name = ZINC16604742
REMARK  4 active torsions:
REMARK  status: ('A' for Active; 'I' for Inactive)
REMARK    1  A    between atoms: C_7  and  C_10
REMARK    2  A    between atoms: N_12  and  C_13
REMARK    3  A    between atoms: C_16  and  S_19
REMARK    4  A    between atoms: S_19  and  N_22
REMARK                            x       y       z     vdW  Elec       q    Type
REMARK                         _______ _______ _______ _____ _____    ______ ____
ROOT
ATOM      1  C   UNL     1      -0.014   1.213   0.007  0.00  0.00    +0.249 C 
ATOM      2  O   UNL     1       0.002  -0.004  -0.009  0.00  0.00    -0.270 OA
ATOM      3  N   UNL     1      -1.191   1.871   0.018  0.00  0.00    -0.281 N 
ATOM      4  H   UNL     1      -1.205   2.837   0.098  0.00  0.00    +0.155 HD
ENDROOT
BRANCH   1  11
ATOM      5  C   UNL     1       4.094  -0.577  -0.047  0.00  0.00    +0.001 A 
ATOM      6  C   UNL     1       5.171   0.298  -0.044  0.00  0.00    +0.001 A 
ATOM      7  C   UNL     1       4.942   1.660  -0.025  0.00  0.00    +0.015 A 
ATOM      8  C   UNL     1       3.647   2.133  -0.009  0.00  0.00    +0.020 A 
ATOM      9  C   UNL     1       2.536   1.269  -0.005  0.00  0.00    +0.001 A 
ATOM     10  C   UNL     1       2.802  -0.116  -0.031  0.00  0.00    +0.010 A 
ATOM     11  C   UNL     1       1.247   1.964   0.007  0.00  0.00    +0.052 A 
ATOM     12  C   UNL     1       1.249   3.324   0.025  0.00  0.00    +0.059 A 
ATOM     13  S   UNL     1       2.926   3.753   0.018  0.00  0.00    -0.096 S 
ENDBRANCH   1  11
BRANCH   3  14
ATOM     14  C   UNL     1      -2.390   1.160  -0.086  0.00  0.00    +0.034 A 
ATOM     15  C   UNL     1      -3.468   1.708  -0.769  0.00  0.00    +0.025 A 
ATOM     16  C   UNL     1      -4.649   1.001  -0.875  0.00  0.00    +0.030 A 
ATOM     17  C   UNL     1      -4.764  -0.247  -0.291  0.00  0.00    +0.105 A 
ATOM     18  C   UNL     1      -3.695  -0.794   0.395  0.00  0.00    +0.030 A 
ATOM     19  C   UNL     1      -2.509  -0.094   0.499  0.00  0.00    +0.025 A 
BRANCH  17  20
ATOM     20  S   UNL     1      -6.276  -1.143  -0.422  0.00  0.00    +0.056 S 
ATOM     21  O   UNL     1      -6.941  -0.651  -1.577  0.00  0.00    -0.153 OA
ATOM     22  O   UNL     1      -5.949  -2.516  -0.258  0.00  0.00    -0.153 OA
BRANCH  20  23
ATOM     23  N   UNL     1      -7.210  -0.720   0.878  0.00  0.00    -0.204 NA
ATOM     24  H   UNL     1      -6.876  -0.082   1.528  0.00  0.00    +0.144 HD
ATOM     25  H   UNL     1      -8.091  -1.109   0.990  0.00  0.00    +0.144 HD
ENDBRANCH  20  23
ENDBRANCH  17  20
ENDBRANCH   3  14
TORSDOF 4
