REMARK  Name = ZINC39687269
REMARK  10 active torsions:
REMARK  status: ('A' for Active; 'I' for Inactive)
REMARK    1  A    between atoms: C_1  and  C_2
REMARK    2  A    between atoms: C_2  and  C_3
REMARK    3  A    between atoms: C_3  and  C_4
REMARK    4  A    between atoms: C_3  and  C_6
REMARK    5  A    between atoms: C_4  and  C_5
REMARK    6  A    between atoms: C_10  and  C_19
REMARK    7  A    between atoms: N_21  and  C_22
REMARK    8  A    between atoms: C_22  and  C_24
REMARK    9  A    between atoms: C_22  and  C_31
REMARK   10  A    between atoms: C_24  and  C_25
REMARK                            x       y       z     vdW  Elec       q    Type
REMARK                         _______ _______ _______ _____ _____    ______ ____
ROOT
ATOM      1  C   UNL     1       4.322  -2.653  -2.978  0.00  0.00    +0.219 C 
ATOM      2  O   UNL     1       5.386  -2.550  -3.551  0.00  0.00    -0.275 OA
ATOM      3  N   UNL     1       4.170  -2.135  -1.743  0.00  0.00    -0.303 N 
ATOM      4  H   UNL     1       3.318  -2.217  -1.284  0.00  0.00    +0.149 HD
ENDROOT
BRANCH   1   9
ATOM      5  C   UNL     1       0.526  -2.400  -1.367  0.00  0.00    +0.219 C 
ATOM      6  O   UNL     1      -0.050  -3.004  -0.487  0.00  0.00    -0.275 OA
ATOM      7  N   UNL     1       1.195  -3.075  -2.323  0.00  0.00    -0.300 N 
ATOM      8  C   UNL     1       1.878  -2.523  -3.516  0.00  0.00    +0.121 C 
ATOM      9  C   UNL     1       3.171  -3.359  -3.647  0.00  0.00    +0.100 C 
ATOM     10  C   UNL     1       2.859  -4.681  -2.926  0.00  0.00    -0.004 C 
ATOM     11  C   UNL     1       1.418  -4.538  -2.414  0.00  0.00    +0.115 C 
ATOM     12  C   UNL     1       3.812  -4.880  -1.752  0.00  0.00    -0.010 C 
ATOM     13  C   UNL     1       3.518  -6.228  -1.086  0.00  0.00    -0.082 C 
ATOM     14  N   UNL     1       3.686  -7.307  -2.067  0.00  0.00    +0.379 N 
ATOM     15  C   UNL     1       2.702  -7.159  -3.147  0.00  0.00    -0.082 C 
ATOM     16  C   UNL     1       2.961  -5.851  -3.899  0.00  0.00    -0.010 C 
ATOM     17  H   UNL     1       4.617  -7.267  -2.454  0.00  0.00    -0.086 HD
ATOM     18  H   UNL     1       3.552  -8.197  -1.611  0.00  0.00    -0.086 HD
BRANCH   5  19
ATOM     19  C   UNL     1       0.494  -0.893  -1.392  0.00  0.00    +0.075 C 
BRANCH  19  21
ATOM     20  C   UNL     1      -0.372   1.104  -2.619  0.00  0.00    +0.004 C 
ATOM     21  C   UNL     1      -0.435  -0.421  -2.513  0.00  0.00    +0.009 C 
ENDBRANCH  19  21
BRANCH  19  22
ATOM     22  C   UNL     1      -0.023  -0.372  -0.049  0.00  0.00    +0.009 C 
ATOM     23  C   UNL     1       0.972  -0.736   1.055  0.00  0.00    +0.004 C 
ENDBRANCH  19  22
ENDBRANCH   5  19
ENDBRANCH   1   9
BRANCH   3  24
ATOM     24  C   UNL     1       5.289  -1.449  -1.092  0.00  0.00    +0.163 C 
BRANCH  24  25
ATOM     25  C   UNL     1       5.115  -1.512   0.403  0.00  0.00    +0.236 C 
ATOM     26  O   UNL     1       4.008  -1.645   0.880  0.00  0.00    -0.274 OA
ATOM     27  N   UNL     1       6.190  -1.419   1.211  0.00  0.00    -0.300 N 
ATOM     28  C   UNL     1       7.519  -1.124   0.657  0.00  0.00    +0.108 C 
ATOM     29  C   UNL     1       8.104   0.084   1.396  0.00  0.00    +0.019 C 
ATOM     30  C   UNL     1       8.097  -0.191   2.901  0.00  0.00    +0.003 C 
ATOM     31  C   UNL     1       6.657  -0.398   3.377  0.00  0.00    +0.019 C 
ATOM     32  C   UNL     1       6.055  -1.606   2.662  0.00  0.00    +0.108 C 
ENDBRANCH  24  25
BRANCH  24  33
ATOM     33  C   UNL     1       5.321   0.013  -1.541  0.00  0.00    +0.067 C 
BRANCH  33  34
ATOM     34  C   UNL     1       5.624   0.079  -3.016  0.00  0.00    -0.045 A 
ATOM     35  C   UNL     1       6.934   0.152  -3.450  0.00  0.00    +0.004 A 
ATOM     36  C   UNL     1       7.212   0.213  -4.803  0.00  0.00    +0.000 A 
ATOM     37  C   UNL     1       6.180   0.200  -5.722  0.00  0.00    +0.000 A 
ATOM     38  C   UNL     1       4.869   0.125  -5.288  0.00  0.00    +0.000 A 
ATOM     39  C   UNL     1       4.592   0.060  -3.935  0.00  0.00    +0.004 A 
ENDBRANCH  33  34
ENDBRANCH  24  33
ENDBRANCH   3  24
TORSDOF 8
