REMARK  Name = ZINC25336415
REMARK  8 active torsions:
REMARK  status: ('A' for Active; 'I' for Inactive)
REMARK    1  A    between atoms: C_1  and  C_2
REMARK    2  A    between atoms: C_2  and  C_3
REMARK    3  A    between atoms: C_2  and  C_4
REMARK    4  A    between atoms: C_4  and  C_6
REMARK    5  A    between atoms: C_4  and  N_22
REMARK    6  A    between atoms: N_8  and  N_9
REMARK    7  A    between atoms: C_10  and  C_12
REMARK    8  A    between atoms: N_25  and  C_26
REMARK                            x       y       z     vdW  Elec       q    Type
REMARK                         _______ _______ _______ _____ _____    ______ ____
ROOT
ATOM      1  C   UNL     1       1.174   1.580  -0.117  0.00  0.00    +0.250 C 
ATOM      2  O   UNL     1       1.144   2.792  -0.156  0.00  0.00    -0.272 OA
ATOM      3  N   UNL     1       0.026   0.875  -0.178  0.00  0.00    -0.233 N 
ATOM      4  H   UNL     1       0.058  -0.224  -0.224  0.00  0.00    +0.173 HD
ENDROOT
BRANCH   3   5
ATOM      5  N   UNL     1      -1.206   1.542  -0.182  0.00  0.00    -0.234 N 
ATOM      6  C   UNL     1      -2.353   0.838  -0.248  0.00  0.00    +0.235 C 
ATOM      7  O   UNL     1      -2.318  -0.374  -0.305  0.00  0.00    -0.274 OA
ATOM      8  H   UNL     1      -1.237   2.640  -0.131  0.00  0.00    +0.173 HD
BRANCH   6   9
ATOM      9  C   UNL     1      -3.678   1.555  -0.253  0.00  0.00    +0.049 C 
ATOM     10  C   UNL     1      -3.820   2.372   1.033  0.00  0.00    +0.019 C 
ATOM     11  C   UNL     1      -5.166   3.100   1.029  0.00  0.00    -0.009 C 
ATOM     12  C   UNL     1      -6.300   2.076   0.947  0.00  0.00    +0.007 C 
ATOM     13  C   UNL     1      -6.158   1.259  -0.338  0.00  0.00    -0.009 C 
ATOM     14  C   UNL     1      -4.812   0.530  -0.334  0.00  0.00    +0.019 C 
ATOM     15  C   UNL     1      -6.228   2.194  -1.547  0.00  0.00    +0.007 C 
ATOM     16  C   UNL     1      -5.094   3.218  -1.466  0.00  0.00    -0.009 C 
ATOM     17  C   UNL     1      -5.236   4.035  -0.180  0.00  0.00    +0.007 C 
ATOM     18  C   UNL     1      -3.748   2.490  -1.462  0.00  0.00    +0.019 C 
ENDBRANCH   6   9
ENDBRANCH   3   5
BRANCH   1  19
ATOM     19  C   UNL     1       2.494   0.862  -0.000  0.00  0.00    +0.164 C 
BRANCH  19  20
ATOM     20  N   UNL     1       3.582   1.782  -0.341  0.00  0.00    -0.288 N 
ATOM     21  C   UNL     1       4.755   1.299  -0.797  0.00  0.00    +0.304 C 
ATOM     22  O   UNL     1       4.910   0.100  -0.925  0.00  0.00    -0.252 OA
ATOM     23  N   UNL     1       5.755   2.145  -1.110  0.00  0.00    -0.269 N 
ATOM     24  H   UNL     1       3.441   2.867  -0.225  0.00  0.00    +0.151 HD
ATOM     25  H   UNL     1       5.651   3.221  -0.905  0.00  0.00    +0.156 HD
BRANCH  23  26
ATOM     26  C   UNL     1       6.928   1.656  -1.698  0.00  0.00    +0.035 A 
ATOM     27  C   UNL     1       8.151   2.243  -1.403  0.00  0.00    +0.023 A 
ATOM     28  C   UNL     1       9.307   1.754  -1.980  0.00  0.00    +0.002 A 
ATOM     29  C   UNL     1       9.245   0.688  -2.859  0.00  0.00    +0.000 A 
ATOM     30  C   UNL     1       8.028   0.105  -3.159  0.00  0.00    +0.002 A 
ATOM     31  C   UNL     1       6.869   0.585  -2.580  0.00  0.00    +0.023 A 
ENDBRANCH  23  26
ENDBRANCH  19  20
BRANCH  19  33
ATOM     32  C   UNL     1       1.610  -0.686   1.751  0.00  0.00    +0.009 C 
ATOM     33  C   UNL     1       2.678   0.363   1.435  0.00  0.00    +0.012 C 
ATOM     34  C   UNL     1       4.066  -0.262   1.583  0.00  0.00    +0.009 C 
ENDBRANCH  19  33
ENDBRANCH   1  19
TORSDOF 6
