REMARK  Name = ZINC39237607
REMARK  4 active torsions:
REMARK  status: ('A' for Active; 'I' for Inactive)
REMARK    1  A    between atoms: C_1  and  C_2
REMARK    2  A    between atoms: C_4  and  C_32
REMARK    3  A    between atoms: C_16  and  C_19
REMARK    4  A    between atoms: C_24  and  C_25
REMARK                            x       y       z     vdW  Elec       q    Type
REMARK                         _______ _______ _______ _____ _____    ______ ____
ROOT
ATOM      1  C   UNL     1       1.103   1.684  -0.123  0.00  0.00    +0.044 C 
ATOM      2  C   UNL     1       1.240   0.186  -0.208  0.00  0.00    -0.041 A 
ATOM      3  C   UNL     1       1.549  -0.421  -1.413  0.00  0.00    +0.036 A 
ATOM      4  C   UNL     1       1.670  -1.794  -1.481  0.00  0.00    +0.145 A 
ATOM      5  N   UNL     1       1.478  -2.529  -0.400  0.00  0.00    -0.236 NA
ATOM      6  C   UNL     1       1.174  -1.984   0.761  0.00  0.00    +0.103 A 
ATOM      7  C   UNL     1       1.063  -0.603   0.929  0.00  0.00    +0.006 A 
ATOM      8  C   UNL     1       0.789  -0.121   2.339  0.00  0.00    +0.110 C 
ATOM      9  C   UNL     1       0.147  -1.229   3.180  0.00  0.00    +0.160 C 
ATOM     10  S   UNL     1       0.824  -2.709   2.350  0.00  0.00    -0.091 S 
ATOM     11  C   UNL     1       0.519  -1.179   4.619  0.00  0.00    +0.229 C 
ATOM     12  O   UNL     1       0.035  -2.004   5.364  0.00  0.00    -0.274 OA
ATOM     13  N   UNL     1       1.356  -0.275   5.138  0.00  0.00    -0.298 N 
ATOM     14  C   UNL     1       1.959   0.767   4.320  0.00  0.00    +0.156 C 
ATOM     15  N   UNL     1       2.035   0.359   2.915  0.00  0.00    -0.289 NA
ATOM     16  H   UNL     1       1.567  -0.314   6.084  0.00  0.00    +0.150 HD
ATOM     17  H   UNL     1       2.790  -0.283   2.730  0.00  0.00    +0.124 HD
ENDROOT
BRANCH  14  18
ATOM     18  C   UNL     1       1.132   2.047   4.454  0.00  0.00    +0.118 C 
ATOM     19  C   UNL     1       1.728   3.159   3.614  0.00  0.00    +0.120 C 
ATOM     20  N   UNL     1       2.055   4.098   4.441  0.00  0.00    -0.161 NA
ATOM     21  N   UNL     1       1.758   3.773   5.761  0.00  0.00    -0.153 NA
ATOM     22  C   UNL     1       1.212   2.589   5.868  0.00  0.00    +0.082 C 
BRANCH  22  23
ATOM     23  C   UNL     1       0.767   1.920   7.101  0.00  0.00    -0.001 A 
ATOM     24  C   UNL     1       1.427   2.165   8.310  0.00  0.00    +0.011 A 
ATOM     25  C   UNL     1       1.005   1.536   9.461  0.00  0.00    +0.016 A 
ATOM     26  C   UNL     1      -0.069   0.662   9.423  0.00  0.00    +0.018 A 
ATOM     27  C   UNL     1      -0.727   0.415   8.229  0.00  0.00    +0.016 A 
ATOM     28  C   UNL     1      -0.320   1.041   7.071  0.00  0.00    +0.011 A 
ATOM     29 BR   UNL     1      -0.640  -0.197  11.008  0.00  0.00    -0.050 Br
ENDBRANCH  22  23
ENDBRANCH  14  18
BRANCH   4  30
ATOM     30  C   UNL     1       2.022  -2.456  -2.788  0.00  0.00    +0.434 C 
ATOM     31  F   UNL     1       3.413  -2.562  -2.898  0.00  0.00    -0.164 F 
ATOM     32  F   UNL     1       1.452  -3.733  -2.833  0.00  0.00    -0.164 F 
ATOM     33  F   UNL     1       1.528  -1.687  -3.848  0.00  0.00    -0.164 F 
ENDBRANCH   4  30
TORSDOF 3
