REMARK  Name = ZINC08828659
REMARK  7 active torsions:
REMARK  status: ('A' for Active; 'I' for Inactive)
REMARK    1  A    between atoms: C_1  and  C_2
REMARK    2  A    between atoms: C_2  and  O_3
REMARK    3  A    between atoms: O_3  and  C_4
REMARK    4  A    between atoms: C_14  and  C_16
REMARK    5  A    between atoms: C_16  and  N_17
REMARK    6  A    between atoms: C_20  and  N_23
REMARK    7  A    between atoms: C_27  and  C_32
REMARK                            x       y       z     vdW  Elec       q    Type
REMARK                         _______ _______ _______ _____ _____    ______ ____
ROOT
ATOM      1  N   UNL     1       1.346 -11.020  -2.174  0.00  0.00    +0.386 N 
ATOM      2  C   UNL     1      -0.116 -10.892  -2.139  0.00  0.00    -0.076 C 
ATOM      3  C   UNL     1      -0.687 -11.820  -1.064  0.00  0.00    +0.008 C 
ATOM      4  C   UNL     1      -0.307 -13.267  -1.391  0.00  0.00    +0.106 C 
ATOM      5  C   UNL     1       1.217 -13.372  -1.499  0.00  0.00    +0.008 C 
ATOM      6  C   UNL     1       1.717 -12.387  -2.558  0.00  0.00    -0.076 C 
ATOM      7  H   UNL     1       1.721 -10.814  -1.260  0.00  0.00    -0.081 HD
ENDROOT
BRANCH   4   8
ATOM      8  N   UNL     1      -0.786 -14.152  -0.327  0.00  0.00    -0.241 N 
ATOM      9  C   UNL     1      -1.667 -15.198  -0.461  0.00  0.00    +0.089 A 
ATOM     10  C   UNL     1      -2.359 -15.748  -1.535  0.00  0.00    +0.030 A 
ATOM     11  C   UNL     1      -3.184 -16.818  -1.336  0.00  0.00    +0.014 A 
ATOM     12  C   UNL     1      -3.341 -17.363  -0.068  0.00  0.00    +0.057 A 
ATOM     13  C   UNL     1      -2.674 -16.843   1.002  0.00  0.00    +0.044 A 
ATOM     14  C   UNL     1      -1.821 -15.745   0.825  0.00  0.00    +0.113 A 
ATOM     15  N   UNL     1      -1.049 -15.032   1.668  0.00  0.00    -0.129 NA
ATOM     16  N   UNL     1      -0.430 -14.102   1.029  0.00  0.00    -0.064 NA
BRANCH  12  17
ATOM     17  C   UNL     1      -4.258 -18.543   0.128  0.00  0.00    +0.417 C 
ATOM     18  F   UNL     1      -4.827 -18.900  -1.099  0.00  0.00    -0.166 F 
ATOM     19  F   UNL     1      -3.527 -19.623   0.634  0.00  0.00    -0.166 F 
ATOM     20  F   UNL     1      -5.271 -18.202   1.030  0.00  0.00    -0.166 F 
ENDBRANCH  12  17
ENDBRANCH   4   8
BRANCH   1  21
ATOM     21  C   UNL     1       1.895 -10.072  -3.152  0.00  0.00    +0.019 C 
BRANCH  21  32
ATOM     22  C   UNL     1       0.777  -1.811  -1.336  0.00  0.00    +0.122 A 
ATOM     23  C   UNL     1       0.244  -2.679  -0.388  0.00  0.00    +0.048 A 
ATOM     24  C   UNL     1       0.338  -4.038  -0.530  0.00  0.00    +0.032 A 
ATOM     25  C   UNL     1       0.985  -4.606  -1.652  0.00  0.00    +0.081 A 
ATOM     26  C   UNL     1       1.515  -3.696  -2.595  0.00  0.00    +0.044 A 
ATOM     27  C   UNL     1       1.412  -2.335  -2.452  0.00  0.00    +0.063 A 
ATOM     28  S   UNL     1       2.220  -4.782  -3.812  0.00  0.00    -0.052 S 
ATOM     29  C   UNL     1       1.783  -6.323  -3.019  0.00  0.00    +0.165 A 
ATOM     30  N   UNL     1       1.161  -5.915  -1.938  0.00  0.00    -0.225 NA
ATOM     31  N   UNL     1       2.035  -7.619  -3.440  0.00  0.00    -0.266 N 
ATOM     32  C   UNL     1       1.620  -8.662  -2.695  0.00  0.00    +0.202 C 
ATOM     33  O   UNL     1       1.025  -8.467  -1.656  0.00  0.00    -0.277 OA
ATOM     34  H   UNL     1       2.511  -7.775  -4.271  0.00  0.00    +0.157 HD
BRANCH  22  35
ATOM     35  O   UNL     1       0.671  -0.465  -1.174  0.00  0.00    -0.492 OA
BRANCH  35  37
ATOM     36  C   UNL     1      -0.019   1.526   0.010  0.00  0.00    +0.048 C 
ATOM     37  C   UNL     1       0.002  -0.004   0.002  0.00  0.00    +0.225 C 
ENDBRANCH  35  37
ENDBRANCH  22  35
ENDBRANCH  21  32
ENDBRANCH   1  21
TORSDOF 6
