REMARK  Name = ZINC65421334
REMARK  6 active torsions:
REMARK  status: ('A' for Active; 'I' for Inactive)
REMARK    1  A    between atoms: C_1  and  C_2
REMARK    2  A    between atoms: C_4  and  C_8
REMARK    3  A    between atoms: C_8  and  C_10
REMARK    4  A    between atoms: C_8  and  N_11
REMARK    5  A    between atoms: C_14  and  C_27
REMARK    6  A    between atoms: C_16  and  C_18
REMARK                            x       y       z     vdW  Elec       q    Type
REMARK                         _______ _______ _______ _____ _____    ______ ____
ROOT
ATOM      1  N   UNL     1      -3.629   3.890  -3.758  0.00  0.00    +0.400 N 
ATOM      2  C   UNL     1      -4.990   4.345  -4.142  0.00  0.00    +0.007 C 
ATOM      3  N   UNL     1      -4.829   5.805  -4.362  0.00  0.00    -0.327 NA
ATOM      4  C   UNL     1      -3.895   6.239  -3.296  0.00  0.00    +0.073 C 
ATOM      5  C   UNL     1      -3.105   4.978  -2.898  0.00  0.00    -0.013 C 
ATOM      6  H   UNL     1      -4.446   5.992  -5.276  0.00  0.00    +0.120 HD
ATOM      7  H   UNL     1      -3.050   3.778  -4.576  0.00  0.00    -0.078 HD
ENDROOT
BRANCH   5   8
ATOM      8  C   UNL     1      -1.634   5.182  -3.155  0.00  0.00    -0.058 A 
ATOM      9  C   UNL     1      -1.146   5.123  -4.453  0.00  0.00    +0.006 A 
ATOM     10  C   UNL     1       0.196   5.306  -4.709  0.00  0.00    +0.047 A 
ATOM     11  C   UNL     1       1.072   5.554  -3.660  0.00  0.00    +0.135 A 
ATOM     12  C   UNL     1       0.572   5.613  -2.348  0.00  0.00    +0.020 A 
ATOM     13  C   UNL     1      -0.789   5.430  -2.109  0.00  0.00    +0.013 A 
ATOM     14  C   UNL     1       1.736   5.885  -1.497  0.00  0.00    +0.049 A 
ATOM     15  C   UNL     1       2.791   5.964  -2.320  0.00  0.00    +0.196 A 
ATOM     16  O   UNL     1       2.401   5.769  -3.592  0.00  0.00    -0.463 OA
ENDBRANCH   5   8
BRANCH   4  17
ATOM     17  C   UNL     1      -2.960   7.297  -3.821  0.00  0.00    -0.032 A 
ATOM     18  C   UNL     1      -2.467   7.206  -5.110  0.00  0.00    +0.005 A 
ATOM     19  C   UNL     1      -1.609   8.177  -5.592  0.00  0.00    +0.000 A 
ATOM     20  C   UNL     1      -1.245   9.239  -4.786  0.00  0.00    +0.000 A 
ATOM     21  C   UNL     1      -1.738   9.331  -3.498  0.00  0.00    +0.000 A 
ATOM     22  C   UNL     1      -2.599   8.362  -3.017  0.00  0.00    +0.005 A 
ENDBRANCH   4  17
BRANCH   1  23
ATOM     23  C   UNL     1      -3.702   2.631  -3.005  0.00  0.00    +0.002 C 
ATOM     24  C   UNL     1      -4.245   1.525  -3.912  0.00  0.00    -0.005 C 
BRANCH  23  28
ATOM     25  C   UNL     1      -0.013   1.086   0.008  0.00  0.00    +0.087 C 
ATOM     26  C   UNL     1      -0.742   1.585  -1.213  0.00  0.00    +0.122 A 
ATOM     27  N   UNL     1      -2.025   1.824  -1.297  0.00  0.00    -0.218 NA
ATOM     28  C   UNL     1      -2.325   2.254  -2.522  0.00  0.00    +0.138 A 
ATOM     29  H   UNL     1       0.752   1.791  -2.640  0.00  0.00    +0.190 HD
ATOM     30  N   UNL     1      -1.232   2.294  -3.238  0.00  0.00    -0.159 NA
ATOM     31  N   UNL     1      -0.185   1.868  -2.404  0.00  0.00    -0.263 N 
ENDBRANCH  23  28
ENDBRANCH   1  23
TORSDOF 4
