REMARK  Name = ZINC19418704
REMARK  8 active torsions:
REMARK  status: ('A' for Active; 'I' for Inactive)
REMARK    1  A    between atoms: C_2  and  C_3
REMARK    2  A    between atoms: C_3  and  O_4
REMARK    3  A    between atoms: O_4  and  C_5
REMARK    4  A    between atoms: C_8  and  N_9
REMARK    5  A    between atoms: N_9  and  C_10
REMARK    6  A    between atoms: C_17  and  S_19
REMARK    7  A    between atoms: S_19  and  C_20
REMARK    8  A    between atoms: C_20  and  C_21
REMARK                            x       y       z     vdW  Elec       q    Type
REMARK                         _______ _______ _______ _____ _____    ______ ____
ROOT
ATOM      1  C   UNL     1      -1.208  -1.957  -0.656  0.00  0.00    +0.345 C 
ATOM      2  C   UNL     1      -0.008  -2.802  -0.308  0.00  0.00    +0.081 C 
ATOM      3  C   UNL     1      -0.110  -4.149  -0.239  0.00  0.00    +0.085 C 
ATOM      4  C   UNL     1       1.231  -2.157  -0.056  0.00  0.00    +0.200 C 
ATOM      5  O   UNL     1       2.253  -2.795   0.124  0.00  0.00    -0.287 OA
ATOM      6  C   UNL     1       1.231  -0.677  -0.018  0.00  0.00    +0.065 A 
ATOM      7  C   UNL     1       2.423   0.042  -0.016  0.00  0.00    +0.035 A 
ATOM      8  C   UNL     1       2.387   1.423  -0.007  0.00  0.00    +0.042 A 
ATOM      9  C   UNL     1       1.170   2.088   0.002  0.00  0.00    +0.023 A 
ATOM     10  C   UNL     1      -0.017   1.382   0.010  0.00  0.00    +0.048 A 
ATOM     11  C   UNL     1       0.002  -0.004   0.002  0.00  0.00    +0.135 A 
ATOM     12  O   UNL     1      -1.154  -0.710   0.033  0.00  0.00    -0.458 OA
ATOM     13 CL   UNL     1       3.868   2.328  -0.007  0.00  0.00    -0.084 Cl
ENDROOT
BRANCH   3  14
ATOM     14  N   UNL     1      -1.309  -4.756  -0.484  0.00  0.00    -0.320 N 
ATOM     15  H   UNL     1      -2.191  -4.150  -0.738  0.00  0.00    +0.152 HD
BRANCH  14  16
ATOM     16  C   UNL     1      -1.415  -6.149  -0.412  0.00  0.00    +0.032 A 
ATOM     17  C   UNL     1      -0.302  -6.926  -0.096  0.00  0.00    +0.025 A 
ATOM     18  C   UNL     1      -0.380  -8.281  -0.014  0.00  0.00    +0.031 A 
ATOM     19  C   UNL     1      -1.598  -8.956  -0.259  0.00  0.00    +0.080 A 
ATOM     20  C   UNL     1      -2.709  -8.144  -0.583  0.00  0.00    +0.042 A 
ATOM     21  C   UNL     1      -2.630  -6.777  -0.660  0.00  0.00    +0.040 A 
ATOM     22  S   UNL     1      -4.002  -9.342  -0.809  0.00  0.00    -0.061 S 
ATOM     23  C   UNL     1      -3.021 -10.798  -0.472  0.00  0.00    +0.136 A 
ATOM     24  N   UNL     1      -1.836 -10.286  -0.223  0.00  0.00    -0.233 NA
BRANCH  23  25
ATOM     25  S   UNL     1      -3.517 -12.488  -0.472  0.00  0.00    -0.087 S 
BRANCH  25  26
ATOM     26  C   UNL     1      -1.945 -13.277  -0.040  0.00  0.00    +0.201 C 
BRANCH  26  27
ATOM     27  C   UNL     1      -2.133 -14.771   0.020  0.00  0.00    +0.366 C 
ATOM     28  O   UNL     1      -3.217 -15.253  -0.206  0.00  0.00    -0.245 OA
ATOM     29  O   UNL     1      -1.095 -15.566   0.325  0.00  0.00    -0.245 OA
ENDBRANCH  26  27
ENDBRANCH  25  26
ENDBRANCH  23  25
ENDBRANCH  14  16
ENDBRANCH   3  14
BRANCH   1  30
ATOM     30  O   UNL     1      -1.227  -1.719  -2.065  0.00  0.00    -0.334 OA
BRANCH  30  31
ATOM     31  C   UNL     1      -2.397  -1.039  -2.524  0.00  0.00    +0.191 C 
BRANCH  31  33
ATOM     32  C   UNL     1      -3.351  -1.093  -4.771  0.00  0.00    +0.006 C 
ATOM     33  C   UNL     1      -2.311  -0.841  -4.015  0.00  0.00    -0.007 C 
ENDBRANCH  31  33
ENDBRANCH  30  31
ENDBRANCH   1  30
TORSDOF 8
