REMARK  Name = ZINC45840892
REMARK  5 active torsions:
REMARK  status: ('A' for Active; 'I' for Inactive)
REMARK    1  A    between atoms: C_8  and  C_10
REMARK    2  A    between atoms: C_14  and  N_16
REMARK    3  A    between atoms: C_17  and  C_19
REMARK    4  A    between atoms: C_19  and  N_20
REMARK    5  A    between atoms: C_21  and  C_26
REMARK                            x       y       z     vdW  Elec       q    Type
REMARK                         _______ _______ _______ _____ _____    ______ ____
ROOT
ATOM      1  N   UNL     1       6.657  -5.905  -0.238  0.00  0.00    -0.284 N 
ATOM      2  C   UNL     1       6.800  -7.242  -0.139  0.00  0.00    +0.237 C 
ATOM      3  O   UNL     1       5.842  -7.968  -0.304  0.00  0.00    -0.274 OA
ATOM      4  H   UNL     1       7.436  -5.329  -0.182  0.00  0.00    +0.155 HD
ENDROOT
BRANCH   1   9
ATOM      5  C   UNL     1       3.012  -5.396  -0.042  0.00  0.00    +0.009 A 
ATOM      6  C   UNL     1       2.873  -4.230  -0.796  0.00  0.00    +0.010 A 
ATOM      7  C   UNL     1       3.985  -3.634  -1.355  0.00  0.00    +0.002 A 
ATOM      8  C   UNL     1       5.238  -4.188  -1.171  0.00  0.00    +0.023 A 
ATOM      9  C   UNL     1       5.387  -5.348  -0.422  0.00  0.00    +0.034 A 
ATOM     10  C   UNL     1       4.276  -5.952   0.148  0.00  0.00    +0.033 A 
BRANCH   5  18
ATOM     11  C   UNL     1      -2.690  -6.863   1.761  0.00  0.00    +0.002 A 
ATOM     12  C   UNL     1      -2.268  -7.989   2.454  0.00  0.00    +0.001 A 
ATOM     13  C   UNL     1      -0.923  -8.308   2.474  0.00  0.00    +0.017 A 
ATOM     14  C   UNL     1      -0.029  -7.506   1.808  0.00  0.00    +0.040 A 
ATOM     15  C   UNL     1      -0.428  -6.351   1.093  0.00  0.00    +0.079 A 
ATOM     16  C   UNL     1      -1.814  -6.062   1.099  0.00  0.00    +0.029 A 
ATOM     17  N   UNL     1       0.563  -5.666   0.491  0.00  0.00    -0.239 NA
ATOM     18  C   UNL     1       1.822  -6.037   0.559  0.00  0.00    +0.109 A 
ATOM     19  S   UNL     1       1.730  -7.514   1.561  0.00  0.00    -0.067 S 
ENDBRANCH   5  18
ENDBRANCH   1   9
BRANCH   2  20
ATOM     20  C   UNL     1       8.148  -7.835   0.178  0.00  0.00    +0.221 C 
BRANCH  20  21
ATOM     21  N   UNL     1       8.040  -9.295   0.231  0.00  0.00    -0.293 N 
ATOM     22  C   UNL     1       7.773 -10.069   1.336  0.00  0.00    +0.165 A 
ATOM     23  N   UNL     1       7.766 -11.320   0.938  0.00  0.00    -0.128 NA
ATOM     24  N   UNL     1       8.007 -11.380  -0.323  0.00  0.00    -0.121 NA
ATOM     25  C   UNL     1       8.177 -10.170  -0.808  0.00  0.00    +0.203 A 
ATOM     26  S   UNL     1       8.522  -9.756  -2.485  0.00  0.00    -0.009 SA
BRANCH  22  27
ATOM     27  C   UNL     1       7.538  -9.584   2.713  0.00  0.00    +0.019 A 
ATOM     28  C   UNL     1       7.191  -8.251   2.937  0.00  0.00    +0.013 A 
ATOM     29  C   UNL     1       6.973  -7.804   4.223  0.00  0.00    +0.021 A 
ATOM     30  C   UNL     1       7.098  -8.675   5.292  0.00  0.00    +0.041 A 
ATOM     31  C   UNL     1       7.442  -9.999   5.077  0.00  0.00    +0.021 A 
ATOM     32  C   UNL     1       7.657 -10.459   3.794  0.00  0.00    +0.013 A 
ATOM     33 CL   UNL     1       6.823  -8.106   6.909  0.00  0.00    -0.084 Cl
ENDBRANCH  22  27
ENDBRANCH  20  21
ENDBRANCH   2  20
TORSDOF 5
