REMARK  Name = ZINC41022894
REMARK  10 active torsions:
REMARK  status: ('A' for Active; 'I' for Inactive)
REMARK    1  A    between atoms: C_1  and  C_2
REMARK    2  A    between atoms: C_2  and  C_3
REMARK    3  A    between atoms: C_3  and  S_4
REMARK    4  A    between atoms: S_4  and  C_5
REMARK    5  A    between atoms: C_10  and  C_27
REMARK    6  A    between atoms: C_12  and  C_16
REMARK    7  A    between atoms: C_13  and  C_15
REMARK    8  A    between atoms: N_18  and  C_19
REMARK    9  A    between atoms: C_23  and  C_26
REMARK   10  A    between atoms: C_24  and  C_25
REMARK                            x       y       z     vdW  Elec       q    Type
REMARK                         _______ _______ _______ _____ _____    ______ ____
ROOT
ATOM      1  C   UNL     1      -2.908  -3.622  -1.612  0.00  0.00    +0.210 A 
ATOM      2  N   UNL     1      -3.718  -2.775  -0.962  0.00  0.00    -0.187 NA
ATOM      3  C   UNL     1      -4.841  -3.376  -0.678  0.00  0.00    +0.219 A 
ATOM      4  N   UNL     1      -4.773  -4.643  -1.155  0.00  0.00    -0.220 N 
ATOM      5  N   UNL     1      -3.521  -4.778  -1.753  0.00  0.00    -0.141 NA
ATOM      6  C   UNL     1      -5.857  -5.614  -1.030  0.00  0.00    +0.178 C 
ATOM      7  C   UNL     1      -6.886  -5.094  -0.062  0.00  0.00    +0.060 C 
ATOM      8  C   UNL     1      -6.902  -3.828   0.380  0.00  0.00    +0.018 C 
ATOM      9  N   UNL     1      -5.965  -2.904  -0.014  0.00  0.00    -0.287 N 
ATOM     10  C   UNL     1      -7.984  -3.405   1.339  0.00  0.00    +0.061 C 
ATOM     11  H   UNL     1      -6.084  -1.958   0.166  0.00  0.00    +0.155 HD
ENDROOT
BRANCH   6  12
ATOM     12  C   UNL     1      -6.498  -5.827  -2.378  0.00  0.00    -0.011 A 
ATOM     13  C   UNL     1      -7.147  -4.803  -2.997  0.00  0.00    +0.007 A 
ATOM     14  C   UNL     1      -7.745  -4.981  -4.242  0.00  0.00    +0.001 A 
ATOM     15  C   UNL     1      -7.699  -6.185  -4.876  0.00  0.00    +0.008 A 
ATOM     16  C   UNL     1      -7.038  -7.266  -4.268  0.00  0.00    -0.018 A 
ATOM     17  C   UNL     1      -6.424  -7.082  -3.004  0.00  0.00    -0.012 A 
ATOM     18  C   UNL     1      -5.758  -8.162  -2.399  0.00  0.00    +0.009 A 
ATOM     19  C   UNL     1      -5.707  -9.364  -3.035  0.00  0.00    +0.001 A 
ATOM     20  C   UNL     1      -6.305  -9.542  -4.282  0.00  0.00    +0.001 A 
ATOM     21  C   UNL     1      -6.970  -8.523  -4.892  0.00  0.00    +0.008 A 
ENDBRANCH   6  12
BRANCH   7  22
ATOM     22  C   UNL     1      -7.883  -5.983   0.404  0.00  0.00    +0.248 C 
ATOM     23  O   UNL     1      -7.615  -6.800   1.267  0.00  0.00    -0.270 OA
ATOM     24  N   UNL     1      -9.129  -5.927  -0.107  0.00  0.00    -0.281 N 
ATOM     25  H   UNL     1      -9.363  -5.228  -0.738  0.00  0.00    +0.155 HD
BRANCH  24  26
ATOM     26  C   UNL     1     -10.084  -6.876   0.272  0.00  0.00    +0.037 A 
ATOM     27  C   UNL     1     -10.197  -7.256   1.603  0.00  0.00    +0.023 A 
ATOM     28  C   UNL     1     -11.141  -8.193   1.974  0.00  0.00    +0.002 A 
ATOM     29  C   UNL     1     -11.973  -8.753   1.021  0.00  0.00    +0.004 A 
ATOM     30  C   UNL     1     -11.863  -8.377  -0.305  0.00  0.00    -0.046 A 
ATOM     31  C   UNL     1     -10.924  -7.435  -0.681  0.00  0.00    -0.026 A 
ATOM     32  C   UNL     1     -10.809  -7.021  -2.126  0.00  0.00    +0.046 C 
ATOM     33  C   UNL     1     -12.771  -8.989  -1.339  0.00  0.00    +0.044 C 
ENDBRANCH  24  26
ENDBRANCH   7  22
BRANCH   1  34
ATOM     34  S   UNL     1      -1.286  -3.247  -2.191  0.00  0.00    -0.084 S 
BRANCH  34  35
ATOM     35  C   UNL     1      -1.030  -1.522  -1.690  0.00  0.00    +0.077 C 
BRANCH  35  37
ATOM     36  C   UNL     1       0.575   0.393  -1.715  0.00  0.00    +0.004 C 
ATOM     37  C   UNL     1       0.359  -1.062  -2.137  0.00  0.00    +0.008 C 
ENDBRANCH  35  37
ENDBRANCH  34  35
ENDBRANCH   1  34
TORSDOF 6
