REMARK  Name = ZINC02788758
REMARK  5 active torsions:
REMARK  status: ('A' for Active; 'I' for Inactive)
REMARK    1  A    between atoms: C_4  and  C_7
REMARK    2  A    between atoms: N_10  and  C_12
REMARK    3  A    between atoms: C_19  and  N_35
REMARK    4  A    between atoms: C_20  and  C_33
REMARK    5  A    between atoms: C_21  and  C_23
REMARK                            x       y       z     vdW  Elec       q    Type
REMARK                         _______ _______ _______ _____ _____    ______ ____
ROOT
ATOM      1  C   UNL     1       4.427   1.735  -2.492  0.00  0.00    +0.101 A 
ATOM      2  C   UNL     1       3.963   2.521  -1.432  0.00  0.00    +0.056 A 
ATOM      3  C   UNL     1       3.847   3.805  -1.878  0.00  0.00    +0.230 A 
ATOM      4  N   UNL     1       4.225   3.825  -3.176  0.00  0.00    -0.199 N 
ATOM      5  N   UNL     1       4.585   2.519  -3.542  0.00  0.00    -0.163 NA
ATOM      6  O   UNL     1       3.420   4.820  -1.086  0.00  0.00    -0.423 OA
ATOM      7  C   UNL     1       3.366   4.596   0.242  0.00  0.00    +0.201 C 
ATOM      8  C   UNL     1       3.457   3.368   0.802  0.00  0.00    +0.100 C 
ATOM      9  C   UNL     1       3.624   2.115  -0.021  0.00  0.00    +0.122 C 
ENDROOT
BRANCH   9  10
ATOM     10  C   UNL     1       2.340   1.327  -0.013  0.00  0.00    +0.073 A 
ATOM     11  C   UNL     1       1.116   2.000   0.002  0.00  0.00    +0.135 A 
ATOM     12  N   UNL     1      -0.016   1.333   0.009  0.00  0.00    -0.252 NA
ATOM     13  C   UNL     1       0.002  -0.004   0.002  0.00  0.00    +0.089 A 
ATOM     14  C   UNL     1      -1.192  -0.747   0.010  0.00  0.00    +0.030 A 
ATOM     15  C   UNL     1      -1.140  -2.106   0.003  0.00  0.00    +0.002 A 
ATOM     16  C   UNL     1       0.081  -2.778  -0.013  0.00  0.00    +0.002 A 
ATOM     17  C   UNL     1       1.257  -2.093  -0.021  0.00  0.00    +0.030 A 
ATOM     18  C   UNL     1       1.244  -0.687  -0.013  0.00  0.00    +0.090 A 
ATOM     19  N   UNL     1       2.383   0.014  -0.021  0.00  0.00    -0.248 NA
ENDBRANCH   9  10
BRANCH   1  23
ATOM     20  C   UNL     1       5.194  -2.446  -2.354  0.00  0.00    +0.000 A 
ATOM     21  C   UNL     1       4.694  -1.875  -3.511  0.00  0.00    +0.001 A 
ATOM     22  C   UNL     1       4.444  -0.518  -3.561  0.00  0.00    +0.010 A 
ATOM     23  C   UNL     1       4.694   0.276  -2.444  0.00  0.00    +0.003 A 
ATOM     24  C   UNL     1       5.202  -0.304  -1.283  0.00  0.00    +0.010 A 
ATOM     25  C   UNL     1       5.445  -1.662  -1.242  0.00  0.00    +0.001 A 
ENDBRANCH   1  23
BRANCH   4  26
ATOM     26  C   UNL     1       4.253   4.951  -4.010  0.00  0.00    +0.069 A 
ATOM     27  C   UNL     1       3.288   5.940  -3.876  0.00  0.00    +0.028 A 
ATOM     28  C   UNL     1       3.321   7.051  -4.695  0.00  0.00    +0.002 A 
ATOM     29  C   UNL     1       4.308   7.175  -5.655  0.00  0.00    +0.000 A 
ATOM     30  C   UNL     1       5.268   6.189  -5.795  0.00  0.00    +0.002 A 
ATOM     31  C   UNL     1       5.244   5.078  -4.975  0.00  0.00    +0.028 A 
ENDBRANCH   4  26
BRANCH   7  32
ATOM     32  N   UNL     1       3.210   5.676   1.075  0.00  0.00    -0.328 N 
ATOM     33  H   UNL     1       3.168   5.546   2.035  0.00  0.00    +0.145 HD
ATOM     34  H   UNL     1       3.143   6.569   0.703  0.00  0.00    +0.145 HD
ENDBRANCH   7  32
BRANCH   8  35
ATOM     35  C   UNL     1       3.391   3.254   2.228  0.00  0.00    +0.101 C 
ATOM     36  N   UNL     1       3.339   3.163   3.359  0.00  0.00    -0.191 NA
ENDBRANCH   8  35
TORSDOF 5
