REMARK  Name = ZINC04081367
REMARK  9 active torsions:
REMARK  status: ('A' for Active; 'I' for Inactive)
REMARK    1  A    between atoms: C_1  and  C_2
REMARK    2  A    between atoms: C_8  and  C_26
REMARK    3  A    between atoms: C_12  and  C_14
REMARK    4  A    between atoms: C_12  and  C_15
REMARK    5  A    between atoms: C_15  and  O_16
REMARK    6  A    between atoms: C_19  and  O_25
REMARK    7  A    between atoms: C_21  and  C_22
REMARK    8  A    between atoms: C_21  and  C_23
REMARK    9  A    between atoms: C_23  and  O_24
REMARK                            x       y       z     vdW  Elec       q    Type
REMARK                         _______ _______ _______ _____ _____    ______ ____
ROOT
ATOM      1  C   UNL     1      -0.599   5.923   3.884  0.00  0.00    +0.010 C 
ATOM      2  C   UNL     1      -1.062   5.663   2.460  0.00  0.00    +0.018 C 
ATOM      3  C   UNL     1      -1.992   4.464   2.369  0.00  0.00    +0.006 C 
ATOM      4  C   UNL     1      -1.232   3.143   2.425  0.00  0.00    +0.005 C 
ATOM      5  C   UNL     1      -0.174   3.052   1.316  0.00  0.00    +0.008 C 
ATOM      6  C   UNL     1       0.809   4.206   1.498  0.00  0.00    +0.001 C 
ATOM      7  C   UNL     1       0.084   5.548   1.470  0.00  0.00    +0.079 C 
ATOM      8  C   UNL     1      -0.512   5.814   0.063  0.00  0.00    +0.039 C 
ATOM      9  C   UNL     1      -0.573   7.366   0.051  0.00  0.00    +0.040 C 
ATOM     10  C   UNL     1       0.636   7.766   0.919  0.00  0.00    +0.090 C 
ATOM     11  O   UNL     1       1.029   6.612   1.674  0.00  0.00    -0.364 OA
ATOM     12  C   UNL     1       0.248   8.911   1.858  0.00  0.00    +0.044 C 
ATOM     13  C   UNL     1       1.565   4.008   2.815  0.00  0.00    +0.012 C 
ATOM     14  C   UNL     1       2.346   2.692   2.762  0.00  0.00    +0.032 C 
ATOM     15  C   UNL     1       1.375   1.527   2.608  0.00  0.00    +0.123 C 
ATOM     16  C   UNL     1       0.484   1.679   1.379  0.00  0.00    +0.020 C 
ATOM     17  C   UNL     1       1.271   1.341   0.111  0.00  0.00    +0.016 C 
ATOM     18  C   UNL     1       1.858   4.260   0.375  0.00  0.00    +0.014 C 
ENDROOT
BRANCH  15  19
ATOM     19  O   UNL     1       2.114   0.304   2.506  0.00  0.00    -0.391 OA
ATOM     20  H   UNL     1       2.705   0.138   3.253  0.00  0.00    +0.210 HD
ENDBRANCH  15  19
BRANCH  10  21
ATOM     21  C   UNL     1       1.790   8.217   0.017  0.00  0.00    +0.190 C 
BRANCH  21  22
ATOM     22  O   UNL     1       2.909   8.587   0.825  0.00  0.00    -0.392 OA
ATOM     23  H   UNL     1       3.678   8.883   0.319  0.00  0.00    +0.210 HD
ENDBRANCH  21  22
ENDBRANCH  10  21
BRANCH  16  24
ATOM     24  C   UNL     1      -0.611   0.590   1.476  0.00  0.00    +0.165 C 
BRANCH  24  25
ATOM     25  O   UNL     1       0.005  -0.697   1.566  0.00  0.00    -0.394 OA
ATOM     26  H   UNL     1      -0.623  -1.430   1.630  0.00  0.00    +0.209 HD
ENDBRANCH  24  25
ENDBRANCH  16  24
TORSDOF 5
