REMARK  Name = ZINC01112723
REMARK  7 active torsions:
REMARK  status: ('A' for Active; 'I' for Inactive)
REMARK    1  A    between atoms: C_1  and  O_2
REMARK    2  A    between atoms: O_2  and  C_3
REMARK    3  A    between atoms: C_3  and  C_5
REMARK    4  A    between atoms: C_8  and  C_11
REMARK    5  A    between atoms: C_18  and  N_30
REMARK    6  A    between atoms: C_19  and  C_28
REMARK    7  A    between atoms: C_20  and  C_22
REMARK                            x       y       z     vdW  Elec       q    Type
REMARK                         _______ _______ _______ _____ _____    ______ ____
ROOT
ATOM      1  C   UNL     1       1.004  -6.691  -1.354  0.00  0.00    +0.100 A 
ATOM      2  C   UNL     1       0.719  -7.292  -2.584  0.00  0.00    +0.054 A 
ATOM      3  C   UNL     1       0.778  -8.645  -2.417  0.00  0.00    +0.223 A 
ATOM      4  N   UNL     1       1.092  -8.886  -1.127  0.00  0.00    -0.246 N 
ATOM      5  H   UNL     1       1.203  -9.760  -0.720  0.00  0.00    +0.192 HD
ATOM      6  N   UNL     1       1.234  -7.650  -0.477  0.00  0.00    -0.171 NA
ATOM      7  O   UNL     1       0.546  -9.519  -3.428  0.00  0.00    -0.423 OA
ATOM      8  C   UNL     1      -0.018  -9.036  -4.554  0.00  0.00    +0.200 C 
ATOM      9  C   UNL     1      -0.122  -7.719  -4.837  0.00  0.00    +0.098 C 
ATOM     10  C   UNL     1       0.394  -6.649  -3.908  0.00  0.00    +0.103 C 
ENDROOT
BRANCH   1  14
ATOM     11  C   UNL     1       1.128  -2.508  -0.581  0.00  0.00    +0.059 A 
ATOM     12  C   UNL     1       0.110  -3.042  -1.376  0.00  0.00    +0.015 A 
ATOM     13  C   UNL     1       0.072  -4.395  -1.626  0.00  0.00    +0.011 A 
ATOM     14  C   UNL     1       1.048  -5.233  -1.085  0.00  0.00    +0.003 A 
ATOM     15  C   UNL     1       2.064  -4.701  -0.291  0.00  0.00    +0.011 A 
ATOM     16  C   UNL     1       2.108  -3.348  -0.045  0.00  0.00    +0.015 A 
BRANCH  11  17
ATOM     17  C   UNL     1       1.171  -1.057  -0.312  0.00  0.00    +0.339 C 
ATOM     18  O   UNL     1       2.058  -0.593   0.375  0.00  0.00    -0.245 OA
BRANCH  17  20
ATOM     19  C   UNL     1       0.329   1.145  -0.529  0.00  0.00    +0.280 C 
ATOM     20  O   UNL     1       0.225  -0.248  -0.830  0.00  0.00    -0.464 OA
ENDBRANCH  17  20
ENDBRANCH  11  17
ENDBRANCH   1  14
BRANCH  10  21
ATOM     21  C   UNL     1       1.637  -6.027  -4.490  0.00  0.00    -0.016 A 
ATOM     22  C   UNL     1       1.657  -4.681  -4.825  0.00  0.00    +0.007 A 
ATOM     23  C   UNL     1       2.823  -4.152  -5.357  0.00  0.00    +0.020 A 
ATOM     24  C   UNL     1       3.917  -4.977  -5.535  0.00  0.00    +0.111 A 
ATOM     25  N   UNL     1       3.861  -6.252  -5.206  0.00  0.00    -0.263 NA
ATOM     26  C   UNL     1       2.772  -6.788  -4.691  0.00  0.00    +0.115 A 
ENDBRANCH  10  21
BRANCH   8  27
ATOM     27  N   UNL     1      -0.514  -9.935  -5.465  0.00  0.00    -0.328 N 
ATOM     28  H   UNL     1      -0.454 -10.887  -5.290  0.00  0.00    +0.145 HD
ATOM     29  H   UNL     1      -0.925  -9.618  -6.284  0.00  0.00    +0.145 HD
ENDBRANCH   8  27
BRANCH   9  30
ATOM     30  C   UNL     1      -0.745  -7.325  -6.065  0.00  0.00    +0.101 C 
ATOM     31  N   UNL     1      -1.238  -7.012  -7.039  0.00  0.00    -0.191 NA
ENDBRANCH   9  30
TORSDOF 6
