REMARK  Name = ZINC33058241
REMARK  9 active torsions:
REMARK  status: ('A' for Active; 'I' for Inactive)
REMARK    1  A    between atoms: C_1  and  O_2
REMARK    2  A    between atoms: O_2  and  C_3
REMARK    3  A    between atoms: C_8  and  N_9
REMARK    4  A    between atoms: N_9  and  C_10
REMARK    5  A    between atoms: C_11  and  S_25
REMARK    6  A    between atoms: C_12  and  N_24
REMARK    7  A    between atoms: C_13  and  C_15
REMARK    8  A    between atoms: C_15  and  C_17
REMARK    9  A    between atoms: S_25  and  C_28
REMARK                            x       y       z     vdW  Elec       q    Type
REMARK                         _______ _______ _______ _____ _____    ______ ____
ROOT
ATOM      1  C   UNL     1       1.157   2.424  -0.645  0.00  0.00    +0.098 A 
ATOM      2  C   UNL     1       0.029   1.655  -0.433  0.00  0.00    +0.143 A 
ATOM      3  C   UNL     1       0.135   0.289  -0.504  0.00  0.00    +0.070 A 
ATOM      4  C   UNL     1       1.390  -0.263  -0.791  0.00  0.00    +0.084 A 
ATOM      5  S   UNL     1       2.411   1.192  -0.956  0.00  0.00    -0.066 S 
ENDROOT
BRANCH   3   6
ATOM      6  N   UNL     1      -0.973  -0.525  -0.298  0.00  0.00    -0.355 N 
ATOM      7  H   UNL     1      -0.871  -1.619  -0.359  0.00  0.00    +0.142 HD
ATOM      8  H   UNL     1      -1.952  -0.075  -0.074  0.00  0.00    +0.142 HD
ENDBRANCH   3   6
BRANCH   2   9
ATOM      9  S   UNL     1      -1.521   2.416  -0.083  0.00  0.00    +0.029 S 
ATOM     10  O   UNL     1      -1.409   3.772  -0.494  0.00  0.00    -0.164 OA
ATOM     11  O   UNL     1      -2.524   1.546  -0.589  0.00  0.00    -0.164 OA
BRANCH   9  12
ATOM     12  C   UNL     1      -1.708   2.435   1.669  0.00  0.00    +0.094 A 
ATOM     13  C   UNL     1      -2.322   1.376   2.310  0.00  0.00    +0.027 A 
ATOM     14  C   UNL     1      -2.465   1.389   3.685  0.00  0.00    +0.002 A 
ATOM     15  C   UNL     1      -2.003   2.466   4.418  0.00  0.00    +0.000 A 
ATOM     16  C   UNL     1      -1.393   3.528   3.776  0.00  0.00    +0.002 A 
ATOM     17  C   UNL     1      -1.246   3.513   2.402  0.00  0.00    +0.027 A 
ENDBRANCH   9  12
ENDBRANCH   2   9
BRANCH   1  18
ATOM     18  N   UNL     1       1.283   3.801  -0.623  0.00  0.00    -0.305 N 
ATOM     19  H   UNL     1       0.387   4.435  -0.554  0.00  0.00    +0.153 HD
BRANCH  18  25
ATOM     20  C   UNL     1       2.710   5.648  -1.263  0.00  0.00    +0.141 A 
ATOM     21  C   UNL     1       3.967   6.226  -1.321  0.00  0.00    +0.047 A 
ATOM     22  C   UNL     1       5.063   5.551  -0.817  0.00  0.00    +0.004 A 
ATOM     23  C   UNL     1       4.908   4.299  -0.250  0.00  0.00    +0.002 A 
ATOM     24  C   UNL     1       3.657   3.717  -0.184  0.00  0.00    +0.027 A 
ATOM     25  C   UNL     1       2.552   4.389  -0.688  0.00  0.00    +0.074 A 
BRANCH  20  27
ATOM     26  C   UNL     1       1.869   7.596  -2.338  0.00  0.00    +0.277 C 
ATOM     27  O   UNL     1       1.632   6.309  -1.763  0.00  0.00    -0.493 OA
ENDBRANCH  20  27
ENDBRANCH  18  25
ENDBRANCH   1  18
BRANCH   4  28
ATOM     28  C   UNL     1       1.753  -1.616  -0.917  0.00  0.00    +0.202 C 
ATOM     29  O   UNL     1       0.944  -2.491  -0.655  0.00  0.00    -0.286 OA
BRANCH  28  30
ATOM     30  C   UNL     1       3.115  -1.978  -1.367  0.00  0.00    +0.023 A 
ATOM     31  C   UNL     1       3.875  -1.067  -2.103  0.00  0.00    +0.013 A 
ATOM     32  C   UNL     1       5.146  -1.408  -2.515  0.00  0.00    +0.021 A 
ATOM     33  C   UNL     1       5.665  -2.655  -2.210  0.00  0.00    +0.041 A 
ATOM     34  C   UNL     1       4.913  -3.566  -1.486  0.00  0.00    +0.021 A 
ATOM     35  C   UNL     1       3.643  -3.233  -1.063  0.00  0.00    +0.013 A 
ATOM     36 CL   UNL     1       7.263  -3.080  -2.739  0.00  0.00    -0.084 Cl
ENDBRANCH  28  30
ENDBRANCH   4  28
TORSDOF 8
