REMARK  Name = ZINC01332966
REMARK  7 active torsions:
REMARK  status: ('A' for Active; 'I' for Inactive)
REMARK    1  A    between atoms: C_1  and  C_2
REMARK    2  A    between atoms: C_5  and  S_8
REMARK    3  A    between atoms: S_8  and  N_11
REMARK    4  A    between atoms: C_17  and  C_19
REMARK    5  A    between atoms: C_23  and  C_34
REMARK    6  A    between atoms: C_26  and  C_30
REMARK    7  A    between atoms: C_34  and  C_37
REMARK                            x       y       z     vdW  Elec       q    Type
REMARK                         _______ _______ _______ _____ _____    ______ ____
ROOT
ATOM      1  C   UNL     1       6.386  -5.047   1.222  0.00  0.00    +0.110 C 
ATOM      2  C   UNL     1       7.014  -4.028   1.858  0.00  0.00    +0.072 C 
ATOM      3  C   UNL     1       7.620  -4.581   3.069  0.00  0.00    +0.114 C 
ATOM      4  N   UNL     1       8.330  -3.996   3.990  0.00  0.00    -0.368 N 
ATOM      5  C   UNL     1       8.859  -4.798   5.100  0.00  0.00    +0.088 C 
ATOM      6  C   UNL     1       7.907  -5.947   5.434  0.00  0.00    +0.058 C 
ATOM      7  C   UNL     1       7.695  -6.822   4.188  0.00  0.00    +0.201 C 
ATOM      8  N   UNL     1       7.292  -5.931   3.095  0.00  0.00    -0.226 N 
ATOM      9  N   UNL     1       6.549  -6.212   1.954  0.00  0.00    -0.258 N 
ATOM     10  H   UNL     1       6.203  -7.084   1.708  0.00  0.00    +0.170 HD
ATOM     11  H   UNL     1       8.508  -3.043   3.944  0.00  0.00    +0.161 HD
ENDROOT
BRANCH   1  18
ATOM     12  N   UNL     1       1.651  -5.001  -0.036  0.00  0.00    -0.174 NA
ATOM     13  C   UNL     1       2.364  -5.197  -1.306  0.00  0.00    +0.128 C 
ATOM     14  C   UNL     1       3.625  -4.325  -1.301  0.00  0.00    +0.125 C 
ATOM     15  N   UNL     1       4.347  -4.551  -0.041  0.00  0.00    -0.294 N 
ATOM     16  C   UNL     1       3.634  -4.354   1.229  0.00  0.00    +0.125 C 
ATOM     17  C   UNL     1       2.375  -5.221   1.224  0.00  0.00    +0.128 C 
ATOM     18  C   UNL     1       5.640  -4.932  -0.050  0.00  0.00    +0.262 C 
ATOM     19  O   UNL     1       6.192  -5.182  -1.104  0.00  0.00    -0.269 OA
BRANCH  12  20
ATOM     20  S   UNL     1       0.063  -4.532  -0.025  0.00  0.00    +0.061 S 
ATOM     21  O   UNL     1      -0.476  -4.954   1.220  0.00  0.00    -0.153 OA
ATOM     22  O   UNL     1      -0.489  -4.937  -1.270  0.00  0.00    -0.153 OA
BRANCH  20  27
ATOM     23  C   UNL     1      -0.021   1.501   0.018  0.00  0.00    +0.044 C 
ATOM     24  C   UNL     1       0.000  -0.006   0.008  0.00  0.00    -0.050 A 
ATOM     25  C   UNL     1       0.005  -0.689  -1.194  0.00  0.00    +0.005 A 
ATOM     26  C   UNL     1       0.024  -2.071  -1.204  0.00  0.00    +0.029 A 
ATOM     27  C   UNL     1       0.039  -2.770  -0.012  0.00  0.00    +0.105 A 
ATOM     28  C   UNL     1       0.036  -2.088   1.190  0.00  0.00    +0.029 A 
ATOM     29  C   UNL     1       0.021  -0.706   1.200  0.00  0.00    +0.005 A 
ENDBRANCH  20  27
ENDBRANCH  12  20
ENDBRANCH   1  18
BRANCH   7  30
ATOM     30  C   UNL     1       6.595  -7.852   4.456  0.00  0.00    +0.410 C 
ATOM     31  F   UNL     1       5.402  -7.190   4.764  0.00  0.00    -0.169 F 
ATOM     32  F   UNL     1       6.409  -8.643   3.317  0.00  0.00    -0.169 F 
ATOM     33  F   UNL     1       6.969  -8.664   5.532  0.00  0.00    -0.169 F 
ENDBRANCH   7  30
BRANCH   5  34
ATOM     34  C   UNL     1       9.024  -3.907   6.333  0.00  0.00    -0.012 C 
ATOM     35  C   UNL     1       8.449  -2.491   6.263  0.00  0.00    +0.009 C 
ATOM     36  C   UNL     1       9.963  -2.704   6.215  0.00  0.00    +0.009 C 
ATOM     37  C   UNL     1       8.965  -4.628   7.681  0.00  0.00    +0.013 C 
ENDBRANCH   5  34
TORSDOF 5
