REMARK  Name = ZINC08682302
REMARK  10 active torsions:
REMARK  status: ('A' for Active; 'I' for Inactive)
REMARK    1  A    between atoms: C_1  and  C_2
REMARK    2  A    between atoms: C_2  and  O_3
REMARK    3  A    between atoms: O_3  and  C_4
REMARK    4  A    between atoms: C_4  and  C_6
REMARK    5  A    between atoms: C_6  and  N_52
REMARK    6  A    between atoms: C_7  and  C_9
REMARK    7  A    between atoms: C_7  and  C_15
REMARK    8  A    between atoms: C_7  and  N_52
REMARK    9  A    between atoms: C_20  and  N_21
REMARK   10  A    between atoms: C_22  and  C_24
REMARK                            x       y       z     vdW  Elec       q    Type
REMARK                         _______ _______ _______ _____ _____    ______ ____
ROOT
ATOM      1  C   UNL     1      -2.687  -2.468   0.629  0.00  0.00    -0.035 A 
ATOM      2  C   UNL     1      -3.808  -1.661   0.625  0.00  0.00    +0.019 A 
ATOM      3  C   UNL     1      -4.987  -2.110   1.193  0.00  0.00    +0.018 A 
ATOM      4  C   UNL     1      -5.047  -3.368   1.767  0.00  0.00    +0.017 A 
ATOM      5  C   UNL     1      -3.929  -4.179   1.774  0.00  0.00    +0.024 A 
ATOM      6  C   UNL     1      -2.746  -3.733   1.199  0.00  0.00    +0.036 A 
ATOM      7 BR   UNL     1      -6.520  -1.002   1.186  0.00  0.00    -0.050 Br
ENDROOT
BRANCH   6   8
ATOM      8  N   UNL     1      -1.614  -4.555   1.199  0.00  0.00    -0.281 N 
ATOM      9  C   UNL     1      -1.753  -5.893   1.274  0.00  0.00    +0.248 C 
ATOM     10  O   UNL     1      -2.861  -6.392   1.240  0.00  0.00    -0.270 OA
ATOM     11  H   UNL     1      -0.729  -4.161   1.144  0.00  0.00    +0.155 HD
BRANCH   9  12
ATOM     12  C   UNL     1      -0.558  -6.754   1.397  0.00  0.00    +0.037 A 
ATOM     13  C   UNL     1       0.716  -6.184   1.430  0.00  0.00    +0.014 A 
ATOM     14  C   UNL     1       1.827  -6.992   1.550  0.00  0.00    +0.021 A 
ATOM     15  C   UNL     1       1.681  -8.368   1.627  0.00  0.00    +0.041 A 
ATOM     16  C   UNL     1       0.420  -8.939   1.589  0.00  0.00    +0.021 A 
ATOM     17  C   UNL     1      -0.699  -8.141   1.475  0.00  0.00    +0.014 A 
ATOM     18 CL   UNL     1       3.084  -9.379   1.772  0.00  0.00    -0.084 Cl
ENDBRANCH   9  12
ENDBRANCH   6   8
BRANCH   1  19
ATOM     19  C   UNL     1      -1.403  -1.978   0.011  0.00  0.00    -0.007 C 
BRANCH  19  20
ATOM     20  C   UNL     1      -1.311  -2.470  -1.411  0.00  0.00    -0.057 A 
ATOM     21  C   UNL     1      -2.007  -1.822  -2.413  0.00  0.00    +0.002 A 
ATOM     22  C   UNL     1      -1.919  -2.271  -3.718  0.00  0.00    +0.000 A 
ATOM     23  C   UNL     1      -1.141  -3.373  -4.018  0.00  0.00    +0.000 A 
ATOM     24  C   UNL     1      -0.449  -4.025  -3.015  0.00  0.00    +0.000 A 
ATOM     25  C   UNL     1      -0.534  -3.574  -1.711  0.00  0.00    +0.002 A 
ENDBRANCH  19  20
BRANCH  19  26
ATOM     26  N   UNL     1      -1.392  -0.503   0.023  0.00  0.00    +0.393 N 
ATOM     27  H   UNL     1      -1.890  -0.154  -0.804  0.00  0.00    -0.084 HD
ATOM     28  H   UNL     1      -1.861  -0.168   0.872  0.00  0.00    -0.084 HD
BRANCH  26  29
ATOM     29  C   UNL     1      -0.005  -0.001   0.003  0.00  0.00    +0.041 C 
BRANCH  29  30
ATOM     30  C   UNL     1      -0.025   1.505   0.016  0.00  0.00    +0.290 C 
ATOM     31  O   UNL     1      -1.079   2.096   0.034  0.00  0.00    -0.253 OA
BRANCH  30  32
ATOM     32  O   UNL     1       1.129   2.192   0.001  0.00  0.00    -0.466 OA
BRANCH  32  34
ATOM     33  C   UNL     1       2.440   4.244  -0.004  0.00  0.00    +0.048 C 
ATOM     34  C   UNL     1       1.034   3.641   0.015  0.00  0.00    +0.228 C 
ENDBRANCH  32  34
ENDBRANCH  30  32
ENDBRANCH  29  30
ENDBRANCH  26  29
ENDBRANCH  19  26
ENDBRANCH   1  19
TORSDOF 9
