REMARK  Name = ZINC38847373
REMARK  10 active torsions:
REMARK  status: ('A' for Active; 'I' for Inactive)
REMARK    1  A    between atoms: C_1  and  N_2
REMARK    2  A    between atoms: N_2  and  C_3
REMARK    3  A    between atoms: N_2  and  C_4
REMARK    4  A    between atoms: C_4  and  C_5
REMARK    5  A    between atoms: C_5  and  N_6
REMARK    6  A    between atoms: C_10  and  O_16
REMARK    7  A    between atoms: O_16  and  C_17
REMARK    8  A    between atoms: C_18  and  C_20
REMARK    9  A    between atoms: N_23  and  S_26
REMARK   10  A    between atoms: S_26  and  C_29
REMARK                            x       y       z     vdW  Elec       q    Type
REMARK                         _______ _______ _______ _____ _____    ______ ____
ROOT
ATOM      1  N   UNL     1      -3.490  -0.554  -1.491  0.00  0.00    -0.252 N 
ATOM      2  C   UNL     1      -4.534   0.267  -1.093  0.00  0.00    +0.168 A 
ATOM      3  N   UNL     1      -5.797  -0.039  -0.912  0.00  0.00    -0.221 NA
ATOM      4  C   UNL     1      -6.715   0.872  -0.520  0.00  0.00    +0.122 A 
ATOM      5  C   UNL     1      -8.101   0.675  -0.290  0.00  0.00    +0.146 A 
ATOM      6  C   UNL     1      -8.900   1.720   0.110  0.00  0.00    +0.048 A 
ATOM      7  C   UNL     1      -8.384   2.993   0.300  0.00  0.00    +0.005 A 
ATOM      8  C   UNL     1      -7.038   3.219   0.085  0.00  0.00    +0.017 A 
ATOM      9  C   UNL     1      -6.230   2.182  -0.314  0.00  0.00    +0.044 A 
ATOM     10  S   UNL     1      -4.502   2.007  -0.690  0.00  0.00    -0.052 S 
ATOM     11  C   UNL     1      -3.699  -1.873  -1.670  0.00  0.00    +0.224 C 
ATOM     12  O   UNL     1      -2.767  -2.606  -1.923  0.00  0.00    -0.275 OA
ENDROOT
BRANCH  11  13
ATOM     13  C   UNL     1      -5.092  -2.437  -1.554  0.00  0.00    +0.078 C 
ATOM     14  C   UNL     1      -5.482  -2.535  -0.078  0.00  0.00    +0.030 C 
ATOM     15  C   UNL     1      -6.910  -3.076   0.034  0.00  0.00    +0.110 C 
ATOM     16  N   UNL     1      -6.993  -4.348  -0.698  0.00  0.00    -0.177 NA
ATOM     17  C   UNL     1      -6.557  -4.385  -2.100  0.00  0.00    +0.110 C 
ATOM     18  C   UNL     1      -5.132  -3.829  -2.188  0.00  0.00    +0.030 C 
BRANCH  16  19
ATOM     19  S   UNL     1      -7.567  -5.713   0.044  0.00  0.00    +0.061 S 
ATOM     20  O   UNL     1      -7.023  -6.819  -0.663  0.00  0.00    -0.153 OA
ATOM     21  O   UNL     1      -7.371  -5.529   1.439  0.00  0.00    -0.153 OA
BRANCH  19  22
ATOM     22  C   UNL     1      -9.309  -5.755  -0.218  0.00  0.00    +0.106 A 
ATOM     23  C   UNL     1     -10.159  -5.147   0.687  0.00  0.00    +0.031 A 
ATOM     24  C   UNL     1     -11.525  -5.179   0.482  0.00  0.00    +0.040 A 
ATOM     25  C   UNL     1     -12.043  -5.821  -0.631  0.00  0.00    +0.124 A 
ATOM     26  C   UNL     1     -11.191  -6.429  -1.536  0.00  0.00    +0.040 A 
ATOM     27  C   UNL     1      -9.824  -6.391  -1.332  0.00  0.00    +0.031 A 
ATOM     28  F   UNL     1     -13.378  -5.853  -0.832  0.00  0.00    -0.205 F 
ENDBRANCH  19  22
ENDBRANCH  16  19
ENDBRANCH  11  13
BRANCH   5  29
ATOM     29  O   UNL     1      -8.644  -0.559  -0.466  0.00  0.00    -0.493 OA
ATOM     30  C   UNL     1     -10.045  -0.693  -0.218  0.00  0.00    +0.277 C 
ENDBRANCH   5  29
BRANCH   1  31
ATOM     31  C   UNL     1      -2.158   0.014  -1.716  0.00  0.00    +0.097 C 
BRANCH  31  32
ATOM     32  C   UNL     1      -1.310  -0.160  -0.454  0.00  0.00    -0.060 C 
BRANCH  32  34
ATOM     33  C   UNL     1      -0.087   1.860  -0.876  0.00  0.00    -0.097 C 
ATOM     34  N   UNL     1       0.026   0.409  -0.680  0.00  0.00    +0.377 N 
ATOM     35  C   UNL     1       0.877   0.136   0.485  0.00  0.00    -0.097 C 
ATOM     36  H   UNL     1       0.436  -0.010  -1.501  0.00  0.00    -0.083 HD
ENDBRANCH  32  34
ENDBRANCH  31  32
ENDBRANCH   1  31
TORSDOF 7
