REMARK  Name = ZINC17094941
REMARK  7 active torsions:
REMARK  status: ('A' for Active; 'I' for Inactive)
REMARK    1  A    between atoms: C_1  and  C_2
REMARK    2  A    between atoms: C_5  and  C_8
REMARK    3  A    between atoms: C_11  and  N_19
REMARK    4  A    between atoms: C_12  and  C_13
REMARK    5  A    between atoms: N_15  and  C_16
REMARK    6  A    between atoms: C_20  and  C_22
REMARK    7  A    between atoms: C_28  and  C_30
REMARK                            x       y       z     vdW  Elec       q    Type
REMARK                         _______ _______ _______ _____ _____    ______ ____
ROOT
ATOM      1  C   UNL     1       7.009   2.379  -4.258  0.00  0.00    +0.003 A 
ATOM      2  C   UNL     1       6.051   1.682  -4.922  0.00  0.00    +0.056 A 
ATOM      3  S   UNL     1       4.623   1.848  -3.872  0.00  0.00    -0.081 S 
ATOM      4  C   UNL     1       5.299   2.821  -2.609  0.00  0.00    +0.084 A 
ATOM      5  C   UNL     1       6.616   2.999  -3.008  0.00  0.00    +0.073 A 
ENDROOT
BRANCH   1  10
ATOM      6  C   UNL     1      12.370   2.848  -6.307  0.00  0.00    +0.044 C 
ATOM      7  C   UNL     1      10.967   2.725  -5.771  0.00  0.00    -0.050 A 
ATOM      8  C   UNL     1      10.369   1.481  -5.685  0.00  0.00    +0.004 A 
ATOM      9  C   UNL     1       9.084   1.362  -5.194  0.00  0.00    +0.009 A 
ATOM     10  C   UNL     1       8.389   2.500  -4.786  0.00  0.00    -0.017 A 
ATOM     11  C   UNL     1       8.995   3.752  -4.881  0.00  0.00    +0.009 A 
ATOM     12  C   UNL     1      10.282   3.857  -5.368  0.00  0.00    +0.004 A 
ENDBRANCH   1  10
BRANCH   5  13
ATOM     13  C   UNL     1       7.563   3.775  -2.204  0.00  0.00    +0.247 C 
ATOM     14  O   UNL     1       8.232   3.224  -1.350  0.00  0.00    -0.270 OA
ATOM     15  N   UNL     1       7.694   5.101  -2.411  0.00  0.00    -0.308 N 
ATOM     16  H   UNL     1       7.161   5.541  -3.091  0.00  0.00    +0.149 HD
BRANCH  15  17
ATOM     17  C   UNL     1       8.641   5.877  -1.607  0.00  0.00    +0.073 C 
ATOM     18  C   UNL     1       8.169   7.230  -1.070  0.00  0.00    +0.024 C 
ATOM     19  C   UNL     1       9.186   7.172  -2.213  0.00  0.00    +0.024 C 
ENDBRANCH  15  17
ENDBRANCH   5  13
BRANCH   4  20
ATOM     20  N   UNL     1       4.675   3.302  -1.469  0.00  0.00    -0.279 N 
ATOM     21  C   UNL     1       3.375   3.025  -1.244  0.00  0.00    +0.221 C 
ATOM     22  O   UNL     1       2.751   2.356  -2.041  0.00  0.00    -0.275 OA
ATOM     23  H   UNL     1       5.173   3.837  -0.832  0.00  0.00    +0.155 HD
BRANCH  21  24
ATOM     24  C   UNL     1       2.696   3.548  -0.005  0.00  0.00    +0.089 C 
ATOM     25  C   UNL     1       2.755   5.077   0.003  0.00  0.00    +0.013 C 
ATOM     26  C   UNL     1       2.067   5.608   1.262  0.00  0.00    +0.001 C 
ATOM     27  C   UNL     1       0.605   5.154   1.273  0.00  0.00    +0.001 C 
ATOM     28  C   UNL     1       0.546   3.625   1.266  0.00  0.00    +0.015 C 
ATOM     29  C   UNL     1       1.235   3.094   0.007  0.00  0.00    +0.114 C 
BRANCH  29  30
ATOM     30  C   UNL     1       1.177   1.588  -0.001  0.00  0.00    +0.360 C 
ATOM     31  O   UNL     1       2.199   0.944  -0.014  0.00  0.00    -0.246 OA
ATOM     32  O   UNL     1      -0.011   0.963   0.007  0.00  0.00    -0.246 OA
ENDBRANCH  29  30
ENDBRANCH  21  24
ENDBRANCH   4  20
TORSDOF 6
