REMARK  Name = ZINC23191775
REMARK  8 active torsions:
REMARK  status: ('A' for Active; 'I' for Inactive)
REMARK    1  A    between atoms: C_1  and  C_2
REMARK    2  A    between atoms: C_4  and  C_30
REMARK    3  A    between atoms: N_5  and  C_7
REMARK    4  A    between atoms: C_10  and  N_13
REMARK    5  A    between atoms: C_16  and  N_19
REMARK    6  A    between atoms: N_19  and  C_20
REMARK    7  A    between atoms: C_20  and  C_21
REMARK    8  A    between atoms: C_23  and  C_27
REMARK                            x       y       z     vdW  Elec       q    Type
REMARK                         _______ _______ _______ _____ _____    ______ ____
ROOT
ATOM      1  N   UNL     1      -0.723   1.572  -1.182  0.00  0.00    -0.330 N 
ATOM      2  C   UNL     1      -0.013   1.086   0.008  0.00  0.00    +0.103 C 
ATOM      3  C   UNL     1      -0.729   1.579   1.267  0.00  0.00    +0.003 C 
ATOM      4  C   UNL     1      -2.170   1.064   1.264  0.00  0.00    -0.068 C 
ATOM      5  C   UNL     1      -2.873   1.544  -0.009  0.00  0.00    +0.003 C 
ATOM      6  C   UNL     1      -2.095   1.052  -1.231  0.00  0.00    +0.103 C 
ENDROOT
BRANCH   1  10
ATOM      7  C   UNL     1       1.363   0.615  -4.660  0.00  0.00    +0.066 A 
ATOM      8  C   UNL     1       0.162   1.307  -4.739  0.00  0.00    +0.029 A 
ATOM      9  C   UNL     1      -0.529   1.624  -3.587  0.00  0.00    +0.025 A 
ATOM     10  C   UNL     1      -0.023   1.251  -2.349  0.00  0.00    +0.030 A 
ATOM     11  C   UNL     1       1.182   0.564  -2.270  0.00  0.00    +0.025 A 
ATOM     12  C   UNL     1       1.869   0.241  -3.422  0.00  0.00    +0.029 A 
BRANCH   7  17
ATOM     13  C   UNL     1       2.305  -0.678  -9.357  0.00  0.00    +0.067 C 
ATOM     14  C   UNL     1       2.469  -0.280  -7.913  0.00  0.00    +0.061 A 
ATOM     15  C   UNL     1       3.685  -0.095  -7.246  0.00  0.00    +0.047 A 
ATOM     16  C   UNL     1       3.410   0.262  -5.970  0.00  0.00    +0.042 A 
ATOM     17  N   UNL     1       2.066   0.293  -5.831  0.00  0.00    -0.237 N 
ATOM     18  N   UNL     1       1.498  -0.048  -7.066  0.00  0.00    -0.171 NA
ATOM     19  C   UNL     1       4.421   0.567  -4.895  0.00  0.00    +0.066 C 
ENDBRANCH   7  17
ENDBRANCH   1  10
BRANCH   4  20
ATOM     20  N   UNL     1      -2.880   1.582   2.442  0.00  0.00    +0.385 N 
ATOM     21  H   UNL     1      -2.519   2.596   2.670  0.00  0.00    -0.085 HD
ATOM     22  H   UNL     1      -3.959   1.615   2.234  0.00  0.00    -0.085 HD
BRANCH  20  23
ATOM     23  C   UNL     1      -2.651   0.726   3.613  0.00  0.00    -0.024 C 
BRANCH  23  24
ATOM     24  C   UNL     1      -3.392   1.288   4.799  0.00  0.00    +0.046 A 
ATOM     25  C   UNL     1      -4.668   0.904   5.226  0.00  0.00    +0.046 A 
ATOM     26  C   UNL     1      -4.979   1.639   6.319  0.00  0.00    +0.039 A 
ATOM     27  N   UNL     1      -3.939   2.459   6.574  0.00  0.00    -0.281 N 
ATOM     28  H   UNL     1      -3.982   3.154   7.426  0.00  0.00    +0.189 HD
ATOM     29  N   UNL     1      -2.952   2.216   5.609  0.00  0.00    -0.181 NA
BRANCH  26  30
ATOM     30  C   UNL     1      -6.260   1.556   7.109  0.00  0.00    +0.037 C 
ATOM     31  C   UNL     1      -6.788   2.849   7.736  0.00  0.00    +0.010 C 
ATOM     32  C   UNL     1      -6.171   1.765   8.622  0.00  0.00    +0.010 C 
ENDBRANCH  26  30
ENDBRANCH  23  24
ENDBRANCH  20  23
ENDBRANCH   4  20
TORSDOF 6
