REMARK  Name = ZINC42755484
REMARK  2 active torsions:
REMARK  status: ('A' for Active; 'I' for Inactive)
REMARK    1  A    between atoms: C_6  and  C_7
REMARK    2  A    between atoms: N_9  and  N_10
REMARK                            x       y       z     vdW  Elec       q    Type
REMARK                         _______ _______ _______ _____ _____    ______ ____
ROOT
ATOM      1  C   UNL     1      -1.266  -0.763   0.011  0.00  0.00    +0.260 C 
ATOM      2  O   UNL     1      -2.328  -0.171   0.024  0.00  0.00    -0.269 OA
ATOM      3  N   UNL     1      -1.244  -2.110   0.003  0.00  0.00    -0.229 N 
ATOM      4  H   UNL     1      -0.397  -2.582  -0.008  0.00  0.00    +0.173 HD
ENDROOT
BRANCH   3   5
ATOM      5  N   UNL     1      -2.447  -2.830   0.011  0.00  0.00    -0.218 N 
ATOM      6  C   UNL     1      -2.426  -4.177   0.004  0.00  0.00    +0.322 C 
ATOM      7  O   UNL     1      -3.469  -4.801   0.011  0.00  0.00    -0.251 OA
ATOM      8  N   UNL     1      -1.248  -4.833  -0.011  0.00  0.00    -0.247 N 
ATOM      9  C   UNL     1      -1.226  -6.223  -0.019  0.00  0.00    +0.166 A 
ATOM     10  N   UNL     1      -2.244  -7.056  -0.019  0.00  0.00    -0.233 NA
ATOM     11  C   UNL     1      -2.056  -8.363  -0.028  0.00  0.00    +0.120 A 
ATOM     12  C   UNL     1      -0.773  -8.800  -0.037  0.00  0.00    +0.068 A 
ATOM     13  S   UNL     1       0.108  -7.248  -0.038  0.00  0.00    -0.060 S 
ATOM     14  H   UNL     1      -3.294  -2.358   0.022  0.00  0.00    +0.174 HD
ATOM     15  H   UNL     1      -0.416  -4.335  -0.017  0.00  0.00    +0.158 HD
ENDBRANCH   3   5
BRANCH   1  21
ATOM     16  C   UNL     1      -0.017   1.392   0.010  0.00  0.00    +0.016 A 
ATOM     17  C   UNL     1       1.169   2.095   0.002  0.00  0.00    +0.039 A 
ATOM     18  C   UNL     1       2.379   1.418  -0.013  0.00  0.00    +0.123 A 
ATOM     19  C   UNL     1       2.403   0.032  -0.021  0.00  0.00    +0.039 A 
ATOM     20  C   UNL     1       1.224  -0.681  -0.014  0.00  0.00    +0.016 A 
ATOM     21  C   UNL     1       0.002  -0.004   0.002  0.00  0.00    +0.038 A 
ATOM     22  F   UNL     1       3.538   2.112  -0.021  0.00  0.00    -0.205 F 
ENDBRANCH   1  21
TORSDOF 2
