REMARK  Name = ZINC16572409
REMARK  5 active torsions:
REMARK  status: ('A' for Active; 'I' for Inactive)
REMARK    1  A    between atoms: C_1  and  C_2
REMARK    2  A    between atoms: C_6  and  N_9
REMARK    3  A    between atoms: C_7  and  C_8
REMARK    4  A    between atoms: C_16  and  C_18
REMARK    5  A    between atoms: C_24  and  C_26
REMARK                            x       y       z     vdW  Elec       q    Type
REMARK                         _______ _______ _______ _____ _____    ______ ____
ROOT
ATOM      1  N   UNL     1      -2.818   1.560   0.055  0.00  0.00    -0.269 N 
ATOM      2  C   UNL     1      -4.161   1.675   0.063  0.00  0.00    +0.307 C 
ATOM      3  O   UNL     1      -4.732   2.067   1.062  0.00  0.00    -0.252 OA
ATOM      4  N   UNL     1      -4.872   1.356  -1.037  0.00  0.00    -0.274 N 
ATOM      5  C   UNL     1      -4.310   0.876  -2.313  0.00  0.00    +0.110 C 
ATOM      6  C   UNL     1      -5.467   0.088  -2.982  0.00  0.00    +0.021 C 
ATOM      7  C   UNL     1      -6.696   0.948  -2.585  0.00  0.00    +0.033 C 
ATOM      8  C   UNL     1      -6.334   1.434  -1.166  0.00  0.00    +0.164 C 
ATOM      9  H   UNL     1      -2.357   1.326  -0.766  0.00  0.00    +0.156 HD
ENDROOT
BRANCH   8  10
ATOM     10  C   UNL     1      -6.987   0.546  -0.138  0.00  0.00    +0.239 C 
ATOM     11  O   UNL     1      -6.347  -0.334   0.398  0.00  0.00    -0.273 OA
ATOM     12  N   UNL     1      -8.282   0.731   0.187  0.00  0.00    -0.262 N 
ATOM     13  C   UNL     1      -8.884  -0.088   1.135  0.00  0.00    +0.188 A 
ATOM     14  N   UNL     1      -8.381  -1.100   1.830  0.00  0.00    -0.125 NA
ATOM     15  N   UNL     1      -9.073  -1.744   2.664  0.00  0.00    -0.140 NA
ATOM     16  C   UNL     1     -10.349  -1.455   2.889  0.00  0.00    +0.134 A 
ATOM     17  S   UNL     1     -10.562  -0.082   1.760  0.00  0.00    -0.030 S 
ATOM     18  H   UNL     1      -8.794   1.435  -0.241  0.00  0.00    +0.157 HD
BRANCH  16  19
ATOM     19  C   UNL     1     -11.318  -2.087   3.809  0.00  0.00    +0.009 A 
ATOM     20  C   UNL     1     -12.626  -1.608   3.886  0.00  0.00    +0.012 A 
ATOM     21  C   UNL     1     -13.527  -2.204   4.744  0.00  0.00    +0.016 A 
ATOM     22  C   UNL     1     -13.133  -3.270   5.534  0.00  0.00    +0.018 A 
ATOM     23  C   UNL     1     -11.835  -3.748   5.466  0.00  0.00    +0.016 A 
ATOM     24  C   UNL     1     -10.927  -3.162   4.609  0.00  0.00    +0.012 A 
ATOM     25 BR   UNL     1     -14.372  -4.077   6.713  0.00  0.00    -0.050 Br
ENDBRANCH  16  19
ENDBRANCH   8  10
BRANCH   1  31
ATOM     26  C   UNL     1       1.400   2.808   2.251  0.00  0.00    +0.044 C 
ATOM     27  C   UNL     1      -0.044   2.383   2.324  0.00  0.00    -0.046 A 
ATOM     28  C   UNL     1      -0.653   2.213   3.554  0.00  0.00    +0.004 A 
ATOM     29  C   UNL     1      -1.978   1.823   3.625  0.00  0.00    +0.002 A 
ATOM     30  C   UNL     1      -2.697   1.602   2.467  0.00  0.00    +0.023 A 
ATOM     31  C   UNL     1      -2.091   1.778   1.230  0.00  0.00    +0.038 A 
ATOM     32  C   UNL     1      -0.758   2.163   1.162  0.00  0.00    -0.026 A 
ATOM     33  C   UNL     1      -0.094   2.349  -0.178  0.00  0.00    +0.046 C 
ENDBRANCH   1  31
TORSDOF 3
