REMARK  Name = ZINC39980655
REMARK  3 active torsions:
REMARK  status: ('A' for Active; 'I' for Inactive)
REMARK    1  A    between atoms: C_11  and  C_13
REMARK    2  A    between atoms: C_18  and  C_29
REMARK    3  A    between atoms: C_21  and  C_24
REMARK                            x       y       z     vdW  Elec       q    Type
REMARK                         _______ _______ _______ _____ _____    ______ ____
ROOT
ATOM      1  C   UNL     1       4.632  -5.717  -0.072  0.00  0.00    +0.149 A 
ATOM      2  C   UNL     1       5.948  -6.233  -0.082  0.00  0.00    +0.078 A 
ATOM      3  C   UNL     1       5.858  -7.577  -0.089  0.00  0.00    +0.119 A 
ATOM      4  N   UNL     1       4.534  -7.915  -0.083  0.00  0.00    -0.238 N 
ATOM      5  N   UNL     1       3.790  -6.736  -0.068  0.00  0.00    -0.164 NA
ATOM      6  C   UNL     1       4.048  -9.298  -0.084  0.00  0.00    +0.215 C 
ATOM      7  C   UNL     1       5.177 -10.221   0.387  0.00  0.00    +0.066 C 
ATOM      8  C   UNL     1       6.459  -9.920  -0.398  0.00  0.00    +0.140 C 
ATOM      9  N   UNL     1       6.876  -8.535  -0.103  0.00  0.00    -0.319 N 
ATOM     10  H   UNL     1       7.801  -8.303   0.071  0.00  0.00    +0.148 HD
ENDROOT
BRANCH   1  21
ATOM     11  C   UNL     1      -0.017   1.366   0.010  0.00  0.00    +0.002 A 
ATOM     12  C   UNL     1       1.156   2.107   0.002  0.00  0.00    +0.001 A 
ATOM     13  C   UNL     1       2.373   1.450  -0.013  0.00  0.00    +0.017 A 
ATOM     14  C   UNL     1       2.401   0.077  -0.021  0.00  0.00    +0.041 A 
ATOM     15  C   UNL     1       1.227  -0.710  -0.013  0.00  0.00    +0.080 A 
ATOM     16  C   UNL     1       0.002  -0.004   0.002  0.00  0.00    +0.029 A 
ATOM     17  N   UNL     1       1.420  -2.047  -0.023  0.00  0.00    -0.225 NA
ATOM     18  C   UNL     1       2.616  -2.587  -0.037  0.00  0.00    +0.166 A 
ATOM     19  S   UNL     1       3.682  -1.153  -0.039  0.00  0.00    -0.052 S 
ATOM     20  N   UNL     1       2.963  -3.928  -0.047  0.00  0.00    -0.259 N 
ATOM     21  C   UNL     1       4.262  -4.287  -0.061  0.00  0.00    +0.270 C 
ATOM     22  O   UNL     1       5.128  -3.435  -0.066  0.00  0.00    -0.268 OA
ATOM     23  H   UNL     1       2.271  -4.608  -0.043  0.00  0.00    +0.157 HD
ENDBRANCH   1  21
BRANCH   8  24
ATOM     24  C   UNL     1       7.545 -10.879   0.018  0.00  0.00    +0.125 A 
ATOM     25  C   UNL     1       7.924 -11.979  -0.657  0.00  0.00    +0.046 A 
ATOM     26  C   UNL     1       8.966 -12.577   0.088  0.00  0.00    +0.041 A 
ATOM     27  C   UNL     1       9.161 -11.808   1.174  0.00  0.00    +0.195 A 
ATOM     28  O   UNL     1       8.301 -10.777   1.124  0.00  0.00    -0.466 OA
ENDBRANCH   8  24
BRANCH   6  29
ATOM     29  C   UNL     1       2.853  -9.422   0.864  0.00  0.00    +0.412 C 
ATOM     30  F   UNL     1       1.830  -8.568   0.438  0.00  0.00    -0.168 F 
ATOM     31  F   UNL     1       2.391 -10.742   0.862  0.00  0.00    -0.168 F 
ATOM     32  F   UNL     1       3.246  -9.068   2.159  0.00  0.00    -0.168 F 
ENDBRANCH   6  29
TORSDOF 3
