REMARK  Name = ZINC19317396
REMARK  12 active torsions:
REMARK  status: ('A' for Active; 'I' for Inactive)
REMARK    1  A    between atoms: C_1  and  C_2
REMARK    2  A    between atoms: C_2  and  C_3
REMARK    3  A    between atoms: C_2  and  C_4
REMARK    4  A    between atoms: C_2  and  C_5
REMARK    5  A    between atoms: C_12  and  C_14
REMARK    6  A    between atoms: C_17  and  S_20
REMARK    7  A    between atoms: N_18  and  C_19
REMARK    8  A    between atoms: S_20  and  C_21
REMARK    9  A    between atoms: C_21  and  C_22
REMARK   10  A    between atoms: N_24  and  C_25
REMARK   11  A    between atoms: C_29  and  C_31
REMARK   12  A    between atoms: N_33  and  C_34
REMARK                            x       y       z     vdW  Elec       q    Type
REMARK                         _______ _______ _______ _____ _____    ______ ____
ROOT
ATOM      1  C   UNL     1      -7.778 -10.848  -0.610  0.00  0.00    +0.171 A 
ATOM      2  N   UNL     1      -8.178  -9.599  -0.521  0.00  0.00    -0.128 NA
ATOM      3  N   UNL     1      -7.162  -8.818  -0.424  0.00  0.00    -0.122 NA
ATOM      4  C   UNL     1      -6.051  -9.518  -0.445  0.00  0.00    +0.192 A 
ATOM      5  N   UNL     1      -6.401 -10.834  -0.569  0.00  0.00    -0.305 N 
ATOM      6  C   UNL     1      -5.501 -11.987  -0.641  0.00  0.00    +0.153 C 
ENDROOT
BRANCH   1  13
ATOM      7  C   UNL     1     -12.528 -14.901  -1.012  0.00  0.00    -0.001 C 
ATOM      8  C   UNL     1     -11.594 -15.982  -1.564  0.00  0.00    +0.009 C 
ATOM      9  C   UNL     1     -10.239 -15.875  -0.849  0.00  0.00    +0.043 C 
ATOM     10  C   UNL     1      -9.819 -14.441  -0.850  0.00  0.00    -0.006 A 
ATOM     11  C   UNL     1     -10.590 -13.350  -1.125  0.00  0.00    -0.036 A 
ATOM     12  C   UNL     1      -9.966 -12.111  -1.056  0.00  0.00    +0.023 A 
ATOM     13  C   UNL     1      -8.637 -12.037  -0.735  0.00  0.00    +0.057 A 
ATOM     14  S   UNL     1      -8.221 -13.758  -0.501  0.00  0.00    -0.090 S 
ATOM     15  C   UNL     1     -12.065 -13.521  -1.480  0.00  0.00    +0.040 C 
BRANCH   7  17
ATOM     16  C   UNL     1     -13.972 -15.100  -3.042  0.00  0.00    +0.011 C 
ATOM     17  C   UNL     1     -13.951 -15.155  -1.513  0.00  0.00    -0.035 C 
ATOM     18  C   UNL     1     -14.417 -16.536  -1.046  0.00  0.00    +0.011 C 
ATOM     19  C   UNL     1     -14.888 -14.085  -0.951  0.00  0.00    +0.011 C 
ENDBRANCH   7  17
ENDBRANCH   1  13
BRANCH   4  20
ATOM     20  S   UNL     1      -4.412  -8.879  -0.339  0.00  0.00    -0.077 S 
BRANCH  20  21
ATOM     21  C   UNL     1      -4.773  -7.110  -0.206  0.00  0.00    +0.173 C 
BRANCH  21  22
ATOM     22  C   UNL     1      -3.481  -6.340  -0.100  0.00  0.00    +0.227 C 
ATOM     23  O   UNL     1      -2.421  -6.930  -0.114  0.00  0.00    -0.275 OA
ATOM     24  N   UNL     1      -3.504  -4.997   0.009  0.00  0.00    -0.285 N 
ATOM     25  H   UNL     1      -4.464  -4.470   0.108  0.00  0.00    +0.155 HD
BRANCH  24  26
ATOM     26  C   UNL     1      -2.306  -4.274  -0.005  0.00  0.00    +0.034 A 
ATOM     27  C   UNL     1      -2.189  -3.111   0.747  0.00  0.00    +0.023 A 
ATOM     28  C   UNL     1      -1.008  -2.393   0.738  0.00  0.00    +0.003 A 
ATOM     29  C   UNL     1       0.064  -2.828  -0.015  0.00  0.00    +0.013 A 
ATOM     30  C   UNL     1      -0.045  -3.992  -0.777  0.00  0.00    +0.038 A 
ATOM     31  C   UNL     1      -1.237  -4.717  -0.767  0.00  0.00    +0.036 A 
BRANCH  30  32
ATOM     32  C   UNL     1       1.100  -4.459  -1.588  0.00  0.00    +0.244 C 
ATOM     33  O   UNL     1       1.003  -5.475  -2.247  0.00  0.00    -0.270 OA
ATOM     34  N   UNL     1       2.250  -3.757  -1.596  0.00  0.00    -0.314 N 
ATOM     35  C   UNL     1       3.385  -4.219  -2.399  0.00  0.00    +0.128 C 
ATOM     36  H   UNL     1       2.337  -2.837  -0.999  0.00  0.00    +0.149 HD
ENDBRANCH  30  32
ENDBRANCH  24  26
ENDBRANCH  21  22
ENDBRANCH  20  21
ENDBRANCH   4  20
TORSDOF 7
