REMARK  Name = ZINC01884936
REMARK  7 active torsions:
REMARK  status: ('A' for Active; 'I' for Inactive)
REMARK    1  A    between atoms: C_1  and  C_2
REMARK    2  A    between atoms: C_5  and  S_8
REMARK    3  A    between atoms: S_8  and  N_11
REMARK    4  A    between atoms: N_11  and  C_12
REMARK    5  A    between atoms: C_12  and  C_31
REMARK    6  A    between atoms: N_20  and  C_25
REMARK    7  A    between atoms: C_25  and  C_26
REMARK                            x       y       z     vdW  Elec       q    Type
REMARK                         _______ _______ _______ _____ _____    ______ ____
ROOT
ATOM      1  C   UNL     1       2.708  -4.421   1.682  0.00  0.00    +0.245 C 
ATOM      2  C   UNL     1       4.037  -4.631   0.993  0.00  0.00    +0.092 C 
ATOM      3  C   UNL     1       4.656  -5.707   0.441  0.00  0.00    +0.253 C 
ATOM      4  O   UNL     1       4.054  -6.914   0.445  0.00  0.00    -0.270 OA
ATOM      5  N   UNL     1       5.898  -5.555  -0.121  0.00  0.00    -0.236 N 
ATOM      6  H   UNL     1       6.345  -6.319  -0.517  0.00  0.00    +0.159 HD
ATOM      7  C   UNL     1       6.500  -4.352  -0.126  0.00  0.00    +0.314 C 
ATOM      8  O   UNL     1       7.601  -4.240  -0.630  0.00  0.00    -0.252 OA
ATOM      9  N   UNL     1       5.910  -3.270   0.413  0.00  0.00    -0.234 N 
ATOM     10  C   UNL     1       4.660  -3.375   0.991  0.00  0.00    +0.133 C 
ATOM     11  N   UNL     1       3.887  -2.466   1.577  0.00  0.00    -0.163 NA
ATOM     12  C   UNL     1       2.735  -2.942   2.019  0.00  0.00    +0.273 C 
ATOM     13  O   UNL     1       1.862  -2.313   2.587  0.00  0.00    -0.271 OA
ENDROOT
BRANCH   1  14
ATOM     14  C   UNL     1       2.614  -5.265   2.955  0.00  0.00    +0.422 C 
ATOM     15  F   UNL     1       2.550  -6.620   2.612  0.00  0.00    -0.168 F 
ATOM     16  F   UNL     1       3.741  -5.037   3.750  0.00  0.00    -0.168 F 
ATOM     17  F   UNL     1       1.462  -4.909   3.665  0.00  0.00    -0.168 F 
ENDBRANCH   1  14
BRANCH   1  18
ATOM     18  N   UNL     1       1.599  -4.727   0.775  0.00  0.00    -0.162 NA
ATOM     19  H   UNL     1       0.957  -5.414   1.010  0.00  0.00    +0.150 HD
BRANCH  18  20
ATOM     20  S   UNL     1       1.444  -3.899  -0.651  0.00  0.00    +0.060 S 
ATOM     21  O   UNL     1       0.314  -4.447  -1.317  0.00  0.00    -0.153 OA
ATOM     22  O   UNL     1       2.735  -3.865  -1.244  0.00  0.00    -0.153 OA
BRANCH  20  27
ATOM     23  C   UNL     1       0.032   1.801   0.735  0.00  0.00    +0.044 C 
ATOM     24  C   UNL     1       0.385   0.377   0.389  0.00  0.00    -0.050 A 
ATOM     25  C   UNL     1       1.696   0.037   0.113  0.00  0.00    +0.005 A 
ATOM     26  C   UNL     1       2.019  -1.269  -0.204  0.00  0.00    +0.029 A 
ATOM     27  C   UNL     1       1.032  -2.235  -0.245  0.00  0.00    +0.105 A 
ATOM     28  C   UNL     1      -0.279  -1.895   0.031  0.00  0.00    +0.029 A 
ATOM     29  C   UNL     1      -0.602  -0.590   0.353  0.00  0.00    +0.005 A 
ENDBRANCH  20  27
ENDBRANCH  18  20
ENDBRANCH   1  18
BRANCH   9  30
ATOM     30  C   UNL     1       6.597  -1.976   0.388  0.00  0.00    +0.190 C 
BRANCH  30  31
ATOM     31  C   UNL     1       6.338  -1.296  -0.931  0.00  0.00    +0.123 A 
ATOM     32  C   UNL     1       5.335  -0.438  -1.191  0.00  0.00    +0.046 A 
ATOM     33  C   UNL     1       5.471  -0.046  -2.542  0.00  0.00    +0.041 A 
ATOM     34  C   UNL     1       6.549  -0.687  -3.028  0.00  0.00    +0.195 A 
ATOM     35  O   UNL     1       7.074  -1.438  -2.046  0.00  0.00    -0.466 OA
ENDBRANCH  30  31
ENDBRANCH   9  30
TORSDOF 6
