REMARK  Name = ZINC03312834
REMARK  6 active torsions:
REMARK  status: ('A' for Active; 'I' for Inactive)
REMARK    1  A    between atoms: C_6  and  C_7
REMARK    2  A    between atoms: C_10  and  S_13
REMARK    3  A    between atoms: N_11  and  N_12
REMARK    4  A    between atoms: S_13  and  C_14
REMARK    5  A    between atoms: C_14  and  C_15
REMARK    6  A    between atoms: C_15  and  C_17
REMARK                            x       y       z     vdW  Elec       q    Type
REMARK                         _______ _______ _______ _____ _____    ______ ____
ROOT
ATOM      1  C   UNL     1       5.536  -6.616   0.089  0.00  0.00    +0.182 A 
ATOM      2  N   UNL     1       4.235  -6.486  -0.030  0.00  0.00    -0.127 NA
ATOM      3  N   UNL     1       3.935  -5.252  -0.229  0.00  0.00    -0.121 NA
ATOM      4  C   UNL     1       5.026  -4.521  -0.258  0.00  0.00    +0.209 A 
ATOM      5  N   UNL     1       6.082  -5.362  -0.053  0.00  0.00    -0.224 N 
ENDROOT
BRANCH   1  11
ATOM      6  C   UNL     1       5.654  -9.104   0.110  0.00  0.00    +0.013 A 
ATOM      7  C   UNL     1       6.349 -10.274   0.332  0.00  0.00    +0.021 A 
ATOM      8  C   UNL     1       7.657 -10.230   0.784  0.00  0.00    +0.041 A 
ATOM      9  C   UNL     1       8.277  -9.012   1.011  0.00  0.00    +0.021 A 
ATOM     10  C   UNL     1       7.593  -7.836   0.787  0.00  0.00    +0.013 A 
ATOM     11  C   UNL     1       6.274  -7.874   0.331  0.00  0.00    +0.021 A 
ATOM     12 CL   UNL     1       8.524 -11.707   1.069  0.00  0.00    -0.084 Cl
ENDBRANCH   1  11
BRANCH   5  13
ATOM     13  N   UNL     1       7.406  -5.027   0.000  0.00  0.00    -0.295 N 
ATOM     14  H   UNL     1       7.707  -4.891   0.953  0.00  0.00    +0.163 HD
ATOM     15  H   UNL     1       7.973  -5.721  -0.463  0.00  0.00    +0.163 HD
ENDBRANCH   5  13
BRANCH   4  16
ATOM     16  S   UNL     1       5.110  -2.778  -0.506  0.00  0.00    -0.077 S 
BRANCH  16  17
ATOM     17  C   UNL     1       3.350  -2.403  -0.697  0.00  0.00    +0.157 C 
BRANCH  17  18
ATOM     18  C   UNL     1       3.174  -0.924  -0.927  0.00  0.00    +0.173 C 
ATOM     19  O   UNL     1       4.143  -0.195  -0.959  0.00  0.00    -0.291 OA
BRANCH  18  20
ATOM     20  C   UNL     1       1.829  -0.365  -1.113  0.00  0.00    +0.022 A 
ATOM     21  C   UNL     1       0.708  -1.203  -1.077  0.00  0.00    +0.015 A 
ATOM     22  C   UNL     1      -0.551  -0.675  -1.254  0.00  0.00    +0.050 A 
ATOM     23  C   UNL     1      -0.716   0.689  -1.468  0.00  0.00    +0.162 A 
ATOM     24  C   UNL     1       0.395   1.530  -1.503  0.00  0.00    +0.163 A 
ATOM     25  C   UNL     1       1.662   1.009  -1.327  0.00  0.00    +0.060 A 
ATOM     26  O   UNL     1       0.248   2.869  -1.703  0.00  0.00    -0.485 OA
ATOM     27  C   UNL     1      -1.004   3.305  -2.245  0.00  0.00    +0.270 C 
ATOM     28  C   UNL     1      -2.131   2.598  -1.480  0.00  0.00    +0.270 C 
ATOM     29  O   UNL     1      -1.968   1.185  -1.648  0.00  0.00    -0.485 OA
ENDBRANCH  18  20
ENDBRANCH  17  18
ENDBRANCH  16  17
ENDBRANCH   4  16
TORSDOF 6
