REMARK  Name = ZINC09459673
REMARK  9 active torsions:
REMARK  status: ('A' for Active; 'I' for Inactive)
REMARK    1  A    between atoms: C_1  and  C_2
REMARK    2  A    between atoms: C_5  and  S_8
REMARK    3  A    between atoms: S_8  and  N_11
REMARK    4  A    between atoms: C_14  and  C_17
REMARK    5  A    between atoms: N_19  and  C_20
REMARK    6  A    between atoms: C_20  and  C_22
REMARK    7  A    between atoms: C_20  and  C_23
REMARK    8  A    between atoms: N_25  and  C_26
REMARK    9  A    between atoms: C_30  and  C_32
REMARK                            x       y       z     vdW  Elec       q    Type
REMARK                         _______ _______ _______ _____ _____    ______ ____
ROOT
ATOM      1  C   UNL     1      -0.180   1.565  -0.344  0.00  0.00    +0.217 C 
ATOM      2  O   UNL     1      -1.205   2.198  -0.201  0.00  0.00    -0.275 OA
ATOM      3  N   UNL     1       1.010   2.198  -0.332  0.00  0.00    -0.304 N 
ATOM      4  H   UNL     1       1.829   1.693  -0.449  0.00  0.00    +0.149 HD
ENDROOT
BRANCH   1   8
ATOM      5  N   UNL     1      -1.021  -2.280  -1.900  0.00  0.00    -0.177 NA
ATOM      6  C   UNL     1      -1.748  -1.912  -0.678  0.00  0.00    +0.110 C 
ATOM      7  C   UNL     1      -1.696  -0.390  -0.513  0.00  0.00    +0.030 C 
ATOM      8  C   UNL     1      -0.237   0.072  -0.540  0.00  0.00    +0.077 C 
ATOM      9  C   UNL     1       0.389  -0.289  -1.889  0.00  0.00    +0.030 C 
ATOM     10  C   UNL     1       0.361  -1.810  -2.069  0.00  0.00    +0.110 C 
BRANCH   5  11
ATOM     11  S   UNL     1      -1.745  -3.209  -3.065  0.00  0.00    +0.061 S 
ATOM     12  O   UNL     1      -0.698  -3.841  -3.789  0.00  0.00    -0.153 OA
ATOM     13  O   UNL     1      -2.775  -3.942  -2.418  0.00  0.00    -0.153 OA
BRANCH  11  18
ATOM     14  C   UNL     1      -4.468   0.558  -6.912  0.00  0.00    +0.044 C 
ATOM     15  C   UNL     1      -3.788  -0.383  -5.951  0.00  0.00    -0.050 A 
ATOM     16  C   UNL     1      -2.477  -0.765  -6.169  0.00  0.00    +0.005 A 
ATOM     17  C   UNL     1      -1.853  -1.628  -5.288  0.00  0.00    +0.029 A 
ATOM     18  C   UNL     1      -2.540  -2.108  -4.188  0.00  0.00    +0.105 A 
ATOM     19  C   UNL     1      -3.852  -1.730  -3.973  0.00  0.00    +0.029 A 
ATOM     20  C   UNL     1      -4.474  -0.863  -4.852  0.00  0.00    +0.005 A 
ENDBRANCH  11  18
ENDBRANCH   5  11
ENDBRANCH   1   8
BRANCH   3  21
ATOM     21  C   UNL     1       1.065   3.650  -0.141  0.00  0.00    +0.156 C 
ATOM     22  C   UNL     1       1.046   3.969   1.356  0.00  0.00    +0.038 C 
BRANCH  21  23
ATOM     23  C   UNL     1       2.332   4.189  -0.753  0.00  0.00    +0.237 C 
ATOM     24  O   UNL     1       3.112   3.435  -1.295  0.00  0.00    -0.273 OA
ATOM     25  N   UNL     1       2.599   5.509  -0.698  0.00  0.00    -0.284 N 
ATOM     26  H   UNL     1       1.941   6.122  -0.333  0.00  0.00    +0.155 HD
BRANCH  25  27
ATOM     27  C   UNL     1       3.824   5.995  -1.167  0.00  0.00    +0.034 A 
ATOM     28  C   UNL     1       4.974   5.226  -1.038  0.00  0.00    +0.024 A 
ATOM     29  C   UNL     1       6.181   5.707  -1.506  0.00  0.00    +0.017 A 
ATOM     30  C   UNL     1       6.248   6.958  -2.094  0.00  0.00    +0.021 A 
ATOM     31  C   UNL     1       5.105   7.728  -2.219  0.00  0.00    -0.035 A 
ATOM     32  C   UNL     1       3.894   7.250  -1.757  0.00  0.00    +0.027 A 
ATOM     33  C   UNL     1       5.182   9.090  -2.859  0.00  0.00    +0.045 C 
ATOM     34 BR   UNL     1       7.903   7.615  -2.728  0.00  0.00    -0.050 Br
ENDBRANCH  25  27
ENDBRANCH  21  23
ENDBRANCH   3  21
TORSDOF 6
