REMARK  Name = ZINC50367438
REMARK  5 active torsions:
REMARK  status: ('A' for Active; 'I' for Inactive)
REMARK    1  A    between atoms: C_1  and  O_2
REMARK    2  A    between atoms: O_2  and  C_3
REMARK    3  A    between atoms: C_8  and  N_10
REMARK    4  A    between atoms: C_11  and  C_13
REMARK    5  A    between atoms: C_15  and  N_21
REMARK                            x       y       z     vdW  Elec       q    Type
REMARK                         _______ _______ _______ _____ _____    ______ ____
ROOT
ATOM      1  N   UNL     1       0.106  -2.239  -1.180  0.00  0.00    -0.306 N 
ATOM      2  C   UNL     1       0.299  -3.067  -2.225  0.00  0.00    +0.244 C 
ATOM      3  O   UNL     1      -0.653  -3.587  -2.773  0.00  0.00    -0.270 OA
ATOM      4  H   UNL     1       0.866  -1.824  -0.743  0.00  0.00    +0.149 HD
ENDROOT
BRANCH   2   5
ATOM      5  C   UNL     1       1.669  -3.344  -2.706  0.00  0.00    +0.040 A 
ATOM      6  C   UNL     1       1.871  -4.197  -3.791  0.00  0.00    +0.037 A 
ATOM      7  C   UNL     1       3.158  -4.453  -4.237  0.00  0.00    +0.045 A 
ATOM      8  C   UNL     1       4.245  -3.859  -3.602  0.00  0.00    +0.080 A 
ATOM      9  C   UNL     1       4.044  -3.013  -2.525  0.00  0.00    +0.062 A 
ATOM     10  C   UNL     1       2.764  -2.748  -2.078  0.00  0.00    +0.034 A 
ATOM     11 CL   UNL     1       5.405  -2.277  -1.737  0.00  0.00    -0.082 Cl
ATOM     12 CL   UNL     1       5.856  -4.181  -4.162  0.00  0.00    -0.080 Cl
BRANCH   7  13
ATOM     13  N   UNL     1       3.365  -5.307  -5.324  0.00  0.00    -0.357 N 
ATOM     14  H   UNL     1       2.608  -5.721  -5.766  0.00  0.00    +0.142 HD
ATOM     15  H   UNL     1       4.266  -5.485  -5.636  0.00  0.00    +0.142 HD
ENDBRANCH   7  13
ENDBRANCH   2   5
BRANCH   1  20
ATOM     16  C   UNL     1      -1.295  -0.603   0.011  0.00  0.00    +0.138 C 
ATOM     17  C   UNL     1      -1.739  -0.880   1.462  0.00  0.00    +0.033 C 
ATOM     18  C   UNL     1      -2.501  -2.226   1.376  0.00  0.00    +0.004 C 
ATOM     19  C   UNL     1      -1.671  -3.023   0.339  0.00  0.00    +0.025 C 
ATOM     20  C   UNL     1      -1.252  -1.965  -0.704  0.00  0.00    +0.102 C 
BRANCH  16  22
ATOM     21  C   UNL     1      -0.017   1.425   0.010  0.00  0.00    +0.194 C 
ATOM     22  O   UNL     1       0.002  -0.004   0.002  0.00  0.00    -0.378 OA
ENDBRANCH  16  22
ENDBRANCH   1  20
TORSDOF 4
