REMARK  Name = ZINC09925431
REMARK  7 active torsions:
REMARK  status: ('A' for Active; 'I' for Inactive)
REMARK    1  A    between atoms: C_4  and  N_7
REMARK    2  A    between atoms: C_8  and  C_10
REMARK    3  A    between atoms: C_15  and  N_16
REMARK    4  A    between atoms: C_17  and  C_19
REMARK    5  A    between atoms: C_22  and  O_26
REMARK    6  A    between atoms: O_26  and  C_27
REMARK    7  A    between atoms: C_27  and  C_28
REMARK                            x       y       z     vdW  Elec       q    Type
REMARK                         _______ _______ _______ _____ _____    ______ ____
ROOT
ATOM      1  N   UNL     1       7.212   1.410  -0.157  0.00  0.00    -0.281 N 
ATOM      2  C   UNL     1       8.402   2.036  -0.075  0.00  0.00    +0.248 C 
ATOM      3  O   UNL     1       9.433   1.399  -0.173  0.00  0.00    -0.270 OA
ATOM      4  H   UNL     1       6.390   1.926  -0.146  0.00  0.00    +0.155 HD
ENDROOT
BRANCH   2   5
ATOM      5  C   UNL     1       8.455   3.496   0.132  0.00  0.00    +0.038 A 
ATOM      6  C   UNL     1       9.688   4.148   0.218  0.00  0.00    +0.017 A 
ATOM      7  C   UNL     1       9.734   5.510   0.412  0.00  0.00    +0.047 A 
ATOM      8  C   UNL     1       8.555   6.238   0.523  0.00  0.00    +0.135 A 
ATOM      9  C   UNL     1       7.325   5.594   0.439  0.00  0.00    +0.060 A 
ATOM     10  C   UNL     1       7.272   4.232   0.239  0.00  0.00    +0.032 A 
ATOM     11 BR   UNL     1       5.725   6.590   0.591  0.00  0.00    -0.046 Br
BRANCH   8  12
ATOM     12  O   UNL     1       8.604   7.581   0.715  0.00  0.00    -0.488 OA
BRANCH  12  13
ATOM     13  C   UNL     1       9.900   8.178   0.792  0.00  0.00    +0.260 C 
BRANCH  13  14
ATOM     14  C   UNL     1       9.755   9.686   1.008  0.00  0.00    +0.156 C 
ATOM     15  C   UNL     1      11.143  10.322   1.211  0.00  0.00    +0.037 C 
ATOM     16  C   UNL     1      11.248  11.373   0.079  0.00  0.00    +0.031 C 
ATOM     17  C   UNL     1       9.759  11.605  -0.287  0.00  0.00    +0.160 C 
ATOM     18  O   UNL     1       9.169  10.292  -0.155  0.00  0.00    -0.373 OA
ENDBRANCH  13  14
ENDBRANCH  12  13
ENDBRANCH   8  12
ENDBRANCH   2   5
BRANCH   1  24
ATOM     19  C   UNL     1       6.125  -0.692   0.362  0.00  0.00    +0.058 A 
ATOM     20  C   UNL     1       6.089  -2.085   0.258  0.00  0.00    +0.015 A 
ATOM     21  C   UNL     1       7.061  -2.746  -0.460  0.00  0.00    +0.001 A 
ATOM     22  C   UNL     1       8.083  -2.037  -1.072  0.00  0.00    +0.002 A 
ATOM     23  C   UNL     1       8.135  -0.661  -0.974  0.00  0.00    +0.024 A 
ATOM     24  C   UNL     1       7.161   0.023  -0.259  0.00  0.00    +0.046 A 
BRANCH  19  26
ATOM     25  N   UNL     1       4.149  -0.673   1.802  0.00  0.00    -0.281 N 
ATOM     26  C   UNL     1       5.084   0.022   1.125  0.00  0.00    +0.250 C 
ATOM     27  O   UNL     1       5.070   1.238   1.142  0.00  0.00    -0.270 OA
ATOM     28  H   UNL     1       4.199  -1.641   1.843  0.00  0.00    +0.155 HD
BRANCH  25  32
ATOM     29  C   UNL     1       1.045   1.336   3.721  0.00  0.00    +0.000 A 
ATOM     30  C   UNL     1       2.304   1.904   3.667  0.00  0.00    +0.002 A 
ATOM     31  C   UNL     1       3.336   1.240   3.032  0.00  0.00    +0.023 A 
ATOM     32  C   UNL     1       3.107   0.002   2.446  0.00  0.00    +0.034 A 
ATOM     33  C   UNL     1       1.840  -0.566   2.502  0.00  0.00    +0.023 A 
ATOM     34  C   UNL     1       0.813   0.103   3.139  0.00  0.00    +0.002 A 
ENDBRANCH  25  32
ENDBRANCH  19  26
ENDBRANCH   1  24
TORSDOF 7
