REMARK  Name = ZINC39686515
REMARK  8 active torsions:
REMARK  status: ('A' for Active; 'I' for Inactive)
REMARK    1  A    between atoms: C_1  and  C_2
REMARK    2  A    between atoms: C_2  and  C_4
REMARK    3  A    between atoms: C_2  and  N_13
REMARK    4  A    between atoms: C_4  and  C_5
REMARK    5  A    between atoms: C_10  and  O_11
REMARK    6  A    between atoms: O_11  and  C_12
REMARK    7  A    between atoms: C_14  and  C_16
REMARK    8  A    between atoms: C_27  and  C_29
REMARK                            x       y       z     vdW  Elec       q    Type
REMARK                         _______ _______ _______ _____ _____    ______ ____
ROOT
ATOM      1  C   UNL     1       2.783  -0.420   2.246  0.00  0.00    +0.100 C 
ATOM      2  C   UNL     1       2.650   0.313   3.599  0.00  0.00    +0.121 C 
ATOM      3  N   UNL     1       3.982   0.172   4.234  0.00  0.00    -0.296 N 
ATOM      4  C   UNL     1       4.942   0.338   3.117  0.00  0.00    +0.115 C 
ATOM      5  C   UNL     1       4.289  -0.401   1.932  0.00  0.00    -0.004 C 
ATOM      6  C   UNL     1       4.548   0.353   0.632  0.00  0.00    -0.010 C 
ATOM      7  C   UNL     1       6.045   0.309   0.311  0.00  0.00    -0.082 C 
ATOM      8  N   UNL     1       6.478  -1.088   0.184  0.00  0.00    +0.379 N 
ATOM      9  C   UNL     1       6.312  -1.782   1.467  0.00  0.00    -0.082 C 
ATOM     10  C   UNL     1       4.827  -1.826   1.837  0.00  0.00    -0.010 C 
ATOM     11  C   UNL     1       4.258  -0.057   5.533  0.00  0.00    +0.247 C 
ATOM     12  O   UNL     1       3.357  -0.299   6.312  0.00  0.00    -0.270 OA
ATOM     13  H   UNL     1       5.923  -1.549  -0.521  0.00  0.00    -0.086 HD
ATOM     14  H   UNL     1       7.450  -1.114  -0.087  0.00  0.00    -0.086 HD
ENDROOT
BRANCH  11  15
ATOM     15  C   UNL     1       5.656  -0.012   6.011  0.00  0.00    +0.037 A 
ATOM     16  C   UNL     1       6.627   0.668   5.274  0.00  0.00    +0.014 A 
ATOM     17  C   UNL     1       7.930   0.706   5.725  0.00  0.00    +0.016 A 
ATOM     18  C   UNL     1       8.275   0.070   6.906  0.00  0.00    +0.018 A 
ATOM     19  C   UNL     1       7.317  -0.606   7.641  0.00  0.00    +0.016 A 
ATOM     20  C   UNL     1       6.009  -0.646   7.203  0.00  0.00    +0.014 A 
ATOM     21 BR   UNL     1      10.064   0.127   7.516  0.00  0.00    -0.050 Br
ENDBRANCH  11  15
BRANCH   1  23
ATOM     22  N   UNL     1       1.251  -0.378   0.304  0.00  0.00    -0.312 N 
ATOM     23  C   UNL     1       2.015   0.311   1.175  0.00  0.00    +0.218 C 
ATOM     24  O   UNL     1       2.084   1.519   1.097  0.00  0.00    -0.275 OA
ATOM     25  H   UNL     1       1.196  -1.345   0.367  0.00  0.00    +0.149 HD
BRANCH  22  27
ATOM     26  C   UNL     1      -0.833   0.811  -0.168  0.00  0.00    +0.028 C 
ATOM     27  C   UNL     1       0.504   0.332  -0.737  0.00  0.00    +0.074 C 
BRANCH  27  28
ATOM     28  C   UNL     1       0.250  -0.610  -1.915  0.00  0.00    +0.060 C 
BRANCH  28  29
ATOM     29  C   UNL     1       1.563  -0.984  -2.552  0.00  0.00    -0.004 A 
ATOM     30  C   UNL     1       2.031  -0.273  -3.641  0.00  0.00    +0.007 A 
ATOM     31  C   UNL     1       3.236  -0.616  -4.226  0.00  0.00    +0.000 A 
ATOM     32  C   UNL     1       3.976  -1.671  -3.723  0.00  0.00    +0.004 A 
ATOM     33  C   UNL     1       3.513  -2.384  -2.634  0.00  0.00    +0.046 A 
ATOM     34  C   UNL     1       2.307  -2.038  -2.042  0.00  0.00    +0.123 A 
BRANCH  34  35
ATOM     35  O   UNL     1       1.852  -2.735  -0.967  0.00  0.00    -0.495 OA
ATOM     36  C   UNL     1       2.670  -3.808  -0.496  0.00  0.00    +0.277 C 
ENDBRANCH  34  35
ENDBRANCH  28  29
ENDBRANCH  27  28
ENDBRANCH  22  27
ENDBRANCH   1  23
TORSDOF 6
