REMARK  Name = ZINC22925280
REMARK  6 active torsions:
REMARK  status: ('A' for Active; 'I' for Inactive)
REMARK    1  A    between atoms: C_4  and  C_7
REMARK    2  A    between atoms: C_18  and  C_20
REMARK    3  A    between atoms: C_20  and  N_21
REMARK    4  A    between atoms: N_24  and  C_27
REMARK    5  A    between atoms: C_27  and  C_28
REMARK    6  A    between atoms: N_30  and  C_31
REMARK                            x       y       z     vdW  Elec       q    Type
REMARK                         _______ _______ _______ _____ _____    ______ ____
ROOT
ATOM      1  C   UNL     1       3.028   3.941   0.246  0.00  0.00    +0.181 C 
ENDROOT
BRANCH   1  12
ATOM      2  C   UNL     1       1.990   2.238  -1.813  0.00  0.00    +0.149 C 
ATOM      3  C   UNL     1       1.188   2.264  -3.122  0.00  0.00    +0.256 C 
ATOM      4  O   UNL     1       0.021   1.453  -2.964  0.00  0.00    -0.488 OA
ATOM      5  C   UNL     1      -0.746   1.655  -1.860  0.00  0.00    +0.142 A 
ATOM      6  C   UNL     1      -2.065   1.226  -1.854  0.00  0.00    +0.047 A 
ATOM      7  C   UNL     1      -2.852   1.423  -0.735  0.00  0.00    +0.004 A 
ATOM      8  C   UNL     1      -2.330   2.050   0.383  0.00  0.00    +0.002 A 
ATOM      9  C   UNL     1      -1.017   2.482   0.385  0.00  0.00    +0.027 A 
ATOM     10  C   UNL     1      -0.224   2.287  -0.735  0.00  0.00    +0.079 A 
ATOM     11  N   UNL     1       1.109   2.731  -0.741  0.00  0.00    -0.256 N 
ATOM     12  C   UNL     1       1.566   3.579   0.203  0.00  0.00    +0.235 C 
ATOM     13  O   UNL     1       0.800   4.050   1.016  0.00  0.00    -0.274 OA
BRANCH   2  17
ATOM     14  C   UNL     1       3.224  -1.760  -0.950  0.00  0.00    +0.000 A 
ATOM     15  C   UNL     1       4.114  -0.870  -1.523  0.00  0.00    +0.000 A 
ATOM     16  C   UNL     1       3.714   0.423  -1.803  0.00  0.00    +0.005 A 
ATOM     17  C   UNL     1       2.425   0.828  -1.509  0.00  0.00    -0.023 A 
ATOM     18  C   UNL     1       1.538  -0.060  -0.930  0.00  0.00    +0.005 A 
ATOM     19  C   UNL     1       1.936  -1.355  -0.656  0.00  0.00    +0.000 A 
ENDBRANCH   2  17
ENDBRANCH   1  12
BRANCH   1  20
ATOM     20  N   UNL     1       3.266   4.886   1.345  0.00  0.00    -0.298 NA
ATOM     21  C   UNL     1       2.599   6.170   1.089  0.00  0.00    +0.066 C 
ATOM     22  C   UNL     1       2.804   7.097   2.289  0.00  0.00    -0.063 C 
ATOM     23  N   UNL     1       4.243   7.290   2.515  0.00  0.00    +0.387 N 
ATOM     24  C   UNL     1       4.911   6.006   2.771  0.00  0.00    -0.063 C 
ATOM     25  C   UNL     1       4.705   5.080   1.571  0.00  0.00    +0.066 C 
ATOM     26  H   UNL     1       4.676   7.722   1.600  0.00  0.00    -0.081 HD
BRANCH  23  27
ATOM     27  C   UNL     1       4.481   8.236   3.614  0.00  0.00    +0.019 C 
BRANCH  27  28
ATOM     28  C   UNL     1       5.943   8.598   3.657  0.00  0.00    +0.201 C 
ATOM     29  O   UNL     1       6.709   8.127   2.843  0.00  0.00    -0.278 OA
ATOM     30  N   UNL     1       6.400   9.447   4.599  0.00  0.00    -0.287 N 
ATOM     31  H   UNL     1       5.719   9.824   5.376  0.00  0.00    +0.155 HD
BRANCH  30  32
ATOM     32  C   UNL     1       7.740   9.849   4.589  0.00  0.00    +0.036 A 
ATOM     33  C   UNL     1       8.735   8.945   4.237  0.00  0.00    +0.023 A 
ATOM     34  C   UNL     1      10.057   9.344   4.224  0.00  0.00    +0.005 A 
ATOM     35  C   UNL     1      10.393  10.640   4.568  0.00  0.00    +0.038 A 
ATOM     36  C   UNL     1       9.405  11.543   4.925  0.00  0.00    +0.125 A 
ATOM     37  C   UNL     1       8.079  11.149   4.935  0.00  0.00    +0.061 A 
ATOM     38  F   UNL     1       9.737  12.808   5.262  0.00  0.00    -0.205 F 
ENDBRANCH  30  32
ENDBRANCH  27  28
ENDBRANCH  23  27
ENDBRANCH   1  20
TORSDOF 6
