REMARK  Name = ZINC33033385
REMARK  16 active torsions:
REMARK  status: ('A' for Active; 'I' for Inactive)
REMARK    1  A    between atoms: C_1  and  C_2
REMARK    2  A    between atoms: C_2  and  C_3
REMARK    3  A    between atoms: C_2  and  C_4
REMARK    4  A    between atoms: C_4  and  N_5
REMARK    5  A    between atoms: N_5  and  C_6
REMARK    6  A    between atoms: C_6  and  C_7
REMARK    7  A    between atoms: C_7  and  C_8
REMARK    8  A    between atoms: C_7  and  C_9
REMARK    9  A    between atoms: C_10  and  C_12
REMARK   10  A    between atoms: C_15  and  N_31
REMARK   11  A    between atoms: C_16  and  N_18
REMARK   12  A    between atoms: N_18  and  S_19
REMARK   13  A    between atoms: S_19  and  C_22
REMARK   14  A    between atoms: C_25  and  C_28
REMARK   15  A    between atoms: C_28  and  C_29
REMARK   16  A    between atoms: C_28  and  C_30
REMARK                            x       y       z     vdW  Elec       q    Type
REMARK                         _______ _______ _______ _____ _____    ______ ____
ROOT
ATOM      1  C   UNL     1       0.145  -2.381   0.510  0.00  0.00    +0.039 A 
ATOM      2  C   UNL     1      -0.191  -2.939  -0.726  0.00  0.00    +0.015 A 
ATOM      3  C   UNL     1       0.086  -4.264  -0.983  0.00  0.00    +0.026 A 
ATOM      4  C   UNL     1       0.690  -5.052  -0.010  0.00  0.00    +0.052 A 
ATOM      5  C   UNL     1       1.024  -4.502   1.230  0.00  0.00    +0.070 A 
ATOM      6  C   UNL     1       0.753  -3.171   1.490  0.00  0.00    +0.039 A 
ENDROOT
BRANCH   4   7
ATOM      7  N   UNL     1       0.963  -6.393  -0.272  0.00  0.00    -0.332 N 
ATOM      8  C   UNL     1       0.291  -6.837  -1.501  0.00  0.00    +0.086 C 
ATOM      9  C   UNL     1       0.550  -8.331  -1.711  0.00  0.00    -0.063 C 
ATOM     10  N   UNL     1       1.998  -8.567  -1.791  0.00  0.00    +0.381 N 
ATOM     11  C   UNL     1       2.671  -8.123  -0.562  0.00  0.00    -0.063 C 
ATOM     12  C   UNL     1       2.411  -6.630  -0.353  0.00  0.00    +0.086 C 
ATOM     13  H   UNL     1       2.187  -9.642  -1.929  0.00  0.00    -0.086 HD
ATOM     14  H   UNL     1       2.414  -8.009  -2.643  0.00  0.00    -0.086 HD
ENDBRANCH   4   7
BRANCH   1  16
ATOM     15  N   UNL     1      -1.087  -0.316   0.066  0.00  0.00    -0.297 N 
ATOM     16  C   UNL     1      -0.146  -0.960   0.783  0.00  0.00    +0.247 C 
ATOM     17  O   UNL     1       0.464  -0.371   1.655  0.00  0.00    -0.270 OA
BRANCH  15  18
ATOM     18  C   UNL     1      -1.835  -1.030  -0.971  0.00  0.00    +0.111 C 
BRANCH  18  20
ATOM     19  C   UNL     1      -1.903  -1.600  -3.403  0.00  0.00    +0.009 C 
ATOM     20  C   UNL     1      -1.201  -0.757  -2.337  0.00  0.00    +0.000 C 
ATOM     21  C   UNL     1      -1.349   0.726  -2.680  0.00  0.00    +0.009 C 
ENDBRANCH  18  20
ENDBRANCH  15  18
BRANCH  15  22
ATOM     22  C   UNL     1      -1.363   1.100   0.324  0.00  0.00    +0.111 C 
BRANCH  22  23
ATOM     23  C   UNL     1      -2.441   1.221   1.404  0.00  0.00    +0.000 C 
ATOM     24  C   UNL     1      -1.901   0.674   2.727  0.00  0.00    +0.009 C 
ATOM     25  C   UNL     1      -2.825   2.692   1.578  0.00  0.00    +0.009 C 
ENDBRANCH  22  23
ENDBRANCH  15  22
ENDBRANCH   1  16
BRANCH   5  26
ATOM     26  N   UNL     1       1.632  -5.297   2.209  0.00  0.00    -0.214 N 
ATOM     27  H   UNL     1       2.655  -5.671   2.056  0.00  0.00    +0.174 HD
BRANCH  26  28
ATOM     28  S   UNL     1       0.811  -5.675   3.597  0.00  0.00    +0.072 S 
ATOM     29  O   UNL     1       1.670  -6.509   4.362  0.00  0.00    -0.150 OA
ATOM     30  O   UNL     1       0.284  -4.456   4.102  0.00  0.00    -0.150 OA
BRANCH  28  31
ATOM     31  C   UNL     1      -0.570  -6.666   3.132  0.00  0.00    +0.109 A 
ATOM     32  C   UNL     1      -1.779  -6.068   2.830  0.00  0.00    +0.029 A 
ATOM     33  C   UNL     1      -2.861  -6.845   2.461  0.00  0.00    +0.006 A 
ATOM     34  C   UNL     1      -2.736  -8.221   2.402  0.00  0.00    -0.045 A 
ATOM     35  C   UNL     1      -1.528  -8.819   2.709  0.00  0.00    +0.006 A 
ATOM     36  C   UNL     1      -0.445  -8.041   3.074  0.00  0.00    +0.029 A 
BRANCH  34  37
ATOM     37  C   UNL     1      -3.917  -9.068   2.003  0.00  0.00    +0.013 C 
ATOM     38  C   UNL     1      -5.063  -8.843   2.991  0.00  0.00    +0.012 C 
ATOM     39  C   UNL     1      -4.373  -8.678   0.596  0.00  0.00    +0.012 C 
ENDBRANCH  34  37
ENDBRANCH  28  31
ENDBRANCH  26  28
ENDBRANCH   5  26
TORSDOF 10
