REMARK  Name = ZINC04964123
REMARK  13 active torsions:
REMARK  status: ('A' for Active; 'I' for Inactive)
REMARK    1  A    between atoms: C_1  and  C_2
REMARK    2  A    between atoms: C_18  and  C_39
REMARK    3  A    between atoms: C_20  and  O_37
REMARK    4  A    between atoms: C_23  and  C_36
REMARK    5  A    between atoms: C_24  and  C_25
REMARK    6  A    between atoms: C_24  and  O_35
REMARK    7  A    between atoms: C_25  and  C_27
REMARK    8  A    between atoms: C_27  and  O_28
REMARK    9  A    between atoms: O_28  and  C_29
REMARK   10  A    between atoms: C_29  and  C_31
REMARK   11  A    between atoms: C_31  and  C_32
REMARK   12  A    between atoms: C_31  and  C_33
REMARK   13  A    between atoms: C_31  and  C_34
REMARK                            x       y       z     vdW  Elec       q    Type
REMARK                         _______ _______ _______ _____ _____    ______ ____
ROOT
ATOM      1  C   UNL     1      -5.017   7.912  -3.088  0.00  0.00    +0.011 C 
ATOM      2  C   UNL     1      -3.652   7.256  -3.269  0.00  0.00    +0.026 C 
ATOM      3  C   UNL     1      -3.092   6.761  -1.908  0.00  0.00    +0.011 C 
ATOM      4  C   UNL     1      -2.462   5.405  -2.285  0.00  0.00    +0.005 C 
ATOM      5  C   UNL     1      -2.087   4.526  -1.104  0.00  0.00    +0.037 C 
ATOM      6  C   UNL     1      -0.641   4.906  -0.769  0.00  0.00    +0.048 C 
ATOM      7  C   UNL     1       0.048   3.952   0.204  0.00  0.00    +0.194 C 
ATOM      8  C   UNL     1      -0.099   2.557  -0.374  0.00  0.00    -0.020 C 
ATOM      9  C   UNL     1       0.965   1.811  -0.631  0.00  0.00    +0.054 C 
ATOM     10  C   UNL     1       0.798   0.452  -1.174  0.00  0.00    +0.179 C 
ATOM     11  O   UNL     1       1.766  -0.204  -1.517  0.00  0.00    -0.288 OA
ATOM     12  C   UNL     1      -0.560  -0.105  -1.294  0.00  0.00    +0.047 C 
ATOM     13  C   UNL     1      -1.611   0.672  -1.038  0.00  0.00    -0.009 C 
ATOM     14  C   UNL     1      -1.498   2.094  -0.620  0.00  0.00    +0.047 C 
ATOM     15  C   UNL     1      -2.269   3.063  -1.495  0.00  0.00    +0.153 C 
ATOM     16  C   UNL     1      -2.011   2.853  -2.978  0.00  0.00    +0.154 C 
ATOM     17  C   UNL     1      -3.123   3.509  -3.816  0.00  0.00    +0.044 C 
ATOM     18  C   UNL     1      -3.543   4.817  -3.203  0.00  0.00    +0.010 C 
ATOM     19  C   UNL     1      -3.769   5.997  -4.172  0.00  0.00    +0.135 C 
ATOM     20  C   UNL     1      -4.878   4.624  -2.465  0.00  0.00    +0.015 C 
ATOM     21  F   UNL     1      -3.618   2.710  -1.241  0.00  0.00    -0.238 F 
ATOM     22  C   UNL     1      -2.206   2.131   0.743  0.00  0.00    +0.023 C 
ATOM     23  F   UNL     1       1.411   4.276   0.305  0.00  0.00    -0.241 F 
ENDROOT
BRANCH  19  24
ATOM     24  C   UNL     1      -2.734   6.046  -5.254  0.00  0.00    +0.202 C 
ATOM     25  O   UNL     1      -1.646   5.555  -5.072  0.00  0.00    -0.291 OA
BRANCH  24  26
ATOM     26  C   UNL     1      -3.050   6.710  -6.570  0.00  0.00    +0.309 C 
BRANCH  26  27
ATOM     27  O   UNL     1      -1.893   6.628  -7.444  0.00  0.00    -0.456 OA
BRANCH  27  28
ATOM     28  C   UNL     1      -2.011   7.175  -8.664  0.00  0.00    +0.313 C 
ATOM     29  O   UNL     1      -3.046   7.706  -8.990  0.00  0.00    -0.250 OA
BRANCH  28  30
ATOM     30  C   UNL     1      -0.852   7.128  -9.626  0.00  0.00    +0.059 C 
ATOM     31  C   UNL     1      -1.246   7.818 -10.933  0.00  0.00    +0.022 C 
ATOM     32  C   UNL     1       0.350   7.848  -9.011  0.00  0.00    +0.022 C 
ATOM     33  C   UNL     1      -0.483   5.671  -9.909  0.00  0.00    +0.022 C 
ENDBRANCH  28  30
ENDBRANCH  27  28
ENDBRANCH  26  27
ENDBRANCH  24  26
ENDBRANCH  19  24
BRANCH  19  34
ATOM     34  O   UNL     1      -5.085   5.911  -4.729  0.00  0.00    -0.380 OA
ATOM     35  H   UNL     1      -5.297   6.622  -5.349  0.00  0.00    +0.211 HD
ENDBRANCH  19  34
BRANCH  16  36
ATOM     36  O   UNL     1      -0.734   3.371  -3.350  0.00  0.00    -0.389 OA
ATOM     37  H   UNL     1      -0.522   3.260  -4.287  0.00  0.00    +0.210 HD
ENDBRANCH  16  36
TORSDOF 7
