REMARK  Name = ZINC64746094
REMARK  4 active torsions:
REMARK  status: ('A' for Active; 'I' for Inactive)
REMARK    1  A    between atoms: C_1  and  N_2
REMARK    2  A    between atoms: C_11  and  N_23
REMARK    3  A    between atoms: C_12  and  C_16
REMARK    4  A    between atoms: N_23  and  C_24
REMARK                            x       y       z     vdW  Elec       q    Type
REMARK                         _______ _______ _______ _____ _____    ______ ____
ROOT
ATOM      1  C   UNL     1      -0.018   1.465   0.010  0.00  0.00    -0.096 C 
ATOM      2  N   UNL     1       0.002  -0.004   0.002  0.00  0.00    +0.380 N 
ATOM      3  C   UNL     1      -1.376  -0.510   0.002  0.00  0.00    -0.060 C 
ATOM      4  C   UNL     1      -1.358  -2.038  -0.122  0.00  0.00    +0.088 C 
ATOM      5  N   UNL     1      -0.511  -2.583   0.950  0.00  0.00    -0.312 N 
ATOM      6  C   UNL     1       0.834  -2.015   1.127  0.00  0.00    +0.088 C 
ATOM      7  C   UNL     1       0.713  -0.489   1.192  0.00  0.00    -0.060 C 
ATOM      8  C   UNL     1      -0.968  -3.602   1.770  0.00  0.00    +0.184 A 
ATOM      9  N   UNL     1      -0.358  -4.191   2.761  0.00  0.00    -0.140 NA
ATOM     10  N   UNL     1      -0.972  -5.208   3.487  0.00  0.00    -0.190 N 
ATOM     11  C   UNL     1      -0.677  -6.043   4.554  0.00  0.00    +0.150 A 
ATOM     12  C   UNL     1      -1.763  -6.840   4.766  0.00  0.00    +0.114 A 
ATOM     13  N   UNL     1      -2.708  -6.505   3.849  0.00  0.00    -0.218 NA
ATOM     14  C   UNL     1      -2.245  -5.550   3.101  0.00  0.00    +0.199 A 
ATOM     15  S   UNL     1      -2.546  -4.438   1.747  0.00  0.00    -0.013 S 
ATOM     16  H   UNL     1       0.477  -0.328  -0.827  0.00  0.00    -0.082 HD
ENDROOT
BRANCH  12  17
ATOM     17  C   UNL     1      -1.889  -7.884   5.808  0.00  0.00    +0.004 A 
ATOM     18  C   UNL     1      -0.775  -8.636   6.184  0.00  0.00    +0.011 A 
ATOM     19  C   UNL     1      -0.898  -9.608   7.155  0.00  0.00    +0.016 A 
ATOM     20  C   UNL     1      -2.124  -9.838   7.757  0.00  0.00    +0.018 A 
ATOM     21  C   UNL     1      -3.232  -9.095   7.388  0.00  0.00    +0.016 A 
ATOM     22  C   UNL     1      -3.120  -8.116   6.422  0.00  0.00    +0.011 A 
ATOM     23 BR   UNL     1      -2.285 -11.172   9.087  0.00  0.00    -0.050 Br
ENDBRANCH  12  17
BRANCH  11  24
ATOM     24  N   UNL     1       0.516  -6.064   5.280  0.00  0.00    -0.324 N 
ATOM     25  H   UNL     1       0.627  -6.689   6.014  0.00  0.00    +0.148 HD
BRANCH  24  26
ATOM     26  C   UNL     1       1.601  -5.142   4.934  0.00  0.00    +0.072 C 
ATOM     27  C   UNL     1       2.399  -5.731   3.753  0.00  0.00    +0.022 C 
ATOM     28  C   UNL     1       3.148  -4.613   3.078  0.00  0.00    +0.002 C 
ATOM     29  C   UNL     1       4.588  -4.466   3.606  0.00  0.00    +0.000 C 
ATOM     30  C   UNL     1       4.682  -4.617   5.136  0.00  0.00    +0.000 C 
ATOM     31  C   UNL     1       3.563  -3.912   5.854  0.00  0.00    +0.002 C 
ATOM     32  C   UNL     1       2.430  -4.926   6.111  0.00  0.00    +0.022 C 
ENDBRANCH  24  26
ENDBRANCH  11  24
TORSDOF 3
