REMARK  Name = ZINC43409596
REMARK  15 active torsions:
REMARK  status: ('A' for Active; 'I' for Inactive)
REMARK    1  A    between atoms: C_1  and  C_2
REMARK    2  A    between atoms: C_2  and  C_3
REMARK    3  A    between atoms: C_2  and  C_4
REMARK    4  A    between atoms: C_2  and  C_5
REMARK    5  A    between atoms: C_13  and  C_25
REMARK    6  A    between atoms: C_15  and  C_21
REMARK    7  A    between atoms: C_15  and  C_23
REMARK    8  A    between atoms: C_16  and  N_20
REMARK    9  A    between atoms: C_17  and  C_18
REMARK   10  A    between atoms: C_27  and  O_35
REMARK   11  A    between atoms: C_28  and  O_33
REMARK   12  A    between atoms: C_30  and  O_31
REMARK   13  A    between atoms: O_31  and  C_32
REMARK   14  A    between atoms: O_33  and  C_34
REMARK   15  A    between atoms: O_35  and  C_36
REMARK                            x       y       z     vdW  Elec       q    Type
REMARK                         _______ _______ _______ _____ _____    ______ ____
ROOT
ATOM      1  C   UNL     1       0.614   0.129  -1.472  0.00  0.00    -0.001 C 
ATOM      2  C   UNL     1       0.414  -1.350  -1.832  0.00  0.00    +0.031 C 
ATOM      3  C   UNL     1       1.086  -2.175  -0.763  0.00  0.00    -0.021 C 
ATOM      4  C   UNL     1       2.173  -1.741  -0.157  0.00  0.00    -0.029 C 
ATOM      5  C   UNL     1       2.861  -0.452  -0.495  0.00  0.00    +0.031 C 
ATOM      6  C   UNL     1       2.112   0.426  -1.470  0.00  0.00    +0.013 C 
ATOM      7  C   UNL     1       3.182   0.278   0.810  0.00  0.00    +0.070 C 
ATOM      8  C   UNL     1       4.161  -0.570   1.623  0.00  0.00    +0.188 C 
ATOM      9  C   UNL     1       3.689  -1.986   1.757  0.00  0.00    +0.054 C 
ATOM     10  C   UNL     1       2.774  -2.555   0.932  0.00  0.00    +0.074 C 
ENDROOT
BRANCH   7  11
ATOM     11  C   UNL     1       1.914   0.484   1.598  0.00  0.00    +0.004 A 
ATOM     12  C   UNL     1       1.221  -0.607   2.089  0.00  0.00    +0.057 A 
ATOM     13  C   UNL     1       0.056  -0.420   2.814  0.00  0.00    +0.162 A 
ATOM     14  C   UNL     1      -0.418   0.868   3.048  0.00  0.00    +0.165 A 
ATOM     15  C   UNL     1       0.277   1.960   2.555  0.00  0.00    +0.095 A 
ATOM     16  C   UNL     1       1.446   1.768   1.834  0.00  0.00    +0.127 A 
BRANCH  16  17
ATOM     17  O   UNL     1       2.132   2.840   1.354  0.00  0.00    -0.495 OA
ATOM     18  C   UNL     1       1.593   4.133   1.634  0.00  0.00    +0.277 C 
ENDBRANCH  16  17
BRANCH  14  19
ATOM     19  O   UNL     1      -1.562   1.054   3.759  0.00  0.00    -0.491 OA
ATOM     20  C   UNL     1      -1.990   2.402   3.960  0.00  0.00    +0.277 C 
ENDBRANCH  14  19
BRANCH  13  21
ATOM     21  O   UNL     1      -0.625  -1.494   3.297  0.00  0.00    -0.491 OA
ATOM     22  C   UNL     1      -0.082  -2.786   3.019  0.00  0.00    +0.277 C 
ENDBRANCH  13  21
ENDBRANCH   7  11
BRANCH   1  24
ATOM     23  C   UNL     1       0.710   1.638   0.517  0.00  0.00    +0.011 C 
ATOM     24  C   UNL     1       0.032   0.405  -0.085  0.00  0.00    -0.035 C 
ATOM     25  C   UNL     1       0.275  -0.804   0.821  0.00  0.00    +0.011 C 
ATOM     26  C   UNL     1      -1.472   0.658  -0.204  0.00  0.00    +0.011 C 
ENDBRANCH   1  24
BRANCH   9  27
ATOM     27  N   UNL     1       4.210  -2.747   2.766  0.00  0.00    -0.358 N 
ATOM     28  H   UNL     1       4.866  -2.367   3.371  0.00  0.00    +0.142 HD
ATOM     29  H   UNL     1       3.924  -3.667   2.877  0.00  0.00    +0.142 HD
ENDBRANCH   9  27
BRANCH  10  30
ATOM     30  C   UNL     1       2.391  -3.924   1.110  0.00  0.00    +0.101 C 
ATOM     31  N   UNL     1       2.088  -5.009   1.250  0.00  0.00    -0.191 NA
ENDBRANCH  10  30
BRANCH   8  32
ATOM     32  C   UNL     1       5.472  -0.562   0.955  0.00  0.00    +0.091 C 
ATOM     33  N   UNL     1       6.484  -0.556   0.439  0.00  0.00    -0.194 NA
ENDBRANCH   8  32
BRANCH   8  34
ATOM     34  C   UNL     1       4.304   0.017   2.965  0.00  0.00    +0.091 C 
ATOM     35  N   UNL     1       4.415   0.471   4.001  0.00  0.00    -0.194 NA
ENDBRANCH   8  34
TORSDOF 9
