REMARK  Name = ZINC40993735
REMARK  5 active torsions:
REMARK  status: ('A' for Active; 'I' for Inactive)
REMARK    1  A    between atoms: C_4  and  C_7
REMARK    2  A    between atoms: C_9  and  C_12
REMARK    3  A    between atoms: C_16  and  N_17
REMARK    4  A    between atoms: C_18  and  C_20
REMARK    5  A    between atoms: C_22  and  N_27
REMARK                            x       y       z     vdW  Elec       q    Type
REMARK                         _______ _______ _______ _____ _____    ______ ____
ROOT
ATOM      1  C   UNL     1       5.692  -3.686  -0.084  0.00  0.00    +0.071 A 
ATOM      2  C   UNL     1       7.128  -3.902  -0.093  0.00  0.00    -0.023 A 
ATOM      3  C   UNL     1       7.538  -5.191  -0.109  0.00  0.00    -0.004 A 
ATOM      4  S   UNL     1       6.044  -6.143  -0.113  0.00  0.00    -0.077 S 
ATOM      5  C   UNL     1       4.868  -4.802  -0.087  0.00  0.00    +0.085 A 
ATOM      6  C   UNL     1       8.949  -5.693  -0.122  0.00  0.00    +0.043 C 
ATOM      7  C   UNL     1       9.876  -4.526  -0.490  0.00  0.00    +0.005 C 
ATOM      8  C   UNL     1       9.498  -3.311   0.363  0.00  0.00    +0.005 C 
ATOM      9  C   UNL     1       8.143  -2.763  -0.084  0.00  0.00    +0.037 C 
ENDROOT
BRANCH   1  12
ATOM     10  C   UNL     1       3.699  -0.689  -0.038  0.00  0.00    +0.202 A 
ATOM     11  N   UNL     1       3.849  -2.022  -0.053  0.00  0.00    -0.187 NA
ATOM     12  C   UNL     1       5.130  -2.328  -0.067  0.00  0.00    +0.261 A 
ATOM     13  O   UNL     1       5.835  -1.181  -0.061  0.00  0.00    -0.332 OA
ATOM     14  N   UNL     1       4.884  -0.128  -0.048  0.00  0.00    -0.056 NA
BRANCH  10  18
ATOM     15  C   UNL     1      -0.017   1.379   0.010  0.00  0.00    +0.000 A 
ATOM     16  C   UNL     1       1.169   2.092   0.002  0.00  0.00    +0.001 A 
ATOM     17  C   UNL     1       2.377   1.425  -0.013  0.00  0.00    +0.012 A 
ATOM     18  C   UNL     1       2.402   0.033  -0.021  0.00  0.00    +0.022 A 
ATOM     19  C   UNL     1       1.205  -0.680  -0.013  0.00  0.00    +0.012 A 
ATOM     20  C   UNL     1       0.002  -0.004   0.002  0.00  0.00    +0.001 A 
ENDBRANCH  10  18
ENDBRANCH   1  12
BRANCH   5  21
ATOM     21  N   UNL     1       3.481  -4.860  -0.076  0.00  0.00    -0.275 N 
ATOM     22  C   UNL     1       2.857  -6.055  -0.081  0.00  0.00    +0.250 C 
ATOM     23  O   UNL     1       3.508  -7.081  -0.097  0.00  0.00    -0.270 OA
ATOM     24  H   UNL     1       2.962  -4.041  -0.063  0.00  0.00    +0.156 HD
BRANCH  22  25
ATOM     25  C   UNL     1       1.381  -6.117  -0.069  0.00  0.00    +0.057 A 
ATOM     26  C   UNL     1       0.630  -4.939  -0.057  0.00  0.00    +0.047 A 
ATOM     27  C   UNL     1      -0.748  -5.004  -0.045  0.00  0.00    +0.127 A 
ATOM     28  C   UNL     1      -1.387  -6.232  -0.044  0.00  0.00    +0.034 A 
ATOM     29  C   UNL     1      -0.650  -7.403  -0.056  0.00  0.00    +0.023 A 
ATOM     30  C   UNL     1       0.730  -7.353  -0.074  0.00  0.00    +0.053 A 
ATOM     31 CL   UNL     1       1.654  -8.823  -0.097  0.00  0.00    -0.083 Cl
BRANCH  27  32
ATOM     32  N   UNL     1      -1.545  -3.757  -0.032  0.00  0.00    +0.056 N 
ATOM     33  O   UNL     1      -0.989  -2.684  -0.032  0.00  0.00    -0.126 OA
ATOM     34  O   UNL     1      -2.753  -3.812  -0.021  0.00  0.00    -0.126 OA
ENDBRANCH  27  32
ENDBRANCH  22  25
ENDBRANCH   5  21
TORSDOF 5
