REMARK  Name = ZINC29851615
REMARK  8 active torsions:
REMARK  status: ('A' for Active; 'I' for Inactive)
REMARK    1  A    between atoms: C_1  and  C_2
REMARK    2  A    between atoms: C_2  and  C_4
REMARK    3  A    between atoms: C_2  and  N_17
REMARK    4  A    between atoms: N_6  and  C_7
REMARK    5  A    between atoms: C_12  and  C_13
REMARK    6  A    between atoms: N_20  and  C_23
REMARK    7  A    between atoms: C_26  and  C_32
REMARK    8  A    between atoms: C_28  and  N_29
REMARK                            x       y       z     vdW  Elec       q    Type
REMARK                         _______ _______ _______ _____ _____    ______ ____
ROOT
ATOM      1  N   UNL     1       0.066   1.385  -0.049  0.00  0.00    +0.389 N 
ATOM      2  C   UNL     1       1.473   1.801  -0.129  0.00  0.00    -0.059 C 
ATOM      3  C   UNL     1       2.240   1.230   1.067  0.00  0.00    +0.086 C 
ATOM      4  N   UNL     1       2.125  -0.235   1.064  0.00  0.00    -0.332 N 
ATOM      5  C   UNL     1       0.718  -0.651   1.143  0.00  0.00    +0.086 C 
ATOM      6  C   UNL     1      -0.049  -0.080  -0.052  0.00  0.00    -0.059 C 
ATOM      7  H   UNL     1      -0.345   1.756   0.902  0.00  0.00    -0.081 HD
ENDROOT
BRANCH   4   8
ATOM      8  C   UNL     1       2.873  -0.798   2.101  0.00  0.00    +0.060 A 
ATOM      9  C   UNL     1       2.605  -0.451   3.419  0.00  0.00    +0.026 A 
ATOM     10  C   UNL     1       3.346  -1.009   4.442  0.00  0.00    +0.014 A 
ATOM     11  C   UNL     1       4.354  -1.912   4.155  0.00  0.00    +0.057 A 
ATOM     12  C   UNL     1       4.622  -2.260   2.845  0.00  0.00    +0.047 A 
ATOM     13  C   UNL     1       3.881  -1.710   1.817  0.00  0.00    +0.148 A 
BRANCH  11  14
ATOM     14  C   UNL     1       5.160  -2.519   5.275  0.00  0.00    +0.417 C 
ATOM     15  F   UNL     1       4.707  -2.019   6.500  0.00  0.00    -0.166 F 
ATOM     16  F   UNL     1       5.011  -3.910   5.255  0.00  0.00    -0.166 F 
ATOM     17  F   UNL     1       6.510  -2.192   5.107  0.00  0.00    -0.166 F 
ENDBRANCH  11  14
BRANCH  13  18
ATOM     18  N   UNL     1       4.165  -2.087   0.414  0.00  0.00    +0.058 N 
ATOM     19  O   UNL     1       4.985  -2.954   0.171  0.00  0.00    -0.126 OA
ATOM     20  O   UNL     1       3.579  -1.530  -0.497  0.00  0.00    -0.126 OA
ENDBRANCH  13  18
ENDBRANCH   4   8
BRANCH   1  22
ATOM     21  C   UNL     1      -0.132   1.546  -2.485  0.00  0.00    -0.004 C 
ATOM     22  C   UNL     1      -0.720   1.977  -1.140  0.00  0.00    +0.017 C 
BRANCH  22  23
ATOM     23  C   UNL     1      -0.679   3.479  -1.032  0.00  0.00    +0.203 C 
ATOM     24  O   UNL     1      -0.055   4.006  -0.134  0.00  0.00    -0.277 OA
ATOM     25  N   UNL     1      -1.334   4.238  -1.932  0.00  0.00    -0.286 N 
ATOM     26  H   UNL     1      -1.971   3.763  -2.692  0.00  0.00    +0.155 HD
BRANCH  25  27
ATOM     27  C   UNL     1      -1.204   5.631  -1.900  0.00  0.00    +0.045 A 
ATOM     28  C   UNL     1      -0.079   6.212  -1.328  0.00  0.00    +0.024 A 
ATOM     29  C   UNL     1       0.049   7.587  -1.303  0.00  0.00    +0.002 A 
ATOM     30  C   UNL     1      -0.947   8.385  -1.836  0.00  0.00    +0.001 A 
ATOM     31  C   UNL     1      -2.070   7.810  -2.401  0.00  0.00    +0.014 A 
ATOM     32  C   UNL     1      -2.201   6.436  -2.435  0.00  0.00    +0.076 A 
BRANCH  32  33
ATOM     33  C   UNL     1      -3.426   5.810  -3.050  0.00  0.00    +0.419 C 
ATOM     34  F   UNL     1      -4.280   6.816  -3.516  0.00  0.00    -0.166 F 
ATOM     35  F   UNL     1      -3.045   4.990  -4.118  0.00  0.00    -0.166 F 
ATOM     36  F   UNL     1      -4.091   5.042  -2.088  0.00  0.00    -0.166 F 
ENDBRANCH  32  33
ENDBRANCH  25  27
ENDBRANCH  22  23
ENDBRANCH   1  22
TORSDOF 7
