REMARK  Name = ZINC39639306
REMARK  9 active torsions:
REMARK  status: ('A' for Active; 'I' for Inactive)
REMARK    1  A    between atoms: C_1  and  C_2
REMARK    2  A    between atoms: C_5  and  C_8
REMARK    3  A    between atoms: C_8  and  C_10
REMARK    4  A    between atoms: C_8  and  N_11
REMARK    5  A    between atoms: C_12  and  C_14
REMARK    6  A    between atoms: C_25  and  C_27
REMARK    7  A    between atoms: C_27  and  C_29
REMARK    8  A    between atoms: C_27  and  O_30
REMARK    9  A    between atoms: O_30  and  C_31
REMARK                            x       y       z     vdW  Elec       q    Type
REMARK                         _______ _______ _______ _____ _____    ______ ____
ROOT
ATOM      1  C   UNL     1       2.387  -7.271   1.605  0.00  0.00    +0.100 C 
ATOM      2  C   UNL     1       1.671  -6.913   2.927  0.00  0.00    +0.121 C 
ATOM      3  N   UNL     1       1.220  -8.214   3.473  0.00  0.00    -0.297 N 
ATOM      4  C   UNL     1       2.337  -9.144   3.182  0.00  0.00    +0.115 C 
ATOM      5  C   UNL     1       2.826  -8.735   1.778  0.00  0.00    -0.004 C 
ATOM      6  C   UNL     1       4.346  -8.845   1.695  0.00  0.00    -0.010 C 
ATOM      7  C   UNL     1       4.754 -10.316   1.811  0.00  0.00    -0.082 C 
ATOM      8  N   UNL     1       4.128 -11.086   0.729  0.00  0.00    +0.379 N 
ATOM      9  C   UNL     1       2.667 -11.052   0.871  0.00  0.00    -0.082 C 
ATOM     10  C   UNL     1       2.170  -9.612   0.716  0.00  0.00    -0.010 C 
ATOM     11  C   UNL     1       0.056  -8.491   4.094  0.00  0.00    +0.256 C 
ATOM     12  O   UNL     1      -0.169  -9.615   4.488  0.00  0.00    -0.272 OA
ATOM     13  H   UNL     1       4.387 -10.687  -0.160  0.00  0.00    -0.086 HD
ATOM     14  H   UNL     1       4.446 -12.043   0.771  0.00  0.00    -0.086 HD
ENDROOT
BRANCH   1  16
ATOM     15  N   UNL     1       1.910  -6.843  -0.784  0.00  0.00    -0.308 N 
ATOM     16  C   UNL     1       1.437  -7.142   0.443  0.00  0.00    +0.219 C 
ATOM     17  O   UNL     1       0.248  -7.307   0.610  0.00  0.00    -0.275 OA
ATOM     18  H   UNL     1       2.862  -6.710  -0.918  0.00  0.00    +0.149 HD
BRANCH  15  19
ATOM     19  C   UNL     1       0.987  -6.717  -1.914  0.00  0.00    +0.100 C 
ATOM     20  C   UNL     1       0.414  -5.298  -1.949  0.00  0.00    +0.033 C 
BRANCH  19  25
ATOM     21  C   UNL     1       3.816  -7.771  -6.841  0.00  0.00    +0.044 C 
ATOM     22  C   UNL     1       3.078  -7.497  -5.556  0.00  0.00    -0.050 A 
ATOM     23  C   UNL     1       1.793  -7.975  -5.381  0.00  0.00    +0.004 A 
ATOM     24  C   UNL     1       1.117  -7.723  -4.202  0.00  0.00    +0.006 A 
ATOM     25  C   UNL     1       1.725  -6.993  -3.199  0.00  0.00    -0.027 A 
ATOM     26  C   UNL     1       3.010  -6.514  -3.374  0.00  0.00    +0.006 A 
ATOM     27  C   UNL     1       3.688  -6.770  -4.551  0.00  0.00    +0.004 A 
ENDBRANCH  19  25
ENDBRANCH  15  19
ENDBRANCH   1  16
BRANCH  11  28
ATOM     28  C   UNL     1      -0.965  -7.402   4.299  0.00  0.00    +0.256 C 
ATOM     29  C   UNL     1      -0.397  -6.340   5.243  0.00  0.00    +0.062 C 
BRANCH  28  30
ATOM     30  O   UNL     1      -2.150  -7.962   4.870  0.00  0.00    -0.480 OA
BRANCH  30  31
ATOM     31  C   UNL     1      -3.315  -7.296   4.649  0.00  0.00    +0.122 A 
ATOM     32  C   UNL     1      -3.303  -6.075   3.991  0.00  0.00    +0.045 A 
ATOM     33  C   UNL     1      -4.489  -5.401   3.768  0.00  0.00    +0.004 A 
ATOM     34  C   UNL     1      -5.685  -5.943   4.200  0.00  0.00    +0.000 A 
ATOM     35  C   UNL     1      -5.699  -7.160   4.856  0.00  0.00    +0.004 A 
ATOM     36  C   UNL     1      -4.517  -7.841   5.076  0.00  0.00    +0.045 A 
ENDBRANCH  30  31
ENDBRANCH  28  30
ENDBRANCH  11  28
TORSDOF 6
