REMARK  Name = ZINC00664544
REMARK  10 active torsions:
REMARK  status: ('A' for Active; 'I' for Inactive)
REMARK    1  A    between atoms: C_1  and  O_2
REMARK    2  A    between atoms: O_2  and  C_3
REMARK    3  A    between atoms: C_5  and  C_19
REMARK    4  A    between atoms: C_8  and  O_9
REMARK    5  A    between atoms: O_9  and  C_10
REMARK    6  A    between atoms: C_10  and  C_11
REMARK    7  A    between atoms: C_20  and  C_29
REMARK    8  A    between atoms: C_21  and  N_28
REMARK    9  A    between atoms: C_23  and  N_27
REMARK   10  A    between atoms: C_24  and  C_25
REMARK                            x       y       z     vdW  Elec       q    Type
REMARK                         _______ _______ _______ _____ _____    ______ ____
ROOT
ATOM      1  C   UNL     1      -3.380   3.243   2.846  0.00  0.00    +0.162 A 
ATOM      2  C   UNL     1      -4.576   3.918   3.032  0.00  0.00    +0.054 A 
ATOM      3  C   UNL     1      -5.312   4.333   1.938  0.00  0.00    -0.030 A 
ATOM      4  C   UNL     1      -4.856   4.081   0.658  0.00  0.00    +0.008 A 
ATOM      5  C   UNL     1      -3.661   3.413   0.466  0.00  0.00    +0.050 A 
ATOM      6  C   UNL     1      -2.917   2.995   1.558  0.00  0.00    +0.162 A 
ENDROOT
BRANCH   3   7
ATOM      7  C   UNL     1      -6.616   5.060   2.142  0.00  0.00    +0.105 C 
ATOM      8  C   UNL     1      -7.714   4.248   1.546  0.00  0.00    +0.069 C 
ATOM      9  C   UNL     1      -8.242   4.420   0.325  0.00  0.00    +0.079 C 
ATOM     10  S   UNL     1      -7.708   5.674  -0.781  0.00  0.00    -0.058 S 
ATOM     11  C   UNL     1      -6.921   6.784   0.328  0.00  0.00    +0.079 C 
ATOM     12  C   UNL     1      -6.499   6.423   1.552  0.00  0.00    +0.069 C 
BRANCH  11  13
ATOM     13  N   UNL     1      -6.728   8.084  -0.075  0.00  0.00    -0.352 N 
ATOM     14  H   UNL     1      -6.237   8.801   0.600  0.00  0.00    +0.143 HD
ATOM     15  H   UNL     1      -7.063   8.406  -1.071  0.00  0.00    +0.143 HD
ENDBRANCH  11  13
BRANCH   9  16
ATOM     16  N   UNL     1      -9.247   3.575  -0.081  0.00  0.00    -0.352 N 
ATOM     17  H   UNL     1      -9.697   3.694  -1.077  0.00  0.00    +0.143 HD
ATOM     18  H   UNL     1      -9.601   2.779   0.591  0.00  0.00    +0.143 HD
ENDBRANCH   9  16
BRANCH  12  19
ATOM     19  C   UNL     1      -5.883   7.435   2.357  0.00  0.00    +0.098 C 
ATOM     20  N   UNL     1      -5.394   8.238   2.995  0.00  0.00    -0.191 NA
ENDBRANCH  12  19
BRANCH   8  21
ATOM     21  C   UNL     1      -8.254   3.190   2.346  0.00  0.00    +0.098 C 
ATOM     22  N   UNL     1      -8.682   2.350   2.980  0.00  0.00    -0.191 NA
ENDBRANCH   8  21
ENDBRANCH   3   7
BRANCH   1  24
ATOM     23  C   UNL     1      -3.193   3.119   5.214  0.00  0.00    +0.277 C 
ATOM     24  O   UNL     1      -2.657   2.830   3.921  0.00  0.00    -0.491 OA
ENDBRANCH   1  24
BRANCH   6  25
ATOM     25  O   UNL     1      -1.742   2.338   1.370  0.00  0.00    -0.484 OA
BRANCH  25  26
ATOM     26  C   UNL     1      -1.332   2.113   0.020  0.00  0.00    +0.264 C 
BRANCH  26  27
ATOM     27  C   UNL     1      -0.017   1.378   0.010  0.00  0.00    -0.009 A 
ATOM     28  C   UNL     1       1.171   2.086   0.002  0.00  0.00    +0.008 A 
ATOM     29  C   UNL     1       2.378   1.413  -0.013  0.00  0.00    +0.022 A 
ATOM     30  C   UNL     1       2.398   0.030  -0.021  0.00  0.00    +0.059 A 
ATOM     31  C   UNL     1       1.209  -0.679  -0.013  0.00  0.00    +0.060 A 
ATOM     32  C   UNL     1       0.002  -0.004   0.002  0.00  0.00    +0.028 A 
ATOM     33 CL   UNL     1       1.234  -2.415  -0.022  0.00  0.00    -0.082 Cl
ATOM     34 CL   UNL     1       3.914  -0.816  -0.039  0.00  0.00    -0.082 Cl
ENDBRANCH  26  27
ENDBRANCH  25  26
ENDBRANCH   6  25
TORSDOF 9
