REMARK  Name = ZINC18597318
REMARK  9 active torsions:
REMARK  status: ('A' for Active; 'I' for Inactive)
REMARK    1  A    between atoms: C_1  and  C_2
REMARK    2  A    between atoms: C_2  and  C_4
REMARK    3  A    between atoms: C_2  and  S_14
REMARK    4  A    between atoms: N_9  and  C_10
REMARK    5  A    between atoms: C_10  and  C_11
REMARK    6  A    between atoms: C_10  and  C_12
REMARK    7  A    between atoms: C_10  and  C_13
REMARK    8  A    between atoms: S_14  and  C_15
REMARK    9  A    between atoms: C_18  and  C_21
REMARK                            x       y       z     vdW  Elec       q    Type
REMARK                         _______ _______ _______ _____ _____    ______ ____
ROOT
ATOM      1  C   UNL     1      -3.587   2.825   1.359  0.00  0.00    +0.029 C 
ATOM      2  C   UNL     1      -3.447   3.612   0.054  0.00  0.00    +0.137 C 
ENDROOT
BRANCH   2   3
ATOM      3  C   UNL     1      -4.571   4.610  -0.053  0.00  0.00    +0.233 C 
ATOM      4  O   UNL     1      -4.378   5.773   0.230  0.00  0.00    -0.274 OA
ATOM      5  N   UNL     1      -5.790   4.210  -0.465  0.00  0.00    -0.239 N 
ATOM      6  C   UNL     1      -6.795   5.103  -0.561  0.00  0.00    +0.306 C 
ATOM      7  O   UNL     1      -6.602   6.268  -0.277  0.00  0.00    -0.252 OA
ATOM      8  N   UNL     1      -8.015   4.703  -0.973  0.00  0.00    -0.294 N 
ATOM      9  H   UNL     1      -5.945   3.280  -0.692  0.00  0.00    +0.159 HD
ATOM     10  H   UNL     1      -8.169   3.772  -1.200  0.00  0.00    +0.151 HD
BRANCH   8  11
ATOM     11  C   UNL     1      -9.107   5.673  -1.078  0.00  0.00    +0.028 C 
ATOM     12  C   UNL     1      -8.722   6.769  -2.073  0.00  0.00    +0.031 C 
ATOM     13  C   UNL     1     -10.374   4.965  -1.564  0.00  0.00    +0.031 C 
ATOM     14  C   UNL     1      -9.367   6.299   0.294  0.00  0.00    +0.031 C 
ENDBRANCH   8  11
ENDBRANCH   2   3
BRANCH   2  15
ATOM     15  S   UNL     1      -1.862   4.485   0.044  0.00  0.00    -0.075 S 
BRANCH  15  16
ATOM     16  C   UNL     1      -0.757   3.112   0.026  0.00  0.00    +0.167 A 
ATOM     17  N   UNL     1       0.603   3.188   0.013  0.00  0.00    -0.333 N 
ATOM     18  H   UNL     1       1.153   4.023   0.013  0.00  0.00    +0.168 HD
ATOM     19  C   UNL     1       1.077   1.887   0.002  0.00  0.00    +0.067 A 
ATOM     20  C   UNL     1      -0.013   1.076   0.008  0.00  0.00    +0.139 A 
ATOM     21  N   UNL     1      -1.108   1.846   0.017  0.00  0.00    -0.230 NA
BRANCH  19  22
ATOM     22  C   UNL     1       2.493   1.464  -0.014  0.00  0.00    -0.000 A 
ATOM     23  C   UNL     1       3.510   2.420  -0.024  0.00  0.00    +0.011 A 
ATOM     24  C   UNL     1       4.830   2.019  -0.033  0.00  0.00    +0.016 A 
ATOM     25  C   UNL     1       5.147   0.671  -0.044  0.00  0.00    +0.018 A 
ATOM     26  C   UNL     1       4.142  -0.282  -0.040  0.00  0.00    +0.016 A 
ATOM     27  C   UNL     1       2.819   0.107  -0.025  0.00  0.00    +0.011 A 
ATOM     28 BR   UNL     1       6.958   0.130  -0.065  0.00  0.00    -0.050 Br
ENDBRANCH  19  22
ENDBRANCH  15  16
ENDBRANCH   2  15
TORSDOF 5
