REMARK  Name = ZINC03965943
REMARK  9 active torsions:
REMARK  status: ('A' for Active; 'I' for Inactive)
REMARK    1  A    between atoms: C_1  and  C_2
REMARK    2  A    between atoms: C_2  and  C_3
REMARK    3  A    between atoms: C_2  and  C_4
REMARK    4  A    between atoms: C_9  and  S_10
REMARK    5  A    between atoms: S_10  and  C_11
REMARK    6  A    between atoms: C_14  and  C_21
REMARK    7  A    between atoms: C_16  and  C_17
REMARK    8  A    between atoms: C_29  and  N_32
REMARK    9  A    between atoms: C_33  and  C_35
REMARK                            x       y       z     vdW  Elec       q    Type
REMARK                         _______ _______ _______ _____ _____    ______ ____
ROOT
ATOM      1  C   UNL     1      -8.736   6.662   6.588  0.00  0.00    +0.024 A 
ATOM      2  C   UNL     1      -7.444   6.162   6.453  0.00  0.00    +0.016 A 
ATOM      3  C   UNL     1      -7.144   5.297   5.424  0.00  0.00    +0.009 A 
ATOM      4  C   UNL     1      -8.136   4.922   4.518  0.00  0.00    -0.017 A 
ATOM      5  C   UNL     1      -9.428   5.428   4.652  0.00  0.00    +0.022 A 
ATOM      6  C   UNL     1      -9.726   6.290   5.686  0.00  0.00    +0.069 A 
ENDROOT
BRANCH   4   7
ATOM      7  C   UNL     1      -7.815   3.991   3.409  0.00  0.00    -0.013 A 
ATOM      8  C   UNL     1      -8.797   3.603   2.489  0.00  0.00    +0.026 A 
ATOM      9  C   UNL     1      -8.461   2.737   1.472  0.00  0.00    +0.085 A 
ATOM     10  C   UNL     1      -6.270   2.611   2.201  0.00  0.00    +0.099 A 
ATOM     11  C   UNL     1      -6.528   3.475   3.258  0.00  0.00    +0.050 A 
ATOM     12  N   UNL     1      -4.991   2.092   2.034  0.00  0.00    -0.315 N 
ATOM     13  C   UNL     1      -4.571   1.315   3.228  0.00  0.00    +0.108 C 
ATOM     14  C   UNL     1      -3.030   1.276   3.146  0.00  0.00    +0.043 C 
ATOM     15  C   UNL     1      -2.644   2.503   2.294  0.00  0.00    +0.092 C 
ATOM     16  C   UNL     1      -3.984   3.180   1.934  0.00  0.00    +0.128 C 
ATOM     17  N   UNL     1      -7.214   2.221   1.294  0.00  0.00    -0.350 N 
ATOM     18  H   UNL     1      -6.996   1.577   0.525  0.00  0.00    +0.166 HD
BRANCH  15  19
ATOM     19  N   UNL     1      -1.945   2.079   1.079  0.00  0.00    -0.311 N 
ATOM     20  C   UNL     1      -0.612   1.884   1.101  0.00  0.00    +0.210 C 
ATOM     21  O   UNL     1       0.010   2.060   2.128  0.00  0.00    -0.276 OA
ATOM     22  C   UNL     1       0.107   1.448  -0.149  0.00  0.00    +0.109 C 
ATOM     23  H   UNL     1      -2.442   1.939   0.258  0.00  0.00    +0.149 HD
ENDBRANCH  15  19
ENDBRANCH   4   7
BRANCH   6  24
ATOM     24  C   UNL     1     -11.124   6.833   5.835  0.00  0.00    +0.418 C 
ATOM     25  F   UNL     1     -11.935   6.319   4.817  0.00  0.00    -0.166 F 
ATOM     26  F   UNL     1     -11.641   6.455   7.079  0.00  0.00    -0.166 F 
ATOM     27  F   UNL     1     -11.094   8.229   5.747  0.00  0.00    -0.166 F 
ENDBRANCH   6  24
BRANCH   1  28
ATOM     28  S   UNL     1      -9.117   7.769   7.906  0.00  0.00    -0.089 S 
BRANCH  28  34
ATOM     29  C   UNL     1      -6.566   8.631   8.395  0.00  0.00    -0.031 A 
ATOM     30  C   UNL     1      -5.398   8.692   9.130  0.00  0.00    +0.005 A 
ATOM     31  C   UNL     1      -5.283   7.976  10.308  0.00  0.00    +0.000 A 
ATOM     32  C   UNL     1      -6.335   7.198  10.754  0.00  0.00    +0.001 A 
ATOM     33  C   UNL     1      -7.507   7.136  10.027  0.00  0.00    +0.015 A 
ATOM     34  C   UNL     1      -7.625   7.849   8.840  0.00  0.00    +0.016 A 
BRANCH  29  36
ATOM     35  C   UNL     1      -6.516  10.902   7.402  0.00  0.00    +0.012 C 
ATOM     36  C   UNL     1      -6.691   9.411   7.111  0.00  0.00    +0.014 C 
ATOM     37  C   UNL     1      -5.612   8.952   6.129  0.00  0.00    +0.012 C 
ENDBRANCH  29  36
ENDBRANCH  28  34
ENDBRANCH   1  28
TORSDOF 6
