REMARK  Name = ZINC46815487
REMARK  4 active torsions:
REMARK  status: ('A' for Active; 'I' for Inactive)
REMARK    1  A    between atoms: C_3  and  N_27
REMARK    2  A    between atoms: C_6  and  N_7
REMARK    3  A    between atoms: C_8  and  C_10
REMARK    4  A    between atoms: C_17  and  C_19
REMARK                            x       y       z     vdW  Elec       q    Type
REMARK                         _______ _______ _______ _____ _____    ______ ____
ROOT
ATOM      1  N   UNL     1      -1.277  -0.657   0.139  0.00  0.00    -0.285 N 
ATOM      2  C   UNL     1      -1.440  -1.976   0.361  0.00  0.00    +0.222 C 
ATOM      3  O   UNL     1      -0.490  -2.658   0.686  0.00  0.00    -0.275 OA
ATOM      4  H   UNL     1      -2.048  -0.098  -0.048  0.00  0.00    +0.155 HD
ENDROOT
BRANCH   2   5
ATOM      5  C   UNL     1      -2.800  -2.605   0.206  0.00  0.00    +0.093 C 
ATOM      6  C   UNL     1      -2.710  -4.101   0.513  0.00  0.00    +0.016 C 
ATOM      7  C   UNL     1      -4.098  -4.734   0.388  0.00  0.00    +0.020 C 
ATOM      8  C   UNL     1      -4.604  -4.565  -1.048  0.00  0.00    +0.108 C 
ATOM      9  N   UNL     1      -4.557  -3.139  -1.401  0.00  0.00    -0.297 N 
ATOM     10  C   UNL     1      -3.293  -2.410  -1.231  0.00  0.00    +0.120 C 
ATOM     11  C   UNL     1      -5.654  -2.512  -1.871  0.00  0.00    +0.247 C 
ATOM     12  O   UNL     1      -5.630  -1.312  -2.066  0.00  0.00    -0.270 OA
BRANCH  11  13
ATOM     13  C   UNL     1      -6.883  -3.282  -2.150  0.00  0.00    +0.038 A 
ATOM     14  C   UNL     1      -8.136  -2.693  -1.967  0.00  0.00    +0.014 A 
ATOM     15  C   UNL     1      -9.280  -3.416  -2.228  0.00  0.00    +0.022 A 
ATOM     16  C   UNL     1      -9.190  -4.725  -2.671  0.00  0.00    +0.059 A 
ATOM     17  C   UNL     1      -7.950  -5.316  -2.855  0.00  0.00    +0.060 A 
ATOM     18  C   UNL     1      -6.797  -4.600  -2.603  0.00  0.00    +0.034 A 
ATOM     19 CL   UNL     1      -7.846  -6.957  -3.411  0.00  0.00    -0.082 Cl
ATOM     20 CL   UNL     1     -10.636  -5.630  -2.997  0.00  0.00    -0.082 Cl
ENDBRANCH  11  13
ENDBRANCH   2   5
BRANCH   1  26
ATOM     21  C   UNL     1       1.099  -0.823  -0.267  0.00  0.00    +0.025 A 
ATOM     22  C   UNL     1       2.362  -0.267  -0.229  0.00  0.00    +0.025 A 
ATOM     23  C   UNL     1       2.538   1.024   0.252  0.00  0.00    +0.030 A 
ATOM     24  C   UNL     1       1.444   1.755   0.695  0.00  0.00    +0.025 A 
ATOM     25  C   UNL     1       0.181   1.199   0.657  0.00  0.00    +0.025 A 
ATOM     26  C   UNL     1       0.005  -0.092   0.176  0.00  0.00    +0.034 A 
BRANCH  23  27
ATOM     27  N   UNL     1       3.818   1.587   0.290  0.00  0.00    -0.320 N 
ATOM     28  C   UNL     1       4.026   2.991   0.682  0.00  0.00    +0.124 C 
ATOM     29  C   UNL     1       4.898   3.012   1.939  0.00  0.00    +0.123 C 
ATOM     30  N   UNL     1       6.042   2.124   1.788  0.00  0.00    -0.313 N 
ATOM     31  C   UNL     1       6.101   1.103   0.932  0.00  0.00    +0.230 C 
ATOM     32  O   UNL     1       7.078   0.385   0.954  0.00  0.00    -0.274 OA
ATOM     33  C   UNL     1       5.011   0.799  -0.054  0.00  0.00    +0.200 C 
ATOM     34  H   UNL     1       6.816   2.286   2.350  0.00  0.00    +0.149 HD
ENDBRANCH  23  27
ENDBRANCH   1  26
TORSDOF 4
