REMARK  Name = ZINC34899120
REMARK  5 active torsions:
REMARK  status: ('A' for Active; 'I' for Inactive)
REMARK    1  A    between atoms: C_2  and  C_15
REMARK    2  A    between atoms: C_4  and  C_11
REMARK    3  A    between atoms: C_6  and  C_7
REMARK    4  A    between atoms: C_21  and  C_25
REMARK    5  A    between atoms: N_27  and  C_28
REMARK                            x       y       z     vdW  Elec       q    Type
REMARK                         _______ _______ _______ _____ _____    ______ ____
ROOT
ATOM      1  C   UNL     1       1.243   3.571   0.012  0.00  0.00    +0.039 C 
ATOM      2  C   UNL     1       1.874   4.127  -1.268  0.00  0.00    +0.017 C 
ATOM      3  C   UNL     1       1.597   5.633  -1.356  0.00  0.00    +0.075 C 
ATOM      4  C   UNL     1       1.958   6.257  -0.028  0.00  0.00    +0.111 A 
ATOM      5  N   UNL     1       2.143   7.517   0.222  0.00  0.00    -0.228 NA
ATOM      6  C   UNL     1       2.453   7.663   1.537  0.00  0.00    +0.143 A 
ATOM      7  C   UNL     1       2.452   6.419   2.102  0.00  0.00    +0.120 A 
ATOM      8  N   UNL     1       2.141   5.547   1.121  0.00  0.00    -0.333 N 
ATOM      9  C   UNL     1       2.014   4.090   1.230  0.00  0.00    +0.131 C 
ENDROOT
BRANCH   1  11
ATOM     10  C   UNL     1       0.133   1.327   0.041  0.00  0.00    +0.016 A 
ATOM     11  C   UNL     1       1.301   2.065  -0.014  0.00  0.00    -0.042 A 
ATOM     12  C   UNL     1       2.521   1.421  -0.091  0.00  0.00    +0.016 A 
ATOM     13  C   UNL     1       2.574   0.040  -0.115  0.00  0.00    +0.056 A 
ATOM     14  C   UNL     1       1.406  -0.698  -0.059  0.00  0.00    +0.024 A 
ATOM     15  C   UNL     1       0.185  -0.054   0.017  0.00  0.00    +0.056 A 
BRANCH  15  16
ATOM     16  C   UNL     1      -1.088  -0.857   0.077  0.00  0.00    +0.417 C 
ATOM     17  F   UNL     1      -1.556  -1.086  -1.222  0.00  0.00    -0.166 F 
ATOM     18  F   UNL     1      -0.838  -2.082   0.705  0.00  0.00    -0.166 F 
ATOM     19  F   UNL     1      -2.053  -0.150   0.802  0.00  0.00    -0.166 F 
ENDBRANCH  15  16
BRANCH  13  20
ATOM     20  C   UNL     1       3.905  -0.662  -0.200  0.00  0.00    +0.417 C 
ATOM     21  F   UNL     1       4.391  -0.899   1.090  0.00  0.00    -0.166 F 
ATOM     22  F   UNL     1       3.747  -1.881  -0.870  0.00  0.00    -0.166 F 
ATOM     23  F   UNL     1       4.811   0.141  -0.901  0.00  0.00    -0.166 F 
ENDBRANCH  13  20
ENDBRANCH   1  11
BRANCH   6  24
ATOM     24  C   UNL     1       2.740   8.932   2.228  0.00  0.00    +0.264 C 
ATOM     25  O   UNL     1       3.006   8.931   3.415  0.00  0.00    -0.268 OA
ATOM     26  N   UNL     1       2.706  10.093   1.546  0.00  0.00    -0.299 N 
ATOM     27  H   UNL     1       2.494  10.094   0.599  0.00  0.00    +0.150 HD
BRANCH  26  28
ATOM     28  C   UNL     1       2.991  11.355   2.233  0.00  0.00    +0.159 C 
ATOM     29  C   UNL     1       2.507  12.528   1.376  0.00  0.00    +0.032 C 
ATOM     30  C   UNL     1       2.688  12.226  -0.100  0.00  0.00    +0.004 C 
ATOM     31  C   UNL     1       4.140  12.127  -0.532  0.00  0.00    +0.019 C 
ATOM     32  C   UNL     1       4.813  10.906   0.099  0.00  0.00    +0.104 C 
ATOM     33  N   UNL     1       5.325  11.285   1.426  0.00  0.00    -0.314 N 
ATOM     34  C   UNL     1       4.484  11.494   2.444  0.00  0.00    +0.233 C 
ATOM     35  O   UNL     1       4.914  11.800   3.536  0.00  0.00    -0.274 OA
ATOM     36  H   UNL     1       6.281  11.381   1.565  0.00  0.00    +0.149 HD
ENDBRANCH  26  28
ENDBRANCH   6  24
TORSDOF 5
