REMARK  Name = ZINC36714435
REMARK  9 active torsions:
REMARK  status: ('A' for Active; 'I' for Inactive)
REMARK    1  A    between atoms: C_1  and  C_2
REMARK    2  A    between atoms: C_5  and  N_8
REMARK    3  A    between atoms: C_9  and  C_33
REMARK    4  A    between atoms: C_10  and  C_13
REMARK    5  A    between atoms: N_15  and  N_16
REMARK    6  A    between atoms: C_17  and  C_19
REMARK    7  A    between atoms: C_19  and  C_21
REMARK    8  A    between atoms: C_19  and  O_22
REMARK    9  A    between atoms: O_22  and  C_23
REMARK                            x       y       z     vdW  Elec       q    Type
REMARK                         _______ _______ _______ _____ _____    ______ ____
ROOT
ATOM      1  C   UNL     1       0.337  -7.480   1.093  0.00  0.00    +0.264 C 
ATOM      2  O   UNL     1       0.854  -7.291   2.177  0.00  0.00    -0.269 OA
ATOM      3  N   UNL     1       0.227  -8.733   0.608  0.00  0.00    -0.230 N 
ATOM      4  H   UNL     1      -0.185  -8.884  -0.256  0.00  0.00    +0.173 HD
ENDROOT
BRANCH   1   7
ATOM      5  N   UNL     1      -0.694  -4.300  -0.316  0.00  0.00    -0.227 N 
ATOM      6  C   UNL     1      -0.128  -5.009   0.677  0.00  0.00    +0.159 A 
ATOM      7  C   UNL     1      -0.171  -6.339   0.310  0.00  0.00    +0.088 A 
ATOM      8  C   UNL     1      -0.792  -6.403  -0.958  0.00  0.00    +0.148 A 
ATOM      9  N   UNL     1      -1.104  -5.188  -1.317  0.00  0.00    -0.174 NA
BRANCH   5  14
ATOM     10  C   UNL     1      -1.339   1.338  -0.417  0.00  0.00    +0.044 C 
ATOM     11  C   UNL     1      -1.167  -0.159  -0.390  0.00  0.00    -0.050 A 
ATOM     12  C   UNL     1      -0.910  -0.845  -1.563  0.00  0.00    +0.005 A 
ATOM     13  C   UNL     1      -0.753  -2.217  -1.542  0.00  0.00    +0.028 A 
ATOM     14  C   UNL     1      -0.853  -2.907  -0.341  0.00  0.00    +0.066 A 
ATOM     15  C   UNL     1      -1.111  -2.216   0.835  0.00  0.00    +0.028 A 
ATOM     16  C   UNL     1      -1.262  -0.843   0.808  0.00  0.00    +0.005 A 
ENDBRANCH   5  14
BRANCH   6  17
ATOM     17  C   UNL     1       0.448  -4.454   1.954  0.00  0.00    +0.435 C 
ATOM     18  F   UNL     1      -0.550  -4.404   2.933  0.00  0.00    -0.164 F 
ATOM     19  F   UNL     1       1.490  -5.277   2.392  0.00  0.00    -0.164 F 
ATOM     20  F   UNL     1       0.938  -3.164   1.723  0.00  0.00    -0.164 F 
ENDBRANCH   6  17
ENDBRANCH   1   7
BRANCH   3  21
ATOM     21  N   UNL     1       0.710  -9.817   1.353  0.00  0.00    -0.231 N 
ATOM     22  C   UNL     1       0.601 -11.069   0.868  0.00  0.00    +0.270 C 
ATOM     23  O   UNL     1       0.084 -11.258  -0.213  0.00  0.00    -0.270 OA
ATOM     24  H   UNL     1       1.123  -9.666   2.218  0.00  0.00    +0.173 HD
BRANCH  22  25
ATOM     25  C   UNL     1       1.119 -12.236   1.669  0.00  0.00    +0.257 C 
ATOM     26  C   UNL     1       2.640 -12.127   1.803  0.00  0.00    +0.062 C 
BRANCH  25  27
ATOM     27  O   UNL     1       0.786 -13.456   1.005  0.00  0.00    -0.480 OA
BRANCH  27  28
ATOM     28  C   UNL     1       0.698 -14.573   1.774  0.00  0.00    +0.122 A 
ATOM     29  C   UNL     1       1.037 -14.507   3.129  0.00  0.00    +0.046 A 
ATOM     30  C   UNL     1       0.959 -15.607   3.924  0.00  0.00    +0.012 A 
ATOM     31  C   UNL     1       0.531 -16.831   3.380  0.00  0.00    -0.018 A 
ATOM     32  C   UNL     1       0.438 -17.988   4.173  0.00  0.00    +0.008 A 
ATOM     33  C   UNL     1       0.020 -19.156   3.614  0.00  0.00    +0.001 A 
ATOM     34  C   UNL     1      -0.319 -19.225   2.264  0.00  0.00    +0.001 A 
ATOM     35  C   UNL     1      -0.241 -18.125   1.465  0.00  0.00    +0.008 A 
ATOM     36  C   UNL     1       0.187 -16.901   2.007  0.00  0.00    -0.014 A 
ATOM     37  C   UNL     1       0.274 -15.745   1.214  0.00  0.00    +0.054 A 
ENDBRANCH  27  28
ENDBRANCH  25  27
ENDBRANCH  22  25
ENDBRANCH   3  21
TORSDOF 7
