REMARK  Name = ZINC09325601
REMARK  10 active torsions:
REMARK  status: ('A' for Active; 'I' for Inactive)
REMARK    1  A    between atoms: C_1  and  C_2
REMARK    2  A    between atoms: C_2  and  O_3
REMARK    3  A    between atoms: O_3  and  C_4
REMARK    4  A    between atoms: C_7  and  C_9
REMARK    5  A    between atoms: C_13  and  N_14
REMARK    6  A    between atoms: C_15  and  C_17
REMARK    7  A    between atoms: C_20  and  C_23
REMARK    8  A    between atoms: C_23  and  C_24
REMARK    9  A    between atoms: C_34  and  O_36
REMARK   10  A    between atoms: O_36  and  C_37
REMARK                            x       y       z     vdW  Elec       q    Type
REMARK                         _______ _______ _______ _____ _____    ______ ____
ROOT
ATOM      1  C   UNL     1       3.834  -2.288  -8.228  0.00  0.00    +0.069 A 
ATOM      2  C   UNL     1       4.370  -2.274  -9.579  0.00  0.00    -0.020 A 
ATOM      3  C   UNL     1       5.100  -1.181  -9.894  0.00  0.00    +0.013 A 
ATOM      4  S   UNL     1       5.081  -0.183  -8.433  0.00  0.00    -0.076 S 
ATOM      5  C   UNL     1       4.122  -1.202  -7.411  0.00  0.00    +0.085 A 
ATOM      6  C   UNL     1       5.767  -0.893 -11.205  0.00  0.00    +0.153 C 
ATOM      7  N   UNL     1       5.683  -2.124 -12.016  0.00  0.00    -0.262 N 
ATOM      8  C   UNL     1       4.412  -2.865 -11.997  0.00  0.00    +0.116 C 
ATOM      9  C   UNL     1       4.149  -3.395 -10.586  0.00  0.00    +0.056 C 
ATOM     10  C   UNL     1       6.732  -2.554 -12.745  0.00  0.00    +0.403 C 
ATOM     11  O   UNL     1       6.638  -3.570 -13.405  0.00  0.00    -0.226 OA
ENDROOT
BRANCH   1  15
ATOM     12  C   UNL     1       2.858  -5.489  -6.704  0.00  0.00    +0.407 C 
ATOM     13  O   UNL     1       1.652  -5.465  -6.844  0.00  0.00    -0.226 OA
ATOM     14  N   UNL     1       3.608  -4.460  -7.147  0.00  0.00    -0.217 N 
ATOM     15  C   UNL     1       3.019  -3.406  -7.746  0.00  0.00    +0.255 C 
ATOM     16  O   UNL     1       1.811  -3.383  -7.886  0.00  0.00    -0.270 OA
ATOM     17  H   UNL     1       4.572  -4.478  -7.035  0.00  0.00    +0.161 HD
BRANCH  12  18
ATOM     18  O   UNL     1       3.447  -6.541  -6.106  0.00  0.00    -0.450 OA
BRANCH  18  20
ATOM     19  C   UNL     1       3.420  -8.713  -5.005  0.00  0.00    +0.048 C 
ATOM     20  C   UNL     1       2.578  -7.613  -5.654  0.00  0.00    +0.230 C 
ENDBRANCH  18  20
ENDBRANCH  12  18
ENDBRANCH   1  15
BRANCH   5  21
ATOM     21  N   UNL     1       3.732  -0.984  -6.100  0.00  0.00    -0.275 N 
ATOM     22  C   UNL     1       4.112   0.141  -5.462  0.00  0.00    +0.249 C 
ATOM     23  O   UNL     1       4.797   0.964  -6.037  0.00  0.00    -0.270 OA
ATOM     24  H   UNL     1       3.185  -1.641  -5.641  0.00  0.00    +0.156 HD
BRANCH  22  25
ATOM     25  C   UNL     1       3.696   0.373  -4.063  0.00  0.00    +0.037 A 
ATOM     26  C   UNL     1       4.087   1.538  -3.400  0.00  0.00    +0.013 A 
ATOM     27  C   UNL     1       3.695   1.749  -2.094  0.00  0.00    +0.005 A 
ATOM     28  C   UNL     1       2.915   0.810  -1.442  0.00  0.00    -0.043 A 
ATOM     29  C   UNL     1       2.528  -0.348  -2.092  0.00  0.00    +0.005 A 
ATOM     30  C   UNL     1       2.909  -0.570  -3.400  0.00  0.00    +0.013 A 
BRANCH  28  31
ATOM     31  C   UNL     1       2.490   1.048  -0.016  0.00  0.00    +0.070 C 
BRANCH  31  32
ATOM     32  C   UNL     1       1.175   1.783   0.000  0.00  0.00    -0.043 A 
ATOM     33  C   UNL     1      -0.013   1.076   0.008  0.00  0.00    +0.004 A 
ATOM     34  C   UNL     1      -1.219   1.751   0.017  0.00  0.00    +0.000 A 
ATOM     35  C   UNL     1      -1.238   3.133   0.030  0.00  0.00    +0.000 A 
ATOM     36  C   UNL     1      -0.050   3.840   0.022  0.00  0.00    +0.000 A 
ATOM     37  C   UNL     1       1.156   3.165   0.008  0.00  0.00    +0.004 A 
ENDBRANCH  31  32
ENDBRANCH  28  31
ENDBRANCH  22  25
ENDBRANCH   5  21
BRANCH  10  38
ATOM     38  O   UNL     1       7.883  -1.857 -12.744  0.00  0.00    -0.454 OA
ATOM     39  C   UNL     1       8.971  -2.378 -13.553  0.00  0.00    +0.282 C 
ENDBRANCH  10  38
TORSDOF 8
