REMARK  Name = ZINC66644340
REMARK  5 active torsions:
REMARK  status: ('A' for Active; 'I' for Inactive)
REMARK    1  A    between atoms: C_1  and  O_2
REMARK    2  A    between atoms: O_2  and  C_3
REMARK    3  A    between atoms: C_9  and  C_11
REMARK    4  A    between atoms: N_13  and  C_14
REMARK    5  A    between atoms: C_17  and  N_20
REMARK                            x       y       z     vdW  Elec       q    Type
REMARK                         _______ _______ _______ _____ _____    ______ ____
ROOT
ATOM      1  C   UNL     1       4.825  -2.507  -3.386  0.00  0.00    +0.034 A 
ATOM      2  C   UNL     1       5.431  -2.005  -2.242  0.00  0.00    +0.025 A 
ATOM      3  C   UNL     1       6.792  -1.774  -2.227  0.00  0.00    +0.025 A 
ATOM      4  C   UNL     1       7.555  -2.043  -3.356  0.00  0.00    +0.035 A 
ATOM      5  C   UNL     1       6.949  -2.545  -4.500  0.00  0.00    +0.025 A 
ATOM      6  C   UNL     1       5.589  -2.782  -4.513  0.00  0.00    +0.025 A 
ENDROOT
BRANCH   4   7
ATOM      7  N   UNL     1       8.936  -1.808  -3.340  0.00  0.00    -0.269 N 
ATOM      8  C   UNL     1       9.559  -1.376  -4.454  0.00  0.00    +0.306 C 
ATOM      9  O   UNL     1       8.939  -1.270  -5.495  0.00  0.00    -0.252 OA
ATOM     10  N   UNL     1      10.869  -1.062  -4.415  0.00  0.00    -0.285 N 
ATOM     11  C   UNL     1      11.579  -1.206  -3.164  0.00  0.00    +0.109 C 
ATOM     12  C   UNL     1      11.479   0.112  -2.356  0.00  0.00    +0.019 C 
ATOM     13  C   UNL     1      12.297   1.160  -2.985  0.00  0.00    +0.002 C 
ATOM     14  C   UNL     1      11.852   1.545  -4.392  0.00  0.00    +0.002 C 
ATOM     15  C   UNL     1      12.469   0.596  -5.390  0.00  0.00    +0.019 C 
ATOM     16  C   UNL     1      11.521  -0.592  -5.654  0.00  0.00    +0.109 C 
ATOM     17  H   UNL     1       9.444  -1.957  -2.527  0.00  0.00    +0.156 HD
ENDBRANCH   4   7
BRANCH   1  20
ATOM     18  C   UNL     1       2.946  -3.789  -4.088  0.00  0.00    +0.238 C 
ATOM     19  O   UNL     1       3.683  -4.480  -4.759  0.00  0.00    -0.273 OA
ATOM     20  N   UNL     1       3.444  -2.741  -3.402  0.00  0.00    -0.284 N 
ATOM     21  H   UNL     1       2.846  -2.149  -2.920  0.00  0.00    +0.155 HD
BRANCH  18  28
ATOM     22  C   UNL     1       1.726  -6.592  -3.859  0.00  0.00    +0.403 C 
ATOM     23  O   UNL     1       2.429  -6.490  -2.873  0.00  0.00    -0.226 OA
ATOM     24  N   UNL     1       1.237  -5.487  -4.455  0.00  0.00    -0.256 N 
ATOM     25  C   UNL     1       0.370  -5.466  -5.648  0.00  0.00    +0.112 C 
ATOM     26  C   UNL     1      -0.393  -4.121  -5.560  0.00  0.00    +0.021 C 
ATOM     27  C   UNL     1       0.699  -3.180  -4.985  0.00  0.00    +0.033 C 
ATOM     28  C   UNL     1       1.474  -4.103  -4.021  0.00  0.00    +0.165 C 
BRANCH  22  30
ATOM     29  C   UNL     1       1.988  -8.937  -3.673  0.00  0.00    +0.282 C 
ATOM     30  O   UNL     1       1.435  -7.810  -4.355  0.00  0.00    -0.454 OA
ENDBRANCH  22  30
ENDBRANCH  18  28
ENDBRANCH   1  20
TORSDOF 4
