REMARK  Name = ZINC36058670
REMARK  9 active torsions:
REMARK  status: ('A' for Active; 'I' for Inactive)
REMARK    1  A    between atoms: C_1  and  C_2
REMARK    2  A    between atoms: C_3  and  C_31
REMARK    3  A    between atoms: C_4  and  C_24
REMARK    4  A    between atoms: C_7  and  C_12
REMARK    5  A    between atoms: C_13  and  N_15
REMARK    6  A    between atoms: C_21  and  C_23
REMARK    7  A    between atoms: C_31  and  O_33
REMARK    8  A    between atoms: O_33  and  C_34
REMARK    9  A    between atoms: C_34  and  C_35
REMARK                            x       y       z     vdW  Elec       q    Type
REMARK                         _______ _______ _______ _____ _____    ______ ____
ROOT
ATOM      1  C   UNL     1       0.815   1.441  -0.384  0.00  0.00    +0.066 C 
ATOM      2  C   UNL     1       0.524  -0.033  -0.262  0.00  0.00    +0.053 C 
ATOM      3  C   UNL     1      -0.778  -0.485  -0.348  0.00  0.00    +0.083 C 
ATOM      4  C   UNL     1      -1.018  -1.973  -0.220  0.00  0.00    +0.152 C 
ATOM      5  N   UNL     1       0.175  -2.835  -0.011  0.00  0.00    -0.267 N 
ATOM      6  C   UNL     1       0.194  -4.208   0.131  0.00  0.00    +0.048 C 
ATOM      7  C   UNL     1       1.393  -4.804   0.313  0.00  0.00    +0.072 C 
ATOM      8  S   UNL     1       2.504  -3.411   0.283  0.00  0.00    -0.060 S 
ATOM      9  C   UNL     1       1.379  -2.189   0.045  0.00  0.00    +0.166 C 
ATOM     10  N   UNL     1       1.520  -0.886  -0.080  0.00  0.00    -0.230 NA
ENDROOT
BRANCH   4  11
ATOM     11  C   UNL     1      -1.714  -2.440  -1.472  0.00  0.00    +0.013 A 
ATOM     12  C   UNL     1      -3.059  -2.755  -1.440  0.00  0.00    +0.008 A 
ATOM     13  C   UNL     1      -3.697  -3.183  -2.588  0.00  0.00    +0.001 A 
ATOM     14  C   UNL     1      -2.991  -3.297  -3.771  0.00  0.00    +0.003 A 
ATOM     15  C   UNL     1      -1.646  -2.983  -3.807  0.00  0.00    +0.039 A 
ATOM     16  C   UNL     1      -1.007  -2.548  -2.658  0.00  0.00    +0.129 A 
ATOM     17  F   UNL     1       0.307  -2.236  -2.692  0.00  0.00    -0.205 F 
ENDBRANCH   4  11
BRANCH   6  18
ATOM     18  C   UNL     1      -1.047  -4.995   0.086  0.00  0.00    +0.091 C 
ATOM     19  C   UNL     1      -1.018  -6.315   0.353  0.00  0.00    +0.241 C 
ATOM     20  O   UNL     1       0.168  -6.939   0.556  0.00  0.00    -0.271 OA
BRANCH  19  21
ATOM     21  N   UNL     1      -2.200  -7.034   0.420  0.00  0.00    -0.295 N 
ATOM     22  C   UNL     1      -3.349  -6.663  -0.417  0.00  0.00    +0.127 C 
ATOM     23  C   UNL     1      -3.777  -7.889  -1.233  0.00  0.00    +0.126 C 
ATOM     24  N   UNL     1      -3.904  -9.037  -0.325  0.00  0.00    -0.299 N 
ATOM     25  C   UNL     1      -2.754  -9.408   0.512  0.00  0.00    +0.126 C 
ATOM     26  C   UNL     1      -2.324  -8.185   1.324  0.00  0.00    +0.127 C 
ATOM     27  C   UNL     1      -5.053  -9.737  -0.260  0.00  0.00    +0.213 C 
ATOM     28  O   UNL     1      -5.996  -9.421  -0.955  0.00  0.00    -0.276 OA
ATOM     29  C   UNL     1      -5.168 -10.912   0.677  0.00  0.00    +0.109 C 
ENDBRANCH  19  21
ENDBRANCH   6  18
BRANCH   3  30
ATOM     30  C   UNL     1      -1.841   0.405  -0.546  0.00  0.00    +0.339 C 
ATOM     31  O   UNL     1      -1.633   1.605  -0.578  0.00  0.00    -0.245 OA
BRANCH  30  32
ATOM     32  O   UNL     1      -3.098  -0.068  -0.700  0.00  0.00    -0.457 OA
BRANCH  32  33
ATOM     33  C   UNL     1      -4.134   0.896  -0.898  0.00  0.00    +0.259 C 
BRANCH  33  34
ATOM     34  C   UNL     1      -5.456   0.189  -1.050  0.00  0.00    +0.006 C 
ATOM     35  C   UNL     1      -6.512   0.631  -0.413  0.00  0.00    +0.007 C 
ENDBRANCH  33  34
ENDBRANCH  32  33
ENDBRANCH  30  32
ENDBRANCH   3  30
TORSDOF 7
