REMARK  Name = ZINC12498311
REMARK  11 active torsions:
REMARK  status: ('A' for Active; 'I' for Inactive)
REMARK    1  A    between atoms: C_1  and  C_2
REMARK    2  A    between atoms: C_2  and  O_3
REMARK    3  A    between atoms: O_3  and  C_4
REMARK    4  A    between atoms: C_4  and  C_6
REMARK    5  A    between atoms: C_10  and  N_11
REMARK    6  A    between atoms: N_11  and  C_12
REMARK    7  A    between atoms: C_12  and  N_14
REMARK    8  A    between atoms: C_15  and  C_17
REMARK    9  A    between atoms: C_17  and  O_18
REMARK   10  A    between atoms: O_18  and  C_19
REMARK   11  A    between atoms: C_22  and  C_26
REMARK                            x       y       z     vdW  Elec       q    Type
REMARK                         _______ _______ _______ _____ _____    ______ ____
ROOT
ATOM      1  N   UNL     1       2.951   6.517   0.009  0.00  0.00    -0.290 N 
ATOM      2  H   UNL     1       3.852   6.158  -0.002  0.00  0.00    +0.154 HD
ENDROOT
BRANCH   1   7
ATOM      3  C   UNL     1       3.703   8.899   0.020  0.00  0.00    +0.091 A 
ATOM      4  C   UNL     1       3.224  10.271   0.026  0.00  0.00    -0.021 A 
ATOM      5  C   UNL     1       1.881  10.411   0.040  0.00  0.00    -0.004 A 
ATOM      6  S   UNL     1       1.252   8.756   0.038  0.00  0.00    -0.077 S 
ATOM      7  C   UNL     1       2.751   7.887   0.018  0.00  0.00    +0.086 A 
ATOM      8  C   UNL     1       1.107  11.693   0.056  0.00  0.00    +0.043 C 
ATOM      9  C   UNL     1       2.065  12.833   0.430  0.00  0.00    +0.005 C 
ATOM     10  C   UNL     1       3.333  12.710  -0.420  0.00  0.00    +0.005 C 
ATOM     11  C   UNL     1       4.140  11.488   0.022  0.00  0.00    +0.037 C 
BRANCH   3  12
ATOM     12  C   UNL     1       5.135   8.594   0.013  0.00  0.00    +0.342 C 
ATOM     13  O   UNL     1       5.725   8.474  -1.044  0.00  0.00    -0.245 OA
BRANCH  12  14
ATOM     14  O   UNL     1       5.799   8.446   1.177  0.00  0.00    -0.461 OA
BRANCH  14  16
ATOM     15  C   UNL     1       7.794   8.014   2.505  0.00  0.00    +0.048 C 
ATOM     16  C   UNL     1       7.217   8.145   1.094  0.00  0.00    +0.229 C 
ENDBRANCH  14  16
ENDBRANCH  12  14
ENDBRANCH   3  12
ENDBRANCH   1   7
BRANCH   1  17
ATOM     17  C   UNL     1       1.893   5.681   0.015  0.00  0.00    +0.141 C 
ATOM     18  S   UNL     1       0.302   6.314   0.033  0.00  0.00    -0.018 S 
BRANCH  17  19
ATOM     19  N   UNL     1       2.088   4.348   0.005  0.00  0.00    -0.265 N 
ATOM     20  C   UNL     1       1.030   3.512   0.011  0.00  0.00    +0.256 C 
ATOM     21  O   UNL     1      -0.096   3.960   0.024  0.00  0.00    -0.272 OA
ATOM     22  H   UNL     1       2.989   3.989  -0.005  0.00  0.00    +0.157 HD
BRANCH  20  23
ATOM     23  C   UNL     1       1.248   2.021   0.001  0.00  0.00    +0.325 C 
BRANCH  23  24
ATOM     24  O   UNL     1      -0.016   1.355   0.009  0.00  0.00    -0.482 OA
BRANCH  24  25
ATOM     25  C   UNL     1       0.002  -0.004   0.002  0.00  0.00    +0.135 A 
ATOM     26  C   UNL     1       1.212  -0.682  -0.013  0.00  0.00    +0.047 A 
ATOM     27  C   UNL     1       1.228  -2.064  -0.020  0.00  0.00    +0.007 A 
ATOM     28  C   UNL     1       0.040  -2.771  -0.012  0.00  0.00    -0.049 A 
ATOM     29  C   UNL     1      -1.168  -2.098   0.004  0.00  0.00    +0.022 A 
ATOM     30  C   UNL     1      -1.190  -0.716   0.015  0.00  0.00    +0.060 A 
ATOM     31 BR   UNL     1      -2.841   0.205   0.043  0.00  0.00    -0.047 Br
ATOM     32  C   UNL     1       0.061  -4.278  -0.019  0.00  0.00    +0.044 C 
ENDBRANCH  24  25
ENDBRANCH  23  24
ENDBRANCH  20  23
ENDBRANCH  17  19
ENDBRANCH   1  17
TORSDOF 9
