REMARK  Name = ZINC12906964
REMARK  11 active torsions:
REMARK  status: ('A' for Active; 'I' for Inactive)
REMARK    1  A    between atoms: C_1  and  C_2
REMARK    2  A    between atoms: C_4  and  C_35
REMARK    3  A    between atoms: C_5  and  N_9
REMARK    4  A    between atoms: C_6  and  C_8
REMARK    5  A    between atoms: C_10  and  C_12
REMARK    6  A    between atoms: C_12  and  N_13
REMARK    7  A    between atoms: C_14  and  C_16
REMARK    8  A    between atoms: C_19  and  S_22
REMARK    9  A    between atoms: S_22  and  N_25
REMARK   10  A    between atoms: C_27  and  C_34
REMARK   11  A    between atoms: C_30  and  C_33
REMARK                            x       y       z     vdW  Elec       q    Type
REMARK                         _______ _______ _______ _____ _____    ______ ____
ROOT
ATOM      1  N   UNL     1      -1.875   6.319   8.007  0.00  0.00    -0.303 N 
ATOM      2  C   UNL     1      -2.618   5.973   6.937  0.00  0.00    +0.244 C 
ATOM      3  O   UNL     1      -3.799   5.720   7.074  0.00  0.00    -0.270 OA
ATOM      4  H   UNL     1      -0.932   6.522   7.898  0.00  0.00    +0.150 HD
ENDROOT
BRANCH   2   5
ATOM      5  C   UNL     1      -1.997   5.903   5.597  0.00  0.00    +0.037 A 
ATOM      6  C   UNL     1      -2.763   5.545   4.487  0.00  0.00    +0.015 A 
ATOM      7  C   UNL     1      -2.178   5.480   3.240  0.00  0.00    +0.029 A 
ATOM      8  C   UNL     1      -0.833   5.769   3.088  0.00  0.00    +0.106 A 
ATOM      9  C   UNL     1      -0.066   6.119   4.185  0.00  0.00    +0.029 A 
ATOM     10  C   UNL     1      -0.641   6.193   5.437  0.00  0.00    +0.015 A 
BRANCH   8  11
ATOM     11  S   UNL     1      -0.092   5.683   1.491  0.00  0.00    +0.061 S 
ATOM     12  O   UNL     1      -0.893   4.799   0.719  0.00  0.00    -0.153 OA
ATOM     13  O   UNL     1       1.297   5.468   1.699  0.00  0.00    -0.153 OA
BRANCH  11  14
ATOM     14  N   UNL     1      -0.241   7.181   0.801  0.00  0.00    -0.176 NA
ATOM     15  C   UNL     1      -1.420   7.519  -0.008  0.00  0.00    +0.112 C 
ATOM     16  C   UNL     1      -0.951   8.034  -1.372  0.00  0.00    +0.002 C 
ATOM     17  C   UNL     1       0.024   9.195  -1.167  0.00  0.00    +0.009 C 
ATOM     18  C   UNL     1       1.247   8.705  -0.389  0.00  0.00    +0.002 C 
ATOM     19  C   UNL     1       0.803   8.198   0.987  0.00  0.00    +0.112 C 
ATOM     20  C   UNL     1       2.236   9.859  -0.213  0.00  0.00    +0.009 C 
ATOM     21  C   UNL     1      -2.158   8.517  -2.179  0.00  0.00    +0.009 C 
ENDBRANCH  11  14
ENDBRANCH   8  11
ENDBRANCH   2   5
BRANCH   1  22
ATOM     22  C   UNL     1      -2.490   6.389   9.335  0.00  0.00    +0.200 C 
BRANCH  22  24
ATOM     23  N   UNL     1      -1.792   6.925  11.646  0.00  0.00    -0.284 N 
ATOM     24  C   UNL     1      -1.452   6.795  10.349  0.00  0.00    +0.234 C 
ATOM     25  O   UNL     1      -0.310   7.005   9.997  0.00  0.00    -0.274 OA
ATOM     26  H   UNL     1      -2.718   6.826  11.917  0.00  0.00    +0.155 HD
BRANCH  23  31
ATOM     27  C   UNL     1       2.193   8.048  15.525  0.00  0.00    +0.044 C 
ATOM     28  C   UNL     1       1.135   7.750  14.494  0.00  0.00    -0.050 A 
ATOM     29  C   UNL     1       1.302   6.692  13.619  0.00  0.00    +0.008 A 
ATOM     30  C   UNL     1       0.334   6.416  12.674  0.00  0.00    -0.029 A 
ATOM     31  C   UNL     1      -0.809   7.202  12.603  0.00  0.00    +0.039 A 
ATOM     32  C   UNL     1      -0.972   8.267  13.479  0.00  0.00    -0.029 A 
ATOM     33  C   UNL     1      -0.002   8.534  14.426  0.00  0.00    +0.008 A 
ATOM     34  C   UNL     1      -2.207   9.126  13.402  0.00  0.00    +0.045 C 
ATOM     35  C   UNL     1       0.517   5.263  11.721  0.00  0.00    +0.045 C 
ENDBRANCH  23  31
ENDBRANCH  22  24
ENDBRANCH   1  22
TORSDOF 6
