REMARK  Name = ZINC32938687
REMARK  8 active torsions:
REMARK  status: ('A' for Active; 'I' for Inactive)
REMARK    1  A    between atoms: C_2  and  C_3
REMARK    2  A    between atoms: C_3  and  N_4
REMARK    3  A    between atoms: N_7  and  C_8
REMARK    4  A    between atoms: C_11  and  N_14
REMARK    5  A    between atoms: C_15  and  C_17
REMARK    6  A    between atoms: C_22  and  S_23
REMARK    7  A    between atoms: S_23  and  C_24
REMARK    8  A    between atoms: C_24  and  C_25
REMARK                            x       y       z     vdW  Elec       q    Type
REMARK                         _______ _______ _______ _____ _____    ______ ____
ROOT
ATOM      1  N   UNL     1      10.299  -1.651  -0.089  0.00  0.00    -0.281 N 
ATOM      2  C   UNL     1       8.971  -1.418  -0.082  0.00  0.00    +0.249 C 
ATOM      3  O   UNL     1       8.554  -0.275  -0.087  0.00  0.00    -0.270 OA
ATOM      4  H   UNL     1      10.677  -2.680  -0.007  0.00  0.00    +0.155 HD
ENDROOT
BRANCH   1   8
ATOM      5  C   UNL     1      12.971   1.533  -0.424  0.00  0.00    +0.035 A 
ATOM      6  C   UNL     1      11.785   1.692   0.282  0.00  0.00    +0.025 A 
ATOM      7  C   UNL     1      10.900   0.638   0.393  0.00  0.00    +0.025 A 
ATOM      8  C   UNL     1      11.196  -0.582  -0.201  0.00  0.00    +0.034 A 
ATOM      9  C   UNL     1      12.384  -0.743  -0.902  0.00  0.00    +0.025 A 
ATOM     10  C   UNL     1      13.266   0.313  -1.018  0.00  0.00    +0.025 A 
BRANCH   5  14
ATOM     11  N   UNL     1      15.373   3.848  -1.814  0.00  0.00    -0.296 N 
ATOM     12  C   UNL     1      14.580   2.768  -1.669  0.00  0.00    +0.304 C 
ATOM     13  O   UNL     1      14.507   1.943  -2.559  0.00  0.00    -0.253 OA
ATOM     14  N   UNL     1      13.868   2.603  -0.537  0.00  0.00    -0.269 N 
ATOM     15  H   UNL     1      15.440   4.594  -1.009  0.00  0.00    +0.151 HD
ATOM     16  H   UNL     1      13.992   3.307   0.299  0.00  0.00    +0.156 HD
BRANCH  11  17
ATOM     17  C   UNL     1      16.147   4.028  -3.045  0.00  0.00    +0.132 C 
BRANCH  17  19
ATOM     18  C   UNL     1      18.243   5.278  -3.133  0.00  0.00    +0.005 C 
ATOM     19  C   UNL     1      16.945   5.303  -2.955  0.00  0.00    -0.016 C 
ENDBRANCH  17  19
ENDBRANCH  11  17
ENDBRANCH   5  14
ENDBRANCH   1   8
BRANCH   2  20
ATOM     20  C   UNL     1       8.025  -2.548  -0.067  0.00  0.00    +0.050 A 
ATOM     21  C   UNL     1       8.500  -3.862  -0.060  0.00  0.00    +0.014 A 
ATOM     22  C   UNL     1       7.610  -4.914  -0.045  0.00  0.00    +0.001 A 
ATOM     23  C   UNL     1       6.244  -4.676  -0.037  0.00  0.00    +0.001 A 
ATOM     24  C   UNL     1       5.759  -3.385  -0.039  0.00  0.00    +0.015 A 
ATOM     25  C   UNL     1       6.641  -2.310  -0.059  0.00  0.00    +0.020 A 
BRANCH  25  26
ATOM     26  S   UNL     1       6.025  -0.660  -0.067  0.00  0.00    -0.115 S 
BRANCH  26  27
ATOM     27  C   UNL     1       4.223  -0.864  -0.053  0.00  0.00    +0.170 C 
BRANCH  27  28
ATOM     28  C   UNL     1       3.563   0.492  -0.059  0.00  0.00    +0.230 C 
ATOM     29  O   UNL     1       4.243   1.496  -0.071  0.00  0.00    -0.274 OA
ATOM     30  N   UNL     1       2.219   0.587  -0.050  0.00  0.00    -0.270 N 
ATOM     31  C   UNL     1       1.466   1.845  -0.053  0.00  0.00    +0.118 C 
ATOM     32  C   UNL     1      -0.014   1.428  -0.040  0.00  0.00    +0.056 C 
ATOM     33  C   UNL     1       0.016  -0.083  -0.029  0.00  0.00    -0.024 A 
ATOM     34  C   UNL     1       1.338  -0.499  -0.036  0.00  0.00    +0.039 A 
ATOM     35  C   UNL     1       1.619  -1.866  -0.030  0.00  0.00    +0.024 A 
ATOM     36  C   UNL     1       0.593  -2.787  -0.016  0.00  0.00    +0.002 A 
ATOM     37  C   UNL     1      -0.723  -2.362  -0.009  0.00  0.00    +0.000 A 
ATOM     38  C   UNL     1      -1.009  -1.010  -0.016  0.00  0.00    +0.005 A 
ENDBRANCH  27  28
ENDBRANCH  26  27
ENDBRANCH  25  26
ENDBRANCH   2  20
TORSDOF 8
