REMARK  Name = ZINC39675374
REMARK  12 active torsions:
REMARK  status: ('A' for Active; 'I' for Inactive)
REMARK    1  A    between atoms: C_1  and  C_2
REMARK    2  A    between atoms: C_2  and  C_3
REMARK    3  A    between atoms: C_3  and  C_5
REMARK    4  A    between atoms: C_3  and  C_11
REMARK    5  A    between atoms: C_15  and  C_24
REMARK    6  A    between atoms: N_26  and  C_27
REMARK    7  A    between atoms: C_27  and  C_29
REMARK    8  A    between atoms: C_27  and  C_30
REMARK    9  A    between atoms: C_30  and  C_31
REMARK   10  A    between atoms: C_31  and  C_32
REMARK   11  A    between atoms: C_35  and  O_38
REMARK   12  A    between atoms: O_38  and  C_39
REMARK                            x       y       z     vdW  Elec       q    Type
REMARK                         _______ _______ _______ _____ _____    ______ ____
ROOT
ATOM      1  C   UNL     1      -1.400  -2.171   0.098  0.00  0.00    +0.223 C 
ATOM      2  O   UNL     1      -1.931  -2.872  -0.737  0.00  0.00    -0.275 OA
ATOM      3  N   UNL     1      -0.848  -2.728   1.194  0.00  0.00    -0.300 N 
ATOM      4  C   UNL     1      -0.166  -2.042   2.317  0.00  0.00    +0.121 C 
ATOM      5  C   UNL     1      -0.626  -2.805   3.578  0.00  0.00    +0.100 C 
ATOM      6  C   UNL     1      -1.030  -4.199   3.068  0.00  0.00    -0.004 C 
ATOM      7  C   UNL     1      -0.791  -4.166   1.552  0.00  0.00    +0.115 C 
ATOM      8  C   UNL     1      -0.161  -5.271   3.718  0.00  0.00    -0.010 C 
ATOM      9  C   UNL     1      -0.619  -6.652   3.239  0.00  0.00    -0.082 C 
ATOM     10  N   UNL     1      -2.028  -6.853   3.597  0.00  0.00    +0.379 N 
ATOM     11  C   UNL     1      -2.868  -5.875   2.895  0.00  0.00    -0.082 C 
ATOM     12  C   UNL     1      -2.504  -4.461   3.359  0.00  0.00    -0.010 C 
ATOM     13  H   UNL     1      -2.310  -7.786   3.336  0.00  0.00    -0.086 HD
ATOM     14  H   UNL     1      -2.141  -6.737   4.593  0.00  0.00    -0.086 HD
ENDROOT
BRANCH   5  15
ATOM     15  C   UNL     1       0.505  -2.913   4.568  0.00  0.00    +0.218 C 
ATOM     16  O   UNL     1       1.650  -2.979   4.175  0.00  0.00    -0.275 OA
ATOM     17  N   UNL     1       0.243  -2.938   5.890  0.00  0.00    -0.312 N 
ATOM     18  H   UNL     1      -0.673  -2.885   6.205  0.00  0.00    +0.149 HD
BRANCH  17  19
ATOM     19  C   UNL     1       1.343  -3.043   6.853  0.00  0.00    +0.070 C 
ATOM     20  C   UNL     1       1.906  -1.649   7.138  0.00  0.00    +0.028 C 
BRANCH  19  21
ATOM     21  C   UNL     1       0.825  -3.660   8.153  0.00  0.00    +0.026 C 
BRANCH  21  22
ATOM     22  C   UNL     1       0.377  -5.099   7.892  0.00  0.00    +0.037 C 
BRANCH  22  23
ATOM     23  C   UNL     1      -0.133  -5.707   9.173  0.00  0.00    -0.047 A 
ATOM     24  C   UNL     1       0.739  -6.371  10.017  0.00  0.00    +0.007 A 
ATOM     25  C   UNL     1       0.274  -6.929  11.191  0.00  0.00    +0.046 A 
ATOM     26  C   UNL     1      -1.069  -6.824  11.524  0.00  0.00    +0.120 A 
ATOM     27  C   UNL     1      -1.941  -6.157  10.676  0.00  0.00    +0.046 A 
ATOM     28  C   UNL     1      -1.470  -5.596   9.505  0.00  0.00    +0.007 A 
BRANCH  26  29
ATOM     29  O   UNL     1      -1.529  -7.373  12.679  0.00  0.00    -0.495 OA
ATOM     30  C   UNL     1      -2.923  -7.226  12.957  0.00  0.00    +0.277 C 
ENDBRANCH  26  29
ENDBRANCH  22  23
ENDBRANCH  21  22
ENDBRANCH  19  21
ENDBRANCH  17  19
ENDBRANCH   5  15
BRANCH   1  31
ATOM     31  C   UNL     1      -1.357  -0.676  -0.090  0.00  0.00    +0.105 C 
BRANCH  31  32
ATOM     32  C   UNL     1      -2.038  -0.313  -1.384  0.00  0.00    -0.036 A 
ATOM     33  C   UNL     1      -1.564  -0.818  -2.580  0.00  0.00    +0.004 A 
ATOM     34  C   UNL     1      -2.189  -0.485  -3.768  0.00  0.00    +0.000 A 
ATOM     35  C   UNL     1      -3.288   0.353  -3.759  0.00  0.00    +0.000 A 
ATOM     36  C   UNL     1      -3.763   0.858  -2.562  0.00  0.00    +0.000 A 
ATOM     37  C   UNL     1      -3.140   0.521  -1.375  0.00  0.00    +0.004 A 
ENDBRANCH  31  32
BRANCH  31  39
ATOM     38  C   UNL     1       0.143   1.319  -0.197  0.00  0.00    +0.005 C 
ATOM     39  C   UNL     1       0.099  -0.209  -0.132  0.00  0.00    +0.014 C 
ENDBRANCH  31  39
ENDBRANCH   1  31
TORSDOF 9
