REMARK  Name = ZINC16220331
REMARK  8 active torsions:
REMARK  status: ('A' for Active; 'I' for Inactive)
REMARK    1  A    between atoms: C_1  and  C_2
REMARK    2  A    between atoms: C_5  and  S_22
REMARK    3  A    between atoms: C_7  and  N_8
REMARK    4  A    between atoms: N_8  and  C_9
REMARK    5  A    between atoms: C_9  and  N_11
REMARK    6  A    between atoms: N_11  and  C_12
REMARK    7  A    between atoms: S_22  and  N_25
REMARK    8  A    between atoms: N_25  and  C_26
REMARK                            x       y       z     vdW  Elec       q    Type
REMARK                         _______ _______ _______ _____ _____    ______ ____
ROOT
ATOM      1  C   UNL     1      -0.757   1.831   0.151  0.00  0.00    +0.045 C 
ATOM      2  C   UNL     1      -0.333   0.385   0.112  0.00  0.00    -0.029 A 
ATOM      3  C   UNL     1      -0.348  -0.308  -1.083  0.00  0.00    +0.007 A 
ATOM      4  C   UNL     1       0.041  -1.634  -1.119  0.00  0.00    +0.029 A 
ATOM      5  C   UNL     1       0.447  -2.271   0.039  0.00  0.00    +0.110 A 
ATOM      6  C   UNL     1       0.464  -1.584   1.237  0.00  0.00    +0.052 A 
ATOM      7  C   UNL     1       0.079  -0.250   1.276  0.00  0.00    +0.037 A 
ENDROOT
BRANCH   5   8
ATOM      8  S   UNL     1       0.941  -3.962  -0.013  0.00  0.00    +0.072 S 
ATOM      9  O   UNL     1       0.865  -4.449   1.320  0.00  0.00    -0.150 OA
ATOM     10  O   UNL     1       0.227  -4.561  -1.085  0.00  0.00    -0.150 OA
BRANCH   8  11
ATOM     11  N   UNL     1       2.542  -3.991  -0.436  0.00  0.00    -0.216 N 
ATOM     12  H   UNL     1       3.204  -4.319   0.192  0.00  0.00    +0.174 HD
BRANCH  11  13
ATOM     13  C   UNL     1       2.939  -3.542  -1.699  0.00  0.00    +0.048 A 
ATOM     14  C   UNL     1       2.241  -3.943  -2.831  0.00  0.00    +0.026 A 
ATOM     15  C   UNL     1       2.635  -3.497  -4.077  0.00  0.00    +0.022 A 
ATOM     16  C   UNL     1       3.725  -2.654  -4.199  0.00  0.00    +0.041 A 
ATOM     17  C   UNL     1       4.423  -2.253  -3.073  0.00  0.00    +0.022 A 
ATOM     18  C   UNL     1       4.029  -2.691  -1.823  0.00  0.00    +0.026 A 
ATOM     19 CL   UNL     1       4.219  -2.097  -5.768  0.00  0.00    -0.084 Cl
ENDBRANCH  11  13
ENDBRANCH   8  11
ENDBRANCH   5   8
BRANCH   7  20
ATOM     20  N   UNL     1       0.102   0.450   2.487  0.00  0.00    -0.297 N 
ATOM     21  H   UNL     1       0.448   1.356   2.517  0.00  0.00    +0.154 HD
BRANCH  20  22
ATOM     22  C   UNL     1      -0.359  -0.133   3.611  0.00  0.00    +0.135 C 
ATOM     23  S   UNL     1      -0.850  -1.772   3.586  0.00  0.00    -0.019 S 
BRANCH  22  24
ATOM     24  N   UNL     1      -0.432   0.575   4.756  0.00  0.00    -0.323 N 
ATOM     25  H   UNL     1      -0.154   1.504   4.770  0.00  0.00    +0.148 HD
BRANCH  24  26
ATOM     26  C   UNL     1      -0.932  -0.058   5.978  0.00  0.00    +0.075 C 
ATOM     27  C   UNL     1      -2.470   0.075   6.064  0.00  0.00    +0.026 C 
ATOM     28  C   UNL     1      -2.723   0.894   7.366  0.00  0.00    -0.009 C 
ATOM     29  C   UNL     1      -2.367  -0.090   8.522  0.00  0.00    +0.004 C 
ATOM     30  C   UNL     1      -0.831  -0.241   8.447  0.00  0.00    +0.005 C 
ATOM     31  C   UNL     1      -0.399   0.691   7.237  0.00  0.00    +0.010 C 
ATOM     32  C   UNL     1      -1.468   1.837   7.364  0.00  0.00    +0.009 C 
ENDBRANCH  24  26
ENDBRANCH  22  24
ENDBRANCH  20  22
ENDBRANCH   7  20
TORSDOF 7
