REMARK  Name = ZINC04145772
REMARK  11 active torsions:
REMARK  status: ('A' for Active; 'I' for Inactive)
REMARK    1  A    between atoms: C_1  and  C_2
REMARK    2  A    between atoms: C_3  and  C_18
REMARK    3  A    between atoms: C_4  and  C_11
REMARK    4  A    between atoms: N_9  and  C_10
REMARK    5  A    between atoms: C_18  and  C_20
REMARK    6  A    between atoms: C_18  and  N_64
REMARK    7  A    between atoms: C_21  and  C_22
REMARK    8  A    between atoms: C_21  and  N_64
REMARK    9  A    between atoms: C_28  and  C_29
REMARK   10  A    between atoms: C_28  and  N_64
REMARK   11  A    between atoms: C_34  and  C_35
REMARK                            x       y       z     vdW  Elec       q    Type
REMARK                         _______ _______ _______ _____ _____    ______ ____
ROOT
ATOM      1  C   UNL     1       0.483   4.342   2.817  0.00  0.00    -0.040 C 
ATOM      2  C   UNL     1       1.260   3.488   3.822  0.00  0.00    -0.009 C 
ENDROOT
BRANCH   1   5
ATOM      3  C   UNL     1      -2.329   4.586   2.560  0.00  0.00    +0.061 C 
ATOM      4  C   UNL     1      -1.591   3.551   1.752  0.00  0.00    +0.011 C 
ATOM      5  C   UNL     1      -0.280   3.444   1.879  0.00  0.00    -0.042 C 
ATOM      6  C   UNL     1       0.433   2.394   1.053  0.00  0.00    +0.131 C 
ATOM      7  N   UNL     1      -0.395   1.563   0.163  0.00  0.00    -0.288 N 
ATOM      8  C   UNL     1      -1.725   1.783   0.135  0.00  0.00    +0.307 C 
ATOM      9  O   UNL     1      -2.421   1.105  -0.595  0.00  0.00    -0.252 OA
ATOM     10  N   UNL     1      -2.299   2.729   0.891  0.00  0.00    -0.263 N 
ATOM     11  C   UNL     1      -3.751   2.902   0.801  0.00  0.00    +0.139 C 
ATOM     12  H   UNL     1       0.007   0.875  -0.390  0.00  0.00    +0.151 HD
BRANCH   6  13
ATOM     13  C   UNL     1       1.161   1.476   2.000  0.00  0.00    -0.023 A 
ATOM     14  C   UNL     1       2.543   1.426   1.988  0.00  0.00    +0.008 A 
ATOM     15  C   UNL     1       3.212   0.584   2.856  0.00  0.00    +0.038 A 
ATOM     16  C   UNL     1       2.498  -0.210   3.737  0.00  0.00    +0.123 A 
ATOM     17  C   UNL     1       1.114  -0.163   3.744  0.00  0.00    +0.038 A 
ATOM     18  C   UNL     1       0.447   0.683   2.879  0.00  0.00    +0.008 A 
ATOM     19  F   UNL     1       3.151  -1.034   4.586  0.00  0.00    -0.205 F 
ENDBRANCH   6  13
ENDBRANCH   1   5
BRANCH   1  20
ATOM     20  N   UNL     1       1.435   5.153   2.028  0.00  0.00    +0.389 N 
ATOM     21  H   UNL     1       1.859   4.559   1.306  0.00  0.00    -0.080 HD
BRANCH  20  22
ATOM     22  C   UNL     1       2.502   5.677   2.906  0.00  0.00    -0.042 C 
BRANCH  22  23
ATOM     23  C   UNL     1       3.767   5.808   2.098  0.00  0.00    -0.064 A 
ATOM     24  C   UNL     1       4.097   4.840   1.169  0.00  0.00    +0.002 A 
ATOM     25  C   UNL     1       5.255   4.963   0.423  0.00  0.00    +0.000 A 
ATOM     26  C   UNL     1       6.088   6.049   0.615  0.00  0.00    +0.000 A 
ATOM     27  C   UNL     1       5.761   7.015   1.548  0.00  0.00    +0.000 A 
ATOM     28  C   UNL     1       4.600   6.895   2.290  0.00  0.00    +0.002 A 
ENDBRANCH  22  23
ENDBRANCH  20  22
BRANCH  20  29
ATOM     29  C   UNL     1       0.724   6.272   1.374  0.00  0.00    -0.040 C 
BRANCH  29  30
ATOM     30  C   UNL     1       1.732   7.178   0.716  0.00  0.00    -0.047 A 
ATOM     31  C   UNL     1       2.231   8.268   1.398  0.00  0.00    +0.003 A 
ATOM     32  C   UNL     1       3.160   9.099   0.797  0.00  0.00    +0.000 A 
ATOM     33  C   UNL     1       3.588   8.848  -0.495  0.00  0.00    +0.001 A 
ATOM     34  C   UNL     1       3.094   7.764  -1.190  0.00  0.00    +0.019 A 
ATOM     35  C   UNL     1       2.160   6.919  -0.588  0.00  0.00    +0.053 A 
BRANCH  35  36
ATOM     36  C   UNL     1       1.642   5.792  -1.304  0.00  0.00    +0.099 C 
ATOM     37  N   UNL     1       1.231   4.898  -1.872  0.00  0.00    -0.191 NA
ENDBRANCH  35  36
ENDBRANCH  29  30
ENDBRANCH  20  29
ENDBRANCH   1  20
TORSDOF 8
