REMARK  Name = ZINC45866104
REMARK  8 active torsions:
REMARK  status: ('A' for Active; 'I' for Inactive)
REMARK    1  A    between atoms: C_1  and  C_2
REMARK    2  A    between atoms: C_5  and  N_8
REMARK    3  A    between atoms: C_9  and  C_11
REMARK    4  A    between atoms: C_11  and  C_12
REMARK    5  A    between atoms: C_24  and  C_26
REMARK    6  A    between atoms: C_26  and  N_27
REMARK    7  A    between atoms: N_27  and  C_28
REMARK    8  A    between atoms: N_27  and  C_29
REMARK                            x       y       z     vdW  Elec       q    Type
REMARK                         _______ _______ _______ _____ _____    ______ ____
ROOT
ATOM      1  C   UNL     1       0.412  -7.055   2.794  0.00  0.00    +0.176 C 
ATOM      2  C   UNL     1       0.268  -8.519   3.120  0.00  0.00    +0.239 C 
ATOM      3  O   UNL     1      -0.838  -9.011   3.196  0.00  0.00    -0.273 OA
ATOM      4  N   UNL     1       1.353  -9.289   3.326  0.00  0.00    -0.282 N 
ATOM      5  C   UNL     1       2.639  -8.737   3.294  0.00  0.00    +0.055 A 
ATOM      6  C   UNL     1       3.758  -9.550   3.214  0.00  0.00    +0.025 A 
ATOM      7  C   UNL     1       5.019  -8.984   3.188  0.00  0.00    +0.002 A 
ATOM      8  C   UNL     1       5.170  -7.611   3.243  0.00  0.00    +0.002 A 
ATOM      9  C   UNL     1       4.059  -6.791   3.321  0.00  0.00    +0.025 A 
ATOM     10  C   UNL     1       2.794  -7.350   3.344  0.00  0.00    +0.058 A 
ATOM     11  N   UNL     1       1.645  -6.543   3.411  0.00  0.00    -0.259 N 
ATOM     12  C   UNL     1       1.671  -5.341   4.020  0.00  0.00    +0.204 C 
ATOM     13  O   UNL     1       0.646  -4.707   4.155  0.00  0.00    -0.277 OA
ATOM     14  H   UNL     1       1.243 -10.237   3.499  0.00  0.00    +0.155 HD
ENDROOT
BRANCH   1  15
ATOM     15  C   UNL     1       0.484  -6.872   1.277  0.00  0.00    +0.128 C 
BRANCH  15  17
ATOM     16  N   UNL     1       0.572  -4.999  -0.336  0.00  0.00    -0.285 N 
ATOM     17  C   UNL     1       0.509  -5.402   0.949  0.00  0.00    +0.219 C 
ATOM     18  O   UNL     1       0.472  -4.580   1.840  0.00  0.00    -0.275 OA
ATOM     19  H   UNL     1       0.534  -5.653  -1.052  0.00  0.00    +0.155 HD
BRANCH  16  24
ATOM     20  C   UNL     1       1.057   0.520  -1.558  0.00  0.00    +0.044 C 
ATOM     21  C   UNL     1       0.928  -0.946  -1.233  0.00  0.00    -0.050 A 
ATOM     22  C   UNL     1       0.177  -1.348  -0.145  0.00  0.00    +0.005 A 
ATOM     23  C   UNL     1       0.056  -2.691   0.156  0.00  0.00    +0.023 A 
ATOM     24  C   UNL     1       0.691  -3.638  -0.638  0.00  0.00    +0.033 A 
ATOM     25  C   UNL     1       1.445  -3.231  -1.731  0.00  0.00    +0.023 A 
ATOM     26  C   UNL     1       1.557  -1.887  -2.029  0.00  0.00    +0.005 A 
ENDBRANCH  16  24
ENDBRANCH  15  17
ENDBRANCH   1  15
BRANCH  12  27
ATOM     27  C   UNL     1       2.974  -4.786   4.534  0.00  0.00    +0.019 C 
BRANCH  27  28
ATOM     28  N   UNL     1       2.709  -3.598   5.358  0.00  0.00    +0.385 N 
ATOM     29  C   UNL     1       1.955  -3.991   6.555  0.00  0.00    -0.095 C 
ATOM     30  H   UNL     1       2.171  -2.933   4.824  0.00  0.00    -0.081 HD
BRANCH  28  31
ATOM     31  C   UNL     1       3.983  -2.987   5.760  0.00  0.00    -0.068 C 
ATOM     32  C   UNL     1       3.707  -1.750   6.617  0.00  0.00    -0.015 C 
ATOM     33  C   UNL     1       5.034  -1.114   7.036  0.00  0.00    -0.002 C 
ATOM     34  C   UNL     1       5.819  -0.704   5.789  0.00  0.00    -0.000 C 
ATOM     35  C   UNL     1       6.096  -1.941   4.931  0.00  0.00    -0.002 C 
ATOM     36  C   UNL     1       4.769  -2.578   4.512  0.00  0.00    -0.015 C 
ENDBRANCH  28  31
ENDBRANCH  27  28
ENDBRANCH  12  27
TORSDOF 6
