REMARK  Name = ZINC02699159
REMARK  9 active torsions:
REMARK  status: ('A' for Active; 'I' for Inactive)
REMARK    1  A    between atoms: C_1  and  C_2
REMARK    2  A    between atoms: C_2  and  N_3
REMARK    3  A    between atoms: N_3  and  C_4
REMARK    4  A    between atoms: N_3  and  C_6
REMARK    5  A    between atoms: C_4  and  C_5
REMARK    6  A    between atoms: C_11  and  C_33
REMARK    7  A    between atoms: N_13  and  C_14
REMARK    8  A    between atoms: C_16  and  C_26
REMARK    9  A    between atoms: C_19  and  N_20
REMARK                            x       y       z     vdW  Elec       q    Type
REMARK                         _______ _______ _______ _____ _____    ______ ____
ROOT
ATOM      1  C   UNL     1      -3.880  -5.926   5.169  0.00  0.00    +0.033 A 
ATOM      2  C   UNL     1      -4.668  -5.168   6.038  0.00  0.00    +0.024 A 
ATOM      3  C   UNL     1      -4.295  -3.903   6.383  0.00  0.00    +0.013 A 
ATOM      4  C   UNL     1      -3.116  -3.353   5.856  0.00  0.00    +0.018 A 
ATOM      5  C   UNL     1      -2.743  -2.023   6.175  0.00  0.00    +0.030 A 
ATOM      6  C   UNL     1      -1.686  -1.453   5.478  0.00  0.00    +0.099 A 
ATOM      7  C   UNL     1      -1.048  -2.270   4.427  0.00  0.00    +0.233 A 
ATOM      8  N   UNL     1      -0.418  -1.709   3.417  0.00  0.00    -0.211 NA
ATOM      9  O   UNL     1      -1.138  -3.621   4.536  0.00  0.00    -0.437 OA
ATOM     10  C   UNL     1      -2.305  -4.124   5.001  0.00  0.00    +0.139 A 
ATOM     11  C   UNL     1      -2.700  -5.404   4.654  0.00  0.00    +0.070 A 
ENDROOT
BRANCH   8  12
ATOM     12  C   UNL     1       0.073  -2.484   2.402  0.00  0.00    +0.089 A 
ATOM     13  C   UNL     1      -0.755  -2.859   1.343  0.00  0.00    +0.042 A 
ATOM     14  C   UNL     1      -0.253  -3.640   0.321  0.00  0.00    +0.057 A 
ATOM     15  C   UNL     1       1.067  -4.053   0.342  0.00  0.00    +0.014 A 
ATOM     16  C   UNL     1       1.899  -3.683   1.383  0.00  0.00    +0.026 A 
ATOM     17  C   UNL     1       1.411  -2.904   2.419  0.00  0.00    +0.056 A 
BRANCH  17  18
ATOM     18  N   UNL     1       2.249  -2.535   3.475  0.00  0.00    -0.328 N 
ATOM     19  C   UNL     1       3.397  -1.760   2.989  0.00  0.00    +0.105 C 
ATOM     20  C   UNL     1       4.212  -1.250   4.180  0.00  0.00    +0.019 C 
ATOM     21  C   UNL     1       4.692  -2.443   5.011  0.00  0.00    +0.003 C 
ATOM     22  C   UNL     1       3.480  -3.260   5.465  0.00  0.00    +0.019 C 
ATOM     23  C   UNL     1       2.686  -3.712   4.237  0.00  0.00    +0.105 C 
ENDBRANCH  17  18
BRANCH  14  24
ATOM     24  C   UNL     1      -1.148  -4.045  -0.822  0.00  0.00    +0.417 C 
ATOM     25  F   UNL     1      -1.075  -3.083  -1.835  0.00  0.00    -0.166 F 
ATOM     26  F   UNL     1      -0.732  -5.283  -1.324  0.00  0.00    -0.166 F 
ATOM     27  F   UNL     1      -2.468  -4.145  -0.369  0.00  0.00    -0.166 F 
ENDBRANCH  14  24
ENDBRANCH   8  12
BRANCH   6  28
ATOM     28  C   UNL     1      -1.220  -0.090   5.775  0.00  0.00    +0.247 C 
ATOM     29  O   UNL     1      -0.291   0.386   5.149  0.00  0.00    -0.270 OA
ATOM     30  N   UNL     1      -1.823   0.633   6.740  0.00  0.00    -0.325 N 
ATOM     31  H   UNL     1      -2.563   0.254   7.239  0.00  0.00    +0.145 HD
ATOM     32  H   UNL     1      -1.515   1.532   6.936  0.00  0.00    +0.145 HD
ENDBRANCH   6  28
BRANCH   1  33
ATOM     33  N   UNL     1      -4.279  -7.210   4.817  0.00  0.00    -0.330 N 
BRANCH  33  35
ATOM     34  C   UNL     1      -6.683  -7.424   4.420  0.00  0.00    +0.024 C 
ATOM     35  C   UNL     1      -5.522  -7.764   5.358  0.00  0.00    +0.102 C 
ENDBRANCH  33  35
BRANCH  33  36
ATOM     36  C   UNL     1      -3.455  -8.009   3.906  0.00  0.00    +0.102 C 
ATOM     37  C   UNL     1      -2.442  -8.821   4.715  0.00  0.00    +0.024 C 
ENDBRANCH  33  36
ENDBRANCH   1  33
TORSDOF 7
