REMARK  Name = ZINC33137248
REMARK  5 active torsions:
REMARK  status: ('A' for Active; 'I' for Inactive)
REMARK    1  A    between atoms: C_3  and  N_14
REMARK    2  A    between atoms: C_5  and  O_7
REMARK    3  A    between atoms: O_7  and  C_8
REMARK    4  A    between atoms: C_15  and  C_17
REMARK    5  A    between atoms: C_19  and  C_23
REMARK                            x       y       z     vdW  Elec       q    Type
REMARK                         _______ _______ _______ _____ _____    ______ ____
ROOT
ATOM      1  N   UNL     1       3.448   2.494  -0.013  0.00  0.00    -0.280 N 
ATOM      2  C   UNL     1       2.495   1.542  -0.004  0.00  0.00    +0.266 C 
ATOM      3  O   UNL     1       2.809   0.367  -0.003  0.00  0.00    -0.268 OA
ATOM      4  H   UNL     1       3.166   3.555  -0.090  0.00  0.00    +0.155 HD
ENDROOT
BRANCH   1   7
ATOM      5  C   UNL     1       7.021   2.589   0.855  0.00  0.00    +0.005 A 
ATOM      6  C   UNL     1       5.690   2.948   0.762  0.00  0.00    +0.023 A 
ATOM      7  C   UNL     1       4.797   2.134   0.076  0.00  0.00    +0.037 A 
ATOM      8  C   UNL     1       5.245   0.967  -0.525  0.00  0.00    +0.069 A 
ATOM      9  C   UNL     1       6.582   0.613  -0.435  0.00  0.00    +0.132 A 
ATOM     10  C   UNL     1       7.469   1.427   0.257  0.00  0.00    +0.046 A 
BRANCH   9  11
ATOM     11  O   UNL     1       7.025  -0.529  -1.023  0.00  0.00    -0.437 OA
BRANCH  11  12
ATOM     12  C   UNL     1       7.169  -0.537  -2.372  0.00  0.00    +0.239 A 
ATOM     13  C   UNL     1       7.716  -1.646  -3.008  0.00  0.00    +0.178 A 
ATOM     14  N   UNL     1       7.855  -1.650  -4.321  0.00  0.00    -0.256 NA
ATOM     15  C   UNL     1       7.473  -0.602  -5.030  0.00  0.00    +0.130 A 
ATOM     16  C   UNL     1       6.929   0.502  -4.401  0.00  0.00    +0.134 A 
ATOM     17  N   UNL     1       6.783   0.510  -3.087  0.00  0.00    -0.218 NA
ENDBRANCH  11  12
ENDBRANCH   9  11
ENDBRANCH   1   7
BRANCH   2  18
ATOM     18  C   UNL     1       1.074   1.924   0.004  0.00  0.00    +0.121 A 
ATOM     19  C   UNL     1      -0.013   1.070   0.013  0.00  0.00    +0.062 A 
ATOM     20  C   UNL     1      -1.143   1.907   0.013  0.00  0.00    +0.093 A 
ATOM     21  N   UNL     1      -0.716   3.152   0.012  0.00  0.00    -0.173 NA
ATOM     22  N   UNL     1       0.568   3.194   0.004  0.00  0.00    -0.272 N 
ATOM     23  H   UNL     1       1.249   4.057  -0.003  0.00  0.00    +0.189 HD
BRANCH  20  24
ATOM     24  C   UNL     1      -2.561   1.466   0.015  0.00  0.00    +0.002 A 
ATOM     25  C   UNL     1      -2.870   0.108   0.012  0.00  0.00    +0.011 A 
ATOM     26  C   UNL     1      -4.190  -0.297   0.020  0.00  0.00    +0.016 A 
ATOM     27  C   UNL     1      -5.205   0.644   0.019  0.00  0.00    +0.018 A 
ATOM     28  C   UNL     1      -4.902   1.995   0.016  0.00  0.00    +0.016 A 
ATOM     29  C   UNL     1      -3.586   2.410   0.014  0.00  0.00    +0.011 A 
ATOM     30 BR   UNL     1      -7.010   0.083   0.021  0.00  0.00    -0.050 Br
ENDBRANCH  20  24
ENDBRANCH   2  18
TORSDOF 5
