REMARK  Name = ZINC16044981
REMARK  7 active torsions:
REMARK  status: ('A' for Active; 'I' for Inactive)
REMARK    1  A    between atoms: C_1  and  C_2
REMARK    2  A    between atoms: C_5  and  N_19
REMARK    3  A    between atoms: C_7  and  S_8
REMARK    4  A    between atoms: S_8  and  N_11
REMARK    5  A    between atoms: N_11  and  C_12
REMARK    6  A    between atoms: C_20  and  C_22
REMARK    7  A    between atoms: C_34  and  C_37
REMARK                            x       y       z     vdW  Elec       q    Type
REMARK                         _______ _______ _______ _____ _____    ______ ____
ROOT
ATOM      1  C   UNL     1       1.666   3.257   1.394  0.00  0.00    +0.046 C 
ATOM      2  C   UNL     1       1.073   4.504   0.790  0.00  0.00    -0.024 A 
ATOM      3  C   UNL     1      -0.206   4.474   0.263  0.00  0.00    +0.007 A 
ATOM      4  C   UNL     1      -0.753   5.614  -0.291  0.00  0.00    +0.024 A 
ATOM      5  C   UNL     1      -0.018   6.793  -0.318  0.00  0.00    +0.036 A 
ATOM      6  C   UNL     1       1.264   6.821   0.217  0.00  0.00    +0.052 A 
ATOM      7  C   UNL     1       1.807   5.675   0.765  0.00  0.00    +0.113 A 
ENDROOT
BRANCH   5   8
ATOM      8  N   UNL     1      -0.568   7.949  -0.879  0.00  0.00    -0.281 N 
ATOM      9  C   UNL     1       0.221   8.821  -1.537  0.00  0.00    +0.248 C 
ATOM     10  O   UNL     1       1.393   8.558  -1.724  0.00  0.00    -0.270 OA
ATOM     11  H   UNL     1      -1.519   8.124  -0.793  0.00  0.00    +0.155 HD
BRANCH   9  12
ATOM     12  C   UNL     1      -0.337  10.095  -2.030  0.00  0.00    +0.038 A 
ATOM     13  C   UNL     1      -1.691  10.396  -1.819  0.00  0.00    +0.015 A 
ATOM     14  C   UNL     1      -2.219  11.570  -2.265  0.00  0.00    +0.027 A 
ATOM     15  C   UNL     1      -1.421  12.486  -2.948  0.00  0.00    +0.047 A 
ATOM     16  C   UNL     1      -0.060  12.194  -3.171  0.00  0.00    +0.004 A 
ATOM     17  C   UNL     1       0.478  10.995  -2.710  0.00  0.00    +0.023 A 
ATOM     18  C   UNL     1       0.479  13.339  -3.900  0.00  0.00    -0.019 A 
ATOM     19  C   UNL     1      -0.529  14.216  -4.070  0.00  0.00    +0.020 A 
ATOM     20  N   UNL     1      -1.670  13.718  -3.505  0.00  0.00    -0.358 N 
ATOM     21  H   UNL     1      -2.529  14.168  -3.499  0.00  0.00    +0.166 HD
ATOM     22  C   UNL     1      -0.376  15.538  -4.786  0.00  0.00    +0.054 C 
ATOM     23  C   UNL     1       0.917  15.501  -5.608  0.00  0.00    +0.009 C 
ATOM     24  C   UNL     1       2.074  15.033  -4.721  0.00  0.00    -0.009 C 
ATOM     25  C   UNL     1       1.889  13.547  -4.388  0.00  0.00    +0.040 C 
ATOM     26  C   UNL     1       3.398  15.230  -5.461  0.00  0.00    +0.008 C 
ENDBRANCH   9  12
ENDBRANCH   5   8
BRANCH   7  27
ATOM     27  S   UNL     1       3.434   5.708   1.439  0.00  0.00    +0.073 S 
ATOM     28  O   UNL     1       3.890   7.050   1.335  0.00  0.00    -0.150 OA
ATOM     29  O   UNL     1       4.137   4.618   0.858  0.00  0.00    -0.150 OA
BRANCH  27  30
ATOM     30  N   UNL     1       3.301   5.377   3.056  0.00  0.00    -0.216 N 
ATOM     31  H   UNL     1       3.737   4.594   3.428  0.00  0.00    +0.174 HD
BRANCH  30  32
ATOM     32  C   UNL     1       2.561   6.225   3.885  0.00  0.00    +0.048 A 
ATOM     33  C   UNL     1       2.729   7.601   3.800  0.00  0.00    +0.027 A 
ATOM     34  C   UNL     1       2.000   8.437   4.623  0.00  0.00    +0.040 A 
ATOM     35  C   UNL     1       1.103   7.904   5.533  0.00  0.00    +0.124 A 
ATOM     36  C   UNL     1       0.934   6.533   5.620  0.00  0.00    +0.040 A 
ATOM     37  C   UNL     1       1.660   5.693   4.798  0.00  0.00    +0.027 A 
ATOM     38  F   UNL     1       0.391   8.724   6.337  0.00  0.00    -0.205 F 
ENDBRANCH  30  32
ENDBRANCH  27  30
ENDBRANCH   7  27
TORSDOF 5
