REMARK  Name = ZINC48052399
REMARK  7 active torsions:
REMARK  status: ('A' for Active; 'I' for Inactive)
REMARK    1  A    between atoms: C_1  and  C_2
REMARK    2  A    between atoms: C_2  and  C_4
REMARK    3  A    between atoms: C_2  and  N_15
REMARK    4  A    between atoms: C_8  and  N_10
REMARK    5  A    between atoms: N_10  and  S_11
REMARK    6  A    between atoms: S_11  and  C_14
REMARK    7  A    between atoms: N_18  and  C_19
REMARK                            x       y       z     vdW  Elec       q    Type
REMARK                         _______ _______ _______ _____ _____    ______ ____
ROOT
ATOM      1  N   UNL     1       0.712  -0.477   1.193  0.00  0.00    -0.293 N 
ATOM      2  C   UNL     1       2.054  -0.596   1.175  0.00  0.00    +0.304 C 
ATOM      3  O   UNL     1       2.678  -0.298   0.174  0.00  0.00    -0.252 OA
ATOM      4  N   UNL     1       2.706  -1.046   2.266  0.00  0.00    -0.269 N 
ATOM      5  H   UNL     1       0.215  -0.715   1.991  0.00  0.00    +0.151 HD
ATOM      6  H   UNL     1       2.216  -1.222   3.085  0.00  0.00    +0.156 HD
ENDROOT
BRANCH   4   7
ATOM      7  C   UNL     1       4.088  -1.260   2.217  0.00  0.00    +0.038 A 
ATOM      8  C   UNL     1       4.888  -0.425   1.452  0.00  0.00    +0.023 A 
ATOM      9  C   UNL     1       6.251  -0.639   1.405  0.00  0.00    +0.002 A 
ATOM     10  C   UNL     1       6.808  -1.684   2.115  0.00  0.00    +0.004 A 
ATOM     11  C   UNL     1       6.010  -2.525   2.881  0.00  0.00    -0.042 A 
ATOM     12  C   UNL     1       4.653  -2.310   2.942  0.00  0.00    -0.023 A 
ATOM     13  C   UNL     1       3.731  -3.167   3.769  0.00  0.00    +0.037 C 
ATOM     14  C   UNL     1       4.409  -4.486   4.135  0.00  0.00    +0.005 C 
ATOM     15  C   UNL     1       5.782  -4.172   4.741  0.00  0.00    +0.005 C 
ATOM     16  C   UNL     1       6.687  -3.648   3.623  0.00  0.00    +0.035 C 
ENDBRANCH   4   7
BRANCH   1  18
ATOM     17  C   UNL     1      -0.006   1.542   0.015  0.00  0.00    +0.033 C 
ATOM     18  C   UNL     1       0.004   0.012   0.007  0.00  0.00    +0.102 C 
BRANCH  18  19
ATOM     19  C   UNL     1      -1.413  -0.500   0.021  0.00  0.00    -0.026 A 
ATOM     20  C   UNL     1      -2.122  -0.539   1.208  0.00  0.00    +0.005 A 
ATOM     21  C   UNL     1      -3.422  -1.009   1.226  0.00  0.00    +0.002 A 
ATOM     22  C   UNL     1      -4.018  -1.440   0.057  0.00  0.00    +0.024 A 
ATOM     23  C   UNL     1      -3.309  -1.401  -1.137  0.00  0.00    +0.048 A 
ATOM     24  C   UNL     1      -2.005  -0.924  -1.152  0.00  0.00    +0.030 A 
BRANCH  23  25
ATOM     25  N   UNL     1      -3.909  -1.837  -2.321  0.00  0.00    -0.221 N 
ATOM     26  H   UNL     1      -3.420  -2.411  -2.930  0.00  0.00    +0.173 HD
BRANCH  25  27
ATOM     27  S   UNL     1      -5.456  -1.371  -2.686  0.00  0.00    +0.040 S 
ATOM     28  O   UNL     1      -5.744  -2.006  -3.924  0.00  0.00    -0.155 OA
ATOM     29  O   UNL     1      -6.211  -1.678  -1.522  0.00  0.00    -0.155 OA
ATOM     30  C   UNL     1      -5.361   0.426  -2.913  0.00  0.00    +0.218 C 
ENDBRANCH  25  27
ENDBRANCH  23  25
ENDBRANCH  18  19
ENDBRANCH   1  18
TORSDOF 5
