REMARK  Name = ZINC38744181
REMARK  9 active torsions:
REMARK  status: ('A' for Active; 'I' for Inactive)
REMARK    1  A    between atoms: C_1  and  C_2
REMARK    2  A    between atoms: C_2  and  C_3
REMARK    3  A    between atoms: C_2  and  C_4
REMARK    4  A    between atoms: C_2  and  C_5
REMARK    5  A    between atoms: C_8  and  N_11
REMARK    6  A    between atoms: C_12  and  C_14
REMARK    7  A    between atoms: C_17  and  N_20
REMARK    8  A    between atoms: C_21  and  N_33
REMARK    9  A    between atoms: C_23  and  C_25
REMARK                            x       y       z     vdW  Elec       q    Type
REMARK                         _______ _______ _______ _____ _____    ______ ____
ROOT
ATOM      1  C   UNL     1       4.549  -0.209  -6.684  0.00  0.00    +0.037 A 
ATOM      2  C   UNL     1       4.120  -1.376  -7.322  0.00  0.00    +0.015 A 
ATOM      3  C   UNL     1       4.766  -1.817  -8.455  0.00  0.00    +0.028 A 
ATOM      4  C   UNL     1       5.846  -1.103  -8.964  0.00  0.00    +0.067 A 
ATOM      5  C   UNL     1       6.276   0.059  -8.331  0.00  0.00    +0.028 A 
ATOM      6  C   UNL     1       5.631   0.509  -7.201  0.00  0.00    +0.015 A 
ENDROOT
BRANCH   4   7
ATOM      7  N   UNL     1       6.500  -1.553 -10.113  0.00  0.00    -0.218 N 
ATOM      8  C   UNL     1       7.050  -0.768 -11.082  0.00  0.00    +0.120 A 
ATOM      9  C   UNL     1       7.586  -1.589 -12.023  0.00  0.00    +0.073 A 
ATOM     10  C   UNL     1       7.356  -2.917 -11.617  0.00  0.00    +0.095 A 
ATOM     11  N   UNL     1       6.710  -2.891 -10.470  0.00  0.00    -0.165 NA
BRANCH  10  12
ATOM     12  C   UNL     1       7.775  -4.136 -12.351  0.00  0.00    +0.004 A 
ATOM     13  C   UNL     1       8.467  -4.024 -13.556  0.00  0.00    +0.011 A 
ATOM     14  C   UNL     1       8.854  -5.160 -14.236  0.00  0.00    +0.022 A 
ATOM     15  C   UNL     1       8.557  -6.411 -13.724  0.00  0.00    +0.059 A 
ATOM     16  C   UNL     1       7.869  -6.529 -12.528  0.00  0.00    +0.060 A 
ATOM     17  C   UNL     1       7.482  -5.398 -11.837  0.00  0.00    +0.031 A 
ATOM     18 CL   UNL     1       7.498  -8.102 -11.893  0.00  0.00    -0.082 Cl
ATOM     19 CL   UNL     1       9.046  -7.837 -14.585  0.00  0.00    -0.082 Cl
ENDBRANCH  10  12
BRANCH   8  20
ATOM     20  N   UNL     1       7.061   0.623 -11.103  0.00  0.00    -0.343 N 
ATOM     21  H   UNL     1       6.649   1.123 -10.381  0.00  0.00    +0.144 HD
ATOM     22  H   UNL     1       7.480   1.094 -11.841  0.00  0.00    +0.144 HD
ENDBRANCH   8  20
ENDBRANCH   4   7
BRANCH   1  24
ATOM     23  N   UNL     1       2.816  -0.427  -4.971  0.00  0.00    -0.308 N 
ATOM     24  C   UNL     1       3.858   0.267  -5.469  0.00  0.00    +0.244 C 
ATOM     25  O   UNL     1       4.230   1.285  -4.918  0.00  0.00    -0.270 OA
ATOM     26  H   UNL     1       2.519  -1.239  -5.411  0.00  0.00    +0.149 HD
BRANCH  23  30
ATOM     27  C   UNL     1       0.718  -0.497  -1.257  0.00  0.00    -0.005 C 
ATOM     28  C   UNL     1      -0.022   0.009  -2.496  0.00  0.00    +0.006 C 
ATOM     29  C   UNL     1       0.694  -0.484  -3.755  0.00  0.00    +0.022 C 
ATOM     30  C   UNL     1       2.130   0.045  -3.766  0.00  0.00    +0.073 C 
ATOM     31  C   UNL     1       2.870  -0.461  -2.526  0.00  0.00    +0.022 C 
ATOM     32  C   UNL     1       2.154   0.032  -1.268  0.00  0.00    +0.006 C 
BRANCH  27  34
ATOM     33  C   UNL     1      -0.019   1.526   0.010  0.00  0.00    +0.011 C 
ATOM     34  C   UNL     1       0.002  -0.004   0.002  0.00  0.00    -0.035 C 
ATOM     35  C   UNL     1       0.742  -0.511   1.242  0.00  0.00    +0.011 C 
ATOM     36  C   UNL     1      -1.433  -0.534   0.013  0.00  0.00    +0.011 C 
ENDBRANCH  27  34
ENDBRANCH  23  30
ENDBRANCH   1  24
TORSDOF 6
