REMARK  Name = ZINC35577776
REMARK  4 active torsions:
REMARK  status: ('A' for Active; 'I' for Inactive)
REMARK    1  A    between atoms: C_5  and  C_7
REMARK    2  A    between atoms: C_9  and  N_29
REMARK    3  A    between atoms: N_10  and  C_22
REMARK    4  A    between atoms: N_16  and  C_17
REMARK                            x       y       z     vdW  Elec       q    Type
REMARK                         _______ _______ _______ _____ _____    ______ ____
ROOT
ATOM      1  C   UNL     1       1.213  -2.166  -0.277  0.00  0.00    +0.091 A 
ATOM      2  C   UNL     1       0.038  -2.912  -0.028  0.00  0.00    +0.086 A 
ATOM      3  C   UNL     1      -1.297  -2.614   0.212  0.00  0.00    +0.131 A 
ATOM      4  N   UNL     1      -1.950  -3.781   0.379  0.00  0.00    -0.216 N 
ATOM      5  N   UNL     1      -1.054  -4.849   0.250  0.00  0.00    -0.144 NA
ATOM      6  C   UNL     1       0.150  -4.381   0.006  0.00  0.00    +0.189 A 
ATOM      7  N   UNL     1       1.365  -4.925  -0.203  0.00  0.00    -0.193 NA
ATOM      8  C   UNL     1       2.409  -4.154  -0.428  0.00  0.00    +0.218 A 
ATOM      9  N   UNL     1       2.347  -2.827  -0.472  0.00  0.00    -0.214 NA
ATOM     10  N   UNL     1       3.635  -4.759  -0.636  0.00  0.00    -0.311 N 
ATOM     11  H   UNL     1       4.421  -4.217  -0.805  0.00  0.00    +0.149 HD
ENDROOT
BRANCH   1  16
ATOM     12  C   UNL     1       0.681   1.417   0.719  0.00  0.00    +0.001 A 
ATOM     13  C   UNL     1       1.110   2.081  -0.417  0.00  0.00    +0.003 A 
ATOM     14  C   UNL     1       1.573   1.369  -1.509  0.00  0.00    +0.039 A 
ATOM     15  C   UNL     1       1.609  -0.013  -1.471  0.00  0.00    +0.133 A 
ATOM     16  C   UNL     1       1.177  -0.688  -0.326  0.00  0.00    +0.036 A 
ATOM     17  C   UNL     1       0.712   0.039   0.771  0.00  0.00    +0.013 A 
ATOM     18  F   UNL     1       2.061  -0.708  -2.538  0.00  0.00    -0.205 F 
ENDBRANCH   1  16
BRANCH   4  19
ATOM     19  C   UNL     1      -3.319  -3.906   0.642  0.00  0.00    +0.070 A 
ATOM     20  C   UNL     1      -3.967  -2.960   1.426  0.00  0.00    +0.028 A 
ATOM     21  C   UNL     1      -5.317  -3.086   1.684  0.00  0.00    +0.005 A 
ATOM     22  C   UNL     1      -6.027  -4.152   1.163  0.00  0.00    +0.038 A 
ATOM     23  C   UNL     1      -5.385  -5.098   0.381  0.00  0.00    +0.125 A 
ATOM     24  C   UNL     1      -4.033  -4.974   0.115  0.00  0.00    +0.066 A 
ATOM     25  F   UNL     1      -6.081  -6.139  -0.126  0.00  0.00    -0.205 F 
ENDBRANCH   4  19
BRANCH  10  26
ATOM     26  C   UNL     1       3.747  -6.220  -0.602  0.00  0.00    +0.073 C 
ATOM     27  C   UNL     1       4.001  -6.696   0.843  0.00  0.00    +0.022 C 
ATOM     28  C   UNL     1       4.982  -7.884   0.684  0.00  0.00    +0.002 C 
ATOM     29  C   UNL     1       5.906  -7.413  -0.467  0.00  0.00    +0.002 C 
ATOM     30  C   UNL     1       4.958  -6.675  -1.435  0.00  0.00    +0.022 C 
ENDBRANCH  10  26
BRANCH   3  31
ATOM     31  N   UNL     1      -1.855  -1.350   0.270  0.00  0.00    -0.342 N 
ATOM     32  H   UNL     1      -1.296  -0.567   0.148  0.00  0.00    +0.144 HD
ATOM     33  H   UNL     1      -2.806  -1.247   0.433  0.00  0.00    +0.144 HD
ENDBRANCH   3  31
TORSDOF 4
