REMARK  Name = ZINC38582626
REMARK  6 active torsions:
REMARK  status: ('A' for Active; 'I' for Inactive)
REMARK    1  A    between atoms: C_1  and  C_2
REMARK    2  A    between atoms: C_4  and  C_16
REMARK    3  A    between atoms: C_6  and  C_14
REMARK    4  A    between atoms: C_7  and  N_13
REMARK    5  A    between atoms: N_18  and  C_31
REMARK    6  A    between atoms: C_20  and  C_21
REMARK                            x       y       z     vdW  Elec       q    Type
REMARK                         _______ _______ _______ _____ _____    ______ ____
ROOT
ATOM      1  C   UNL     1      -2.762   0.875  -0.717  0.00  0.00    +0.007 A 
ATOM      2  C   UNL     1      -2.342   1.293  -1.933  0.00  0.00    +0.119 A 
ATOM      3  N   UNL     1      -2.743   2.575  -2.089  0.00  0.00    -0.239 N 
ATOM      4  N   UNL     1      -3.432   2.954  -0.929  0.00  0.00    -0.171 NA
ATOM      5  C   UNL     1      -3.448   1.933  -0.111  0.00  0.00    +0.074 A 
ENDROOT
BRANCH   1   9
ATOM      6  C   UNL     1      -0.018   1.503   0.010  0.00  0.00    +0.067 C 
ATOM      7  C   UNL     1       0.002  -0.004   0.002  0.00  0.00    +0.066 C 
ATOM      8  C   UNL     1      -1.064  -0.768   0.003  0.00  0.00    +0.030 C 
ATOM      9  C   UNL     1      -2.537  -0.492  -0.122  0.00  0.00    +0.101 C 
ATOM     10  C   UNL     1      -3.075  -1.565  -1.050  0.00  0.00    +0.098 C 
ATOM     11  C   UNL     1      -2.317  -2.612  -1.438  0.00  0.00    +0.195 C 
ATOM     12  O   UNL     1      -1.033  -2.841  -1.107  0.00  0.00    -0.448 OA
ATOM     13  C   UNL     1      -0.528  -2.199   0.066  0.00  0.00    +0.343 C 
ATOM     14  N   UNL     1       0.921  -1.985   0.002  0.00  0.00    -0.138 NA
ATOM     15  N   UNL     1       1.127  -0.765  -0.013  0.00  0.00    -0.155 NA
BRANCH  11  16
ATOM     16  N   UNL     1      -2.917  -3.538  -2.254  0.00  0.00    -0.329 N 
ATOM     17  H   UNL     1      -3.842  -3.421  -2.523  0.00  0.00    +0.145 HD
ATOM     18  H   UNL     1      -2.417  -4.310  -2.562  0.00  0.00    +0.145 HD
ENDBRANCH  11  16
BRANCH  10  19
ATOM     19  C   UNL     1      -4.422  -1.466  -1.525  0.00  0.00    +0.101 C 
ATOM     20  N   UNL     1      -5.491  -1.387  -1.903  0.00  0.00    -0.191 NA
ENDBRANCH  10  19
ENDBRANCH   1   9
BRANCH   5  21
ATOM     21  C   UNL     1      -4.090   1.904   1.252  0.00  0.00    +0.016 C 
ATOM     22  C   UNL     1      -5.162   0.812   1.288  0.00  0.00    +0.016 C 
ATOM     23  C   UNL     1      -5.814   0.783   2.672  0.00  0.00    -0.010 C 
ATOM     24  C   UNL     1      -6.459   2.140   2.961  0.00  0.00    +0.007 C 
ATOM     25  C   UNL     1      -5.388   3.232   2.925  0.00  0.00    -0.010 C 
ATOM     26  C   UNL     1      -4.735   3.261   1.541  0.00  0.00    +0.016 C 
ATOM     27  C   UNL     1      -4.324   2.937   3.984  0.00  0.00    +0.007 C 
ATOM     28  C   UNL     1      -3.679   1.580   3.695  0.00  0.00    -0.010 C 
ATOM     29  C   UNL     1      -4.750   0.488   3.731  0.00  0.00    +0.007 C 
ATOM     30  C   UNL     1      -3.026   1.609   2.311  0.00  0.00    +0.016 C 
ENDBRANCH   5  21
BRANCH   3  31
ATOM     31  C   UNL     1      -2.511   3.381  -3.212  0.00  0.00    +0.065 A 
ATOM     32  C   UNL     1      -1.814   2.874  -4.300  0.00  0.00    +0.028 A 
ATOM     33  C   UNL     1      -1.586   3.672  -5.405  0.00  0.00    +0.002 A 
ATOM     34  C   UNL     1      -2.051   4.974  -5.427  0.00  0.00    +0.000 A 
ATOM     35  C   UNL     1      -2.745   5.482  -4.344  0.00  0.00    +0.002 A 
ATOM     36  C   UNL     1      -2.981   4.687  -3.239  0.00  0.00    +0.028 A 
ENDBRANCH   3  31
TORSDOF 5
