REMARK  Name = ZINC13261136
REMARK  7 active torsions:
REMARK  status: ('A' for Active; 'I' for Inactive)
REMARK    1  A    between atoms: C_1  and  O_2
REMARK    2  A    between atoms: O_2  and  C_3
REMARK    3  A    between atoms: C_5  and  N_12
REMARK    4  A    between atoms: C_8  and  C_9
REMARK    5  A    between atoms: C_13  and  C_15
REMARK    6  A    between atoms: N_20  and  S_21
REMARK    7  A    between atoms: S_21  and  C_24
REMARK                            x       y       z     vdW  Elec       q    Type
REMARK                         _______ _______ _______ _____ _____    ______ ____
ROOT
ATOM      1  N   UNL     1       0.964   7.684   0.505  0.00  0.00    -0.283 N 
ATOM      2  C   UNL     1       1.913   8.350  -0.182  0.00  0.00    +0.236 C 
ATOM      3  O   UNL     1       2.721   7.739  -0.849  0.00  0.00    -0.274 OA
ATOM      4  H   UNL     1       0.400   8.157   1.136  0.00  0.00    +0.155 HD
ENDROOT
BRANCH   1   7
ATOM      5  C   UNL     1       1.739   4.118   0.077  0.00  0.00    +0.136 A 
ATOM      6  C   UNL     1       1.903   5.478   0.270  0.00  0.00    +0.071 A 
ATOM      7  C   UNL     1       0.795   6.313   0.310  0.00  0.00    +0.055 A 
ATOM      8  C   UNL     1      -0.487   5.787   0.157  0.00  0.00    +0.063 A 
ATOM      9  C   UNL     1      -0.661   4.437  -0.043  0.00  0.00    +0.040 A 
ATOM     10  C   UNL     1       0.449   3.586  -0.079  0.00  0.00    +0.106 A 
ATOM     11 CL   UNL     1      -1.866   6.839   0.208  0.00  0.00    -0.082 Cl
BRANCH  10  12
ATOM     12  C   UNL     1       0.266   2.141  -0.284  0.00  0.00    +0.390 C 
ATOM     13  O   UNL     1       1.233   1.405  -0.320  0.00  0.00    -0.240 OA
ATOM     14  O   UNL     1      -0.974   1.633  -0.433  0.00  0.00    -0.240 OA
ENDBRANCH  10  12
BRANCH   5  16
ATOM     15  C   UNL     1       4.106   3.924   0.076  0.00  0.00    +0.277 C 
ATOM     16  O   UNL     1       2.821   3.300   0.037  0.00  0.00    -0.494 OA
ENDBRANCH   5  16
ENDBRANCH   1   7
BRANCH   2  17
ATOM     17  C   UNL     1       1.970   9.855  -0.122  0.00  0.00    +0.166 C 
ATOM     18  C   UNL     1       1.297  10.470  -1.374  0.00  0.00    +0.031 C 
ATOM     19  C   UNL     1       1.987  11.858  -1.448  0.00  0.00    +0.019 C 
ATOM     20  C   UNL     1       3.423  11.556  -0.970  0.00  0.00    +0.110 C 
ATOM     21  N   UNL     1       3.369  10.318  -0.176  0.00  0.00    -0.165 NA
BRANCH  21  22
ATOM     22  S   UNL     1       4.662   9.569   0.538  0.00  0.00    +0.062 S 
ATOM     23  O   UNL     1       5.565  10.596   0.922  0.00  0.00    -0.153 OA
ATOM     24  O   UNL     1       4.128   8.637   1.468  0.00  0.00    -0.153 OA
BRANCH  22  25
ATOM     25  C   UNL     1       5.472   8.626  -0.711  0.00  0.00    +0.106 A 
ATOM     26  C   UNL     1       5.201   7.277  -0.843  0.00  0.00    +0.030 A 
ATOM     27  C   UNL     1       5.832   6.538  -1.826  0.00  0.00    +0.022 A 
ATOM     28  C   UNL     1       6.743   7.147  -2.671  0.00  0.00    +0.041 A 
ATOM     29  C   UNL     1       7.018   8.496  -2.534  0.00  0.00    +0.022 A 
ATOM     30  C   UNL     1       6.382   9.235  -1.554  0.00  0.00    +0.030 A 
ATOM     31 CL   UNL     1       7.541   6.218  -3.901  0.00  0.00    -0.084 Cl
ENDBRANCH  22  25
ENDBRANCH  21  22
ENDBRANCH   2  17
TORSDOF 6
