REMARK  Name = ZINC21363255
REMARK  5 active torsions:
REMARK  status: ('A' for Active; 'I' for Inactive)
REMARK    1  A    between atoms: C_1  and  C_2
REMARK    2  A    between atoms: C_5  and  C_8
REMARK    3  A    between atoms: C_11  and  C_13
REMARK    4  A    between atoms: C_16  and  N_19
REMARK    5  A    between atoms: N_22  and  C_23
REMARK                            x       y       z     vdW  Elec       q    Type
REMARK                         _______ _______ _______ _____ _____    ______ ____
ROOT
ATOM      1  C   UNL     1      -3.586   3.100   0.197  0.00  0.00    +0.037 A 
ATOM      2  C   UNL     1      -3.615   1.705   0.257  0.00  0.00    +0.015 A 
ATOM      3  C   UNL     1      -2.440   0.989   0.190  0.00  0.00    +0.024 A 
ATOM      4  C   UNL     1      -1.226   1.654   0.062  0.00  0.00    +0.035 A 
ATOM      5  C   UNL     1      -1.193   3.043   0.008  0.00  0.00    +0.024 A 
ATOM      6  C   UNL     1      -2.365   3.765   0.069  0.00  0.00    +0.015 A 
ENDROOT
BRANCH   4   7
ATOM      7  N   UNL     1      -0.036   0.926  -0.005  0.00  0.00    -0.269 N 
ATOM      8  C   UNL     1      -0.011  -0.267  -0.633  0.00  0.00    +0.308 C 
ATOM      9  O   UNL     1      -1.039  -0.745  -1.071  0.00  0.00    -0.252 OA
ATOM     10  N   UNL     1       1.155  -0.930  -0.774  0.00  0.00    -0.269 N 
ATOM     11  H   UNL     1       0.881   1.325   0.453  0.00  0.00    +0.156 HD
ATOM     12  H   UNL     1       2.071  -0.535  -0.313  0.00  0.00    +0.156 HD
BRANCH  10  13
ATOM     13  C   UNL     1       1.198  -2.121  -1.510  0.00  0.00    +0.035 A 
ATOM     14  C   UNL     1       0.123  -2.999  -1.475  0.00  0.00    +0.026 A 
ATOM     15  C   UNL     1       0.165  -4.170  -2.206  0.00  0.00    +0.040 A 
ATOM     16  C   UNL     1       1.283  -4.475  -2.963  0.00  0.00    +0.124 A 
ATOM     17  C   UNL     1       2.359  -3.603  -2.995  0.00  0.00    +0.040 A 
ATOM     18  C   UNL     1       2.318  -2.428  -2.270  0.00  0.00    +0.026 A 
ATOM     19  F   UNL     1       1.325  -5.624  -3.672  0.00  0.00    -0.205 F 
ENDBRANCH  10  13
ENDBRANCH   4   7
BRANCH   1  23
ATOM     20  C   UNL     1      -6.246   5.514   0.315  0.00  0.00    +0.110 A 
ATOM     21  C   UNL     1      -6.959   4.365   0.420  0.00  0.00    +0.226 A 
ATOM     22  O   UNL     1      -6.077   3.347   0.390  0.00  0.00    -0.443 OA
ATOM     23  C   UNL     1      -4.845   3.870   0.267  0.00  0.00    +0.228 A 
ATOM     24  N   UNL     1      -4.942   5.178   0.227  0.00  0.00    -0.209 NA
BRANCH  20  29
ATOM     25  C   UNL     1      -8.393  10.858   0.268  0.00  0.00    +0.044 C 
ATOM     26  C   UNL     1      -7.831   9.460   0.280  0.00  0.00    -0.050 A 
ATOM     27  C   UNL     1      -6.465   9.265   0.177  0.00  0.00    +0.004 A 
ATOM     28  C   UNL     1      -5.946   7.987   0.188  0.00  0.00    +0.010 A 
ATOM     29  C   UNL     1      -6.799   6.891   0.303  0.00  0.00    +0.003 A 
ATOM     30  C   UNL     1      -8.175   7.093   0.401  0.00  0.00    +0.010 A 
ATOM     31  C   UNL     1      -8.683   8.376   0.395  0.00  0.00    +0.004 A 
ENDBRANCH  20  29
ENDBRANCH   1  23
TORSDOF 4
