REMARK  Name = ZINC12521510
REMARK  7 active torsions:
REMARK  status: ('A' for Active; 'I' for Inactive)
REMARK    1  A    between atoms: C_1  and  C_2
REMARK    2  A    between atoms: C_11  and  N_33
REMARK    3  A    between atoms: C_13  and  S_15
REMARK    4  A    between atoms: S_15  and  C_16
REMARK    5  A    between atoms: C_16  and  C_17
REMARK    6  A    between atoms: C_17  and  C_18
REMARK    7  A    between atoms: N_23  and  C_26
REMARK                            x       y       z     vdW  Elec       q    Type
REMARK                         _______ _______ _______ _____ _____    ______ ____
ROOT
ATOM      1  S   UNL     1       7.154  -0.159   2.994  0.00  0.00    -0.085 S 
ENDROOT
BRANCH   1  13
ATOM      2  C   UNL     1      13.822  -7.755   1.403  0.00  0.00    +0.008 C 
ATOM      3  C   UNL     1      12.669  -6.751   1.350  0.00  0.00    -0.009 C 
ATOM      4  C   UNL     1      11.586  -7.160   2.353  0.00  0.00    +0.008 C 
ATOM      5  C   UNL     1      10.332  -6.312   2.135  0.00  0.00    +0.037 C 
ATOM      6  C   UNL     1      10.724  -4.838   2.154  0.00  0.00    -0.025 A 
ATOM      7  C   UNL     1      12.005  -4.463   1.966  0.00  0.00    -0.004 A 
ATOM      8  S   UNL     1      11.989  -2.693   2.068  0.00  0.00    -0.073 S 
ATOM      9  C   UNL     1      10.256  -2.458   2.362  0.00  0.00    +0.115 A 
ATOM     10  C   UNL     1       9.745  -3.770   2.373  0.00  0.00    +0.051 A 
ATOM     11  C   UNL     1       8.343  -3.882   2.594  0.00  0.00    +0.129 A 
ATOM     12  N   UNL     1       7.629  -2.784   2.777  0.00  0.00    -0.207 NA
ATOM     13  C   UNL     1       8.175  -1.574   2.750  0.00  0.00    +0.191 A 
ATOM     14  N   UNL     1       9.476  -1.410   2.547  0.00  0.00    -0.215 NA
ATOM     15  C   UNL     1      13.185  -5.354   1.725  0.00  0.00    +0.046 C 
BRANCH  11  16
ATOM     16  N   UNL     1       7.737  -5.124   2.624  0.00  0.00    -0.343 N 
ATOM     17  H   UNL     1       6.849  -5.221   3.003  0.00  0.00    +0.144 HD
ATOM     18  H   UNL     1       8.199  -5.898   2.266  0.00  0.00    +0.144 HD
ENDBRANCH  11  16
ENDBRANCH   1  13
BRANCH   1  19
ATOM     19  C   UNL     1       5.547  -0.965   3.211  0.00  0.00    +0.086 C 
BRANCH  19  20
ATOM     20  C   UNL     1       4.471   0.098   3.445  0.00  0.00    +0.107 C 
BRANCH  20  21
ATOM     21  C   UNL     1       3.134  -0.573   3.625  0.00  0.00    +0.216 C 
ATOM     22  O   UNL     1       3.050  -1.782   3.572  0.00  0.00    -0.276 OA
ATOM     23  N   UNL     1       2.032   0.170   3.845  0.00  0.00    -0.298 N 
ATOM     24  C   UNL     1       0.717  -0.464   4.024  0.00  0.00    +0.126 C 
ATOM     25  C   UNL     1      -0.281   0.208   3.074  0.00  0.00    +0.124 C 
ATOM     26  N   UNL     1      -0.257   1.660   3.292  0.00  0.00    -0.327 N 
ATOM     27  C   UNL     1       1.059   2.226   2.968  0.00  0.00    +0.124 C 
ATOM     28  C   UNL     1       2.111   1.637   3.913  0.00  0.00    +0.126 C 
BRANCH  26  29
ATOM     29  C   UNL     1      -1.268   2.293   2.562  0.00  0.00    +0.030 A 
ATOM     30  C   UNL     1      -2.122   1.544   1.763  0.00  0.00    +0.026 A 
ATOM     31  C   UNL     1      -3.123   2.170   1.047  0.00  0.00    +0.040 A 
ATOM     32  C   UNL     1      -3.269   3.545   1.117  0.00  0.00    +0.124 A 
ATOM     33  C   UNL     1      -2.416   4.295   1.909  0.00  0.00    +0.040 A 
ATOM     34  C   UNL     1      -1.417   3.672   2.631  0.00  0.00    +0.026 A 
ATOM     35  F   UNL     1      -4.246   4.156   0.411  0.00  0.00    -0.205 F 
ENDBRANCH  26  29
ENDBRANCH  20  21
ENDBRANCH  19  20
ENDBRANCH   1  19
TORSDOF 6
