REMARK  Name = ZINC40361645
REMARK  7 active torsions:
REMARK  status: ('A' for Active; 'I' for Inactive)
REMARK    1  A    between atoms: C_1  and  C_2
REMARK    2  A    between atoms: C_5  and  C_8
REMARK    3  A    between atoms: C_5  and  N_10
REMARK    4  A    between atoms: N_13  and  C_14
REMARK    5  A    between atoms: C_14  and  C_15
REMARK    6  A    between atoms: C_14  and  C_16
REMARK    7  A    between atoms: C_14  and  C_17
REMARK                            x       y       z     vdW  Elec       q    Type
REMARK                         _______ _______ _______ _____ _____    ______ ____
ROOT
ATOM      1  N   UNL     1      -0.653  -4.035   1.236  0.00  0.00    -0.281 N 
ATOM      2  C   UNL     1      -0.050  -4.707   2.237  0.00  0.00    +0.301 C 
ATOM      3  O   UNL     1       0.476  -4.096   3.148  0.00  0.00    -0.253 OA
ATOM      4  N   UNL     1      -0.032  -6.054   2.230  0.00  0.00    -0.295 N 
ATOM      5  H   UNL     1      -1.073  -4.522   0.510  0.00  0.00    +0.152 HD
ATOM      6  H   UNL     1      -0.452  -6.541   1.504  0.00  0.00    +0.151 HD
ENDROOT
BRANCH   1  11
ATOM      7  C   UNL     1      -0.019   1.526   0.010  0.00  0.00    +0.007 C 
ATOM      8  C   UNL     1       0.002  -0.004   0.002  0.00  0.00    -0.014 C 
ATOM      9  C   UNL     1      -1.433  -0.534   0.013  0.00  0.00    +0.006 C 
ATOM     10  C   UNL     1      -1.413  -2.063   0.004  0.00  0.00    +0.041 C 
ATOM     11  C   UNL     1      -0.673  -2.570   1.244  0.00  0.00    +0.122 C 
ATOM     12  C   UNL     1       0.763  -2.041   1.233  0.00  0.00    +0.041 C 
ATOM     13  C   UNL     1       0.742  -0.511   1.242  0.00  0.00    +0.006 C 
BRANCH  11  14
ATOM     14  C   UNL     1      -1.362  -2.096   2.455  0.00  0.00    +0.088 C 
ATOM     15  N   UNL     1      -1.893  -1.729   3.390  0.00  0.00    -0.194 NA
ENDBRANCH  11  14
ENDBRANCH   1  11
BRANCH   4  16
ATOM     16  C   UNL     1       0.623  -6.784   3.319  0.00  0.00    +0.028 C 
ATOM     17  C   UNL     1      -0.051  -6.431   4.646  0.00  0.00    +0.031 C 
ATOM     18  C   UNL     1       0.501  -8.288   3.070  0.00  0.00    +0.031 C 
ATOM     19  C   UNL     1       2.101  -6.394   3.377  0.00  0.00    +0.031 C 
ENDBRANCH   4  16
TORSDOF 3
