REMARK  Name = ZINC00886031
REMARK  10 active torsions:
REMARK  status: ('A' for Active; 'I' for Inactive)
REMARK    1  A    between atoms: C_1  and  C_2
REMARK    2  A    between atoms: C_2  and  C_34
REMARK    3  A    between atoms: C_6  and  C_17
REMARK    4  A    between atoms: C_11  and  C_15
REMARK    5  A    between atoms: C_11  and  C_16
REMARK    6  A    between atoms: C_19  and  O_29
REMARK    7  A    between atoms: C_20  and  O_24
REMARK    8  A    between atoms: O_24  and  C_25
REMARK    9  A    between atoms: C_25  and  C_26
REMARK   10  A    between atoms: O_29  and  C_30
REMARK                            x       y       z     vdW  Elec       q    Type
REMARK                         _______ _______ _______ _____ _____    ______ ____
ROOT
ATOM      1  C   UNL     1      -0.019   1.526   0.010  0.00  0.00    +0.012 C 
ATOM      2  C   UNL     1       0.002  -0.004   0.002  0.00  0.00    -0.021 C 
ATOM      3  C   UNL     1      -1.432  -0.538   0.037  0.00  0.00    +0.081 C 
ATOM      4  C   UNL     1      -1.410  -2.047   0.074  0.00  0.00    +0.113 C 
ATOM      5  C   UNL     1      -0.400  -2.707   0.669  0.00  0.00    +0.045 C 
ATOM      6  C   UNL     1      -0.396  -4.215   0.705  0.00  0.00    +0.093 C 
ATOM      7  C   UNL     1      -1.785  -4.750   0.463  0.00  0.00    +0.045 C 
ATOM      8  C   UNL     1      -2.717  -3.973  -0.119  0.00  0.00    +0.113 C 
ATOM      9  O   UNL     1      -2.424  -2.717  -0.502  0.00  0.00    -0.464 OA
ATOM     10  C   UNL     1      -4.117  -4.489  -0.353  0.00  0.00    +0.081 C 
ATOM     11  C   UNL     1      -4.074  -6.000  -0.593  0.00  0.00    -0.021 C 
ATOM     12  C   UNL     1      -3.435  -6.670   0.628  0.00  0.00    +0.086 C 
ATOM     13  C   UNL     1      -2.074  -6.070   0.856  0.00  0.00    +0.164 C 
ATOM     14  O   UNL     1      -1.210  -6.737   1.389  0.00  0.00    -0.292 OA
ATOM     15  C   UNL     1      -5.496  -6.530  -0.785  0.00  0.00    +0.012 C 
ATOM     16  C   UNL     1      -3.238  -6.299  -1.839  0.00  0.00    +0.012 C 
ATOM     17  C   UNL     1       0.674  -2.019   1.266  0.00  0.00    +0.164 C 
ATOM     18  O   UNL     1       1.560  -2.649   1.808  0.00  0.00    -0.292 OA
ATOM     19  C   UNL     1       0.743  -0.516   1.242  0.00  0.00    +0.086 C 
ATOM     20  C   UNL     1       0.709  -0.501  -1.260  0.00  0.00    +0.012 C 
ENDROOT
BRANCH   6  21
ATOM     21  C   UNL     1       0.532  -4.736  -0.361  0.00  0.00    -0.018 A 
ATOM     22  C   UNL     1       0.301  -4.426  -1.689  0.00  0.00    +0.055 A 
ATOM     23  C   UNL     1       1.154  -4.905  -2.670  0.00  0.00    +0.162 A 
ATOM     24  C   UNL     1       2.242  -5.697  -2.317  0.00  0.00    +0.164 A 
ATOM     25  C   UNL     1       2.469  -6.004  -0.986  0.00  0.00    +0.065 A 
ATOM     26  C   UNL     1       1.616  -5.519  -0.009  0.00  0.00    +0.026 A 
ATOM     27 BR   UNL     1       1.931  -5.934   1.809  0.00  0.00    -0.050 Br
BRANCH  23  28
ATOM     28  O   UNL     1       0.928  -4.601  -3.977  0.00  0.00    -0.491 OA
ATOM     29  C   UNL     1      -0.208  -3.784  -4.265  0.00  0.00    +0.277 C 
ENDBRANCH  23  28
BRANCH  24  30
ATOM     30  O   UNL     1       3.082  -6.169  -3.277  0.00  0.00    -0.477 OA
BRANCH  30  31
ATOM     31  C   UNL     1       4.178  -6.976  -2.841  0.00  0.00    +0.354 C 
BRANCH  31  32
ATOM     32  C   UNL     1       4.992  -7.405  -4.035  0.00  0.00    +0.393 C 
ATOM     33  O   UNL     1       4.664  -7.052  -5.155  0.00  0.00    -0.243 OA
ATOM     34  O   UNL     1       5.978  -8.104  -3.881  0.00  0.00    -0.243 OA
ENDBRANCH  31  32
ENDBRANCH  30  31
ENDBRANCH  24  30
ENDBRANCH   6  21
TORSDOF 5
