REMARK  Name = ZINC35294154
REMARK  10 active torsions:
REMARK  status: ('A' for Active; 'I' for Inactive)
REMARK    1  A    between atoms: C_1  and  C_2
REMARK    2  A    between atoms: C_9  and  C_11
REMARK    3  A    between atoms: C_11  and  C_12
REMARK    4  A    between atoms: C_12  and  C_13
REMARK    5  A    between atoms: C_12  and  C_14
REMARK    6  A    between atoms: C_12  and  C_15
REMARK    7  A    between atoms: C_20  and  S_22
REMARK    8  A    between atoms: S_22  and  C_23
REMARK    9  A    between atoms: C_23  and  C_24
REMARK   10  A    between atoms: C_31  and  N_35
REMARK                            x       y       z     vdW  Elec       q    Type
REMARK                         _______ _______ _______ _____ _____    ______ ____
ROOT
ATOM      1  C   UNL     1       0.351   1.968   0.985  0.00  0.00    +0.029 C 
ATOM      2  C   UNL     1       0.433   0.449   0.822  0.00  0.00    +0.090 C 
ATOM      3  C   UNL     1      -0.975  -0.123   0.612  0.00  0.00    +0.128 C 
ATOM      4  N   UNL     1      -1.719  -0.012   1.874  0.00  0.00    -0.312 N 
ATOM      5  C   UNL     1      -1.147  -0.609   3.089  0.00  0.00    +0.125 C 
ATOM      6  C   UNL     1       0.261  -0.037   3.299  0.00  0.00    +0.127 C 
ATOM      7  N   UNL     1       1.010  -0.148   2.035  0.00  0.00    -0.296 N 
ATOM      8  C   UNL     1       2.196  -0.785   1.988  0.00  0.00    +0.216 C 
ATOM      9  O   UNL     1       2.798  -0.870   0.939  0.00  0.00    -0.276 OA
ATOM     10  C   UNL     1      -2.940   0.642   1.918  0.00  0.00    +0.127 A 
ATOM     11  C   UNL     1      -3.585   1.016   0.739  0.00  0.00    +0.083 A 
ATOM     12  C   UNL     1      -4.802   1.667   0.830  0.00  0.00    +0.135 A 
ATOM     13  N   UNL     1      -5.316   1.915   2.027  0.00  0.00    -0.210 NA
ATOM     14  C   UNL     1      -4.680   1.548   3.130  0.00  0.00    +0.192 A 
ATOM     15  N   UNL     1      -3.515   0.918   3.084  0.00  0.00    -0.207 NA
ATOM     16 CL   UNL     1      -5.647   2.155  -0.606  0.00  0.00    -0.062 Cl
ENDROOT
BRANCH   8  17
ATOM     17  C   UNL     1       2.775  -1.391   3.240  0.00  0.00    +0.102 C 
BRANCH  17  18
ATOM     18  C   UNL     1       4.118  -2.049   2.915  0.00  0.00    -0.029 C 
ATOM     19  C   UNL     1       5.082  -0.995   2.366  0.00  0.00    +0.011 C 
ATOM     20  C   UNL     1       4.706  -2.665   4.186  0.00  0.00    +0.011 C 
ATOM     21  C   UNL     1       3.909  -3.144   1.867  0.00  0.00    +0.011 C 
ENDBRANCH  17  18
ENDBRANCH   8  17
BRANCH  14  22
ATOM     22  S   UNL     1      -5.405   1.900   4.697  0.00  0.00    -0.077 S 
BRANCH  22  23
ATOM     23  C   UNL     1      -6.957   2.743   4.284  0.00  0.00    +0.173 C 
BRANCH  23  24
ATOM     24  C   UNL     1      -7.686   3.105   5.552  0.00  0.00    +0.232 C 
ATOM     25  O   UNL     1      -7.206   2.822   6.629  0.00  0.00    -0.274 OA
ATOM     26  N   UNL     1      -8.872   3.743   5.489  0.00  0.00    -0.243 N 
ATOM     27  C   UNL     1      -9.577   4.099   6.731  0.00  0.00    +0.116 C 
ATOM     28  C   UNL     1      -9.491   5.614   6.926  0.00  0.00    +0.019 C 
ATOM     29  C   UNL     1     -10.617   6.318   6.191  0.00  0.00    +0.000 C 
ATOM     30  C   UNL     1     -10.522   6.215   4.680  0.00  0.00    -0.007 C 
ATOM     31  C   UNL     1     -10.726   4.770   4.221  0.00  0.00    +0.013 C 
ATOM     32  C   UNL     1      -9.396   4.052   4.303  0.00  0.00    +0.207 C 
ATOM     33  O   UNL     1      -8.807   3.753   3.286  0.00  0.00    -0.277 OA
BRANCH  31  34
ATOM     34  N   UNL     1     -11.707   4.109   5.093  0.00  0.00    +0.386 N 
ATOM     35  H   UNL     1     -12.633   4.229   4.710  0.00  0.00    -0.089 HD
ATOM     36  H   UNL     1     -11.493   3.125   5.154  0.00  0.00    -0.089 HD
ATOM     37  H   UNL     1     -11.668   4.520   6.014  0.00  0.00    -0.089 HD
ENDBRANCH  31  34
ENDBRANCH  23  24
ENDBRANCH  22  23
ENDBRANCH  14  22
TORSDOF 6
