REMARK  Name = ZINC29050898
REMARK  5 active torsions:
REMARK  status: ('A' for Active; 'I' for Inactive)
REMARK    1  A    between atoms: C_1  and  C_2
REMARK    2  A    between atoms: C_6  and  N_8
REMARK    3  A    between atoms: C_14  and  C_16
REMARK    4  A    between atoms: C_16  and  N_17
REMARK    5  A    between atoms: C_26  and  C_28
REMARK                            x       y       z     vdW  Elec       q    Type
REMARK                         _______ _______ _______ _____ _____    ______ ____
ROOT
ATOM      1  C   UNL     1      -1.225   7.515  -0.384  0.00  0.00    +0.020 C 
ENDROOT
BRANCH   1   2
ATOM      2  N   UNL     1      -1.182   6.128   0.100  0.00  0.00    +0.396 N 
ATOM      3  C   UNL     1       0.069   5.473  -0.295  0.00  0.00    -0.041 C 
ATOM      4  C   UNL     1       0.060   4.025   0.120  0.00  0.00    -0.061 A 
ATOM      5  C   UNL     1       1.268   3.344   0.167  0.00  0.00    +0.002 A 
ATOM      6  C   UNL     1       1.305   2.015   0.538  0.00  0.00    +0.000 A 
ATOM      7  C   UNL     1       0.134   1.357   0.863  0.00  0.00    +0.000 A 
ATOM      8  C   UNL     1      -1.070   2.032   0.811  0.00  0.00    +0.004 A 
ATOM      9  C   UNL     1      -1.108   3.369   0.446  0.00  0.00    -0.047 A 
ATOM     10  C   UNL     1      -2.443   4.068   0.415  0.00  0.00    +0.029 C 
ATOM     11  C   UNL     1      -2.336   5.361  -0.394  0.00  0.00    +0.024 C 
ATOM     12  H   UNL     1      -1.224   6.157   1.198  0.00  0.00    -0.080 HD
BRANCH  11  13
ATOM     13  C   UNL     1      -3.594   6.174  -0.225  0.00  0.00    +0.197 C 
ATOM     14  O   UNL     1      -3.712   6.919   0.725  0.00  0.00    -0.278 OA
ATOM     15  N   UNL     1      -4.588   6.073  -1.129  0.00  0.00    -0.331 N 
ATOM     16  H   UNL     1      -5.506   6.667  -1.006  0.00  0.00    +0.145 HD
ATOM     17  H   UNL     1      -4.482   5.398  -1.991  0.00  0.00    +0.145 HD
ENDBRANCH  11  13
ENDBRANCH   1   2
BRANCH   1  24
ATOM     18  N   UNL     1      -0.361  10.979  -3.859  0.00  0.00    -0.327 N 
ATOM     19  C   UNL     1      -0.190   9.672  -4.508  0.00  0.00    +0.124 C 
ATOM     20  C   UNL     1      -1.292   8.720  -4.029  0.00  0.00    +0.126 C 
ATOM     21  N   UNL     1      -1.278   8.691  -2.559  0.00  0.00    -0.300 N 
ATOM     22  C   UNL     1      -1.314   9.972  -1.837  0.00  0.00    +0.126 C 
ATOM     23  C   UNL     1      -0.205  10.874  -2.402  0.00  0.00    +0.124 C 
ATOM     24  C   UNL     1      -1.239   7.521  -1.890  0.00  0.00    +0.199 C 
ATOM     25  O   UNL     1      -1.215   6.474  -2.502  0.00  0.00    -0.278 OA
BRANCH  18  31
ATOM     26  C   UNL     1       1.397  15.568  -3.920  0.00  0.00    +0.044 C 
ATOM     27  C   UNL     1       1.397  14.153  -4.439  0.00  0.00    -0.049 A 
ATOM     28  C   UNL     1       2.275  13.786  -5.443  0.00  0.00    +0.003 A 
ATOM     29  C   UNL     1       2.278  12.489  -5.923  0.00  0.00    +0.002 A 
ATOM     30  C   UNL     1       1.409  11.554  -5.396  0.00  0.00    +0.023 A 
ATOM     31  C   UNL     1       0.523  11.920  -4.391  0.00  0.00    +0.030 A 
ATOM     32  C   UNL     1       0.522  13.224  -3.912  0.00  0.00    +0.026 A 
ENDBRANCH  18  31
ENDBRANCH   1  24
TORSDOF 4
