REMARK  Name = ZINC04966914
REMARK  3 active torsions:
REMARK  status: ('A' for Active; 'I' for Inactive)
REMARK    1  A    between atoms: C_8  and  C_10
REMARK    2  A    between atoms: N_12  and  N_13
REMARK    3  A    between atoms: N_16  and  C_17
REMARK                            x       y       z     vdW  Elec       q    Type
REMARK                         _______ _______ _______ _____ _____    ______ ____
ROOT
ATOM      1  C   UNL     1       0.002  -0.004   0.002  0.00  0.00    +0.276 C 
ATOM      2  O   UNL     1       1.064  -0.598  -0.011  0.00  0.00    -0.267 OA
ATOM      3  N   UNL     1      -1.156  -0.694   0.009  0.00  0.00    -0.228 N 
ATOM      4  H   UNL     1      -2.002  -0.220   0.019  0.00  0.00    +0.173 HD
ENDROOT
BRANCH   1  12
ATOM      5  C   UNL     1      -1.376   4.854   0.039  0.00  0.00    +0.034 A 
ATOM      6  C   UNL     1      -0.619   5.971   0.037  0.00  0.00    +0.048 A 
ATOM      7  S   UNL     1       1.042   5.317   0.019  0.00  0.00    -0.095 S 
ATOM      8  C   UNL     1       0.632   3.590   0.015  0.00  0.00    +0.038 A 
ATOM      9  C   UNL     1      -0.767   3.592   0.027  0.00  0.00    +0.054 A 
ATOM     10  N   UNL     1      -1.147   2.252   0.019  0.00  0.00    -0.350 N 
ATOM     11  H   UNL     1      -2.061   1.927   0.021  0.00  0.00    +0.166 HD
ATOM     12  C   UNL     1      -0.018   1.460   0.010  0.00  0.00    +0.105 A 
ATOM     13  C   UNL     1       1.089   2.281   0.004  0.00  0.00    +0.048 A 
ENDBRANCH   1  12
BRANCH   3  14
ATOM     14  N   UNL     1      -1.137  -2.095   0.001  0.00  0.00    -0.218 N 
ATOM     15  C   UNL     1      -2.295  -2.784   0.008  0.00  0.00    +0.316 C 
ATOM     16  O   UNL     1      -2.278  -4.000   0.001  0.00  0.00    -0.251 OA
ATOM     17  N   UNL     1      -3.471  -2.126   0.022  0.00  0.00    -0.295 N 
ATOM     18  H   UNL     1      -0.290  -2.568  -0.009  0.00  0.00    +0.174 HD
ATOM     19  H   UNL     1      -3.484  -1.157   0.028  0.00  0.00    +0.151 HD
BRANCH  17  20
ATOM     20  C   UNL     1      -4.729  -2.876   0.030  0.00  0.00    +0.074 C 
ATOM     21  C   UNL     1      -5.117  -3.237  -1.406  0.00  0.00    +0.022 C 
ATOM     22  C   UNL     1      -6.431  -4.020  -1.398  0.00  0.00    +0.002 C 
ATOM     23  C   UNL     1      -7.532  -3.161  -0.774  0.00  0.00    +0.000 C 
ATOM     24  C   UNL     1      -7.146  -2.800   0.662  0.00  0.00    +0.002 C 
ATOM     25  C   UNL     1      -5.831  -2.017   0.654  0.00  0.00    +0.022 C 
ENDBRANCH  17  20
ENDBRANCH   3  14
TORSDOF 3
