REMARK  Name = ZINC39592670
REMARK  7 active torsions:
REMARK  status: ('A' for Active; 'I' for Inactive)
REMARK    1  A    between atoms: C_6  and  C_7
REMARK    2  A    between atoms: C_9  and  C_13
REMARK    3  A    between atoms: C_17  and  S_21
REMARK    4  A    between atoms: N_19  and  N_20
REMARK    5  A    between atoms: S_21  and  C_22
REMARK    6  A    between atoms: C_22  and  C_23
REMARK    7  A    between atoms: N_25  and  C_26
REMARK                            x       y       z     vdW  Elec       q    Type
REMARK                         _______ _______ _______ _____ _____    ______ ____
ROOT
ATOM      1  C   UNL     1      -3.305  -3.159  -1.192  0.00  0.00    +0.244 C 
ATOM      2  N   UNL     1      -3.033  -2.364  -2.396  0.00  0.00    -0.167 NA
ATOM      3  N   UNL     1      -3.990  -2.395  -3.177  0.00  0.00    -0.159 NA
ATOM      4  C   UNL     1      -5.084  -3.217  -2.645  0.00  0.00    +0.272 C 
ATOM      5  N   UNL     1      -4.774  -3.372  -1.199  0.00  0.00    -0.183 NA
ENDROOT
BRANCH   1   8
ATOM      6  C   UNL     1      -1.289  -0.791   0.052  0.00  0.00    +0.091 C 
ATOM      7  C   UNL     1      -1.387  -2.135   0.057  0.00  0.00    +0.035 C 
ATOM      8  C   UNL     1      -2.884  -2.389   0.061  0.00  0.00    +0.195 C 
ATOM      9  N   UNL     1      -3.456  -1.032   0.058  0.00  0.00    -0.176 NA
ATOM     10  N   UNL     1      -2.524  -0.225   0.059  0.00  0.00    -0.154 NA
BRANCH   6  16
ATOM     11  C   UNL     1      -0.024   1.357   0.048  0.00  0.00    +0.013 A 
ATOM     12  C   UNL     1       1.167   2.056   0.043  0.00  0.00    +0.039 A 
ATOM     13  C   UNL     1       2.372   1.373   0.036  0.00  0.00    +0.123 A 
ATOM     14  C   UNL     1       2.389  -0.012   0.035  0.00  0.00    +0.039 A 
ATOM     15  C   UNL     1       1.204  -0.718   0.040  0.00  0.00    +0.013 A 
ATOM     16  C   UNL     1      -0.012  -0.036   0.046  0.00  0.00    +0.002 A 
ATOM     17  F   UNL     1       3.535   2.061   0.031  0.00  0.00    -0.205 F 
ENDBRANCH   6  16
ENDBRANCH   1   8
BRANCH   5  18
ATOM     18  N   UNL     1      -5.110  -4.707  -0.732  0.00  0.00    -0.263 NA
ATOM     19  H   UNL     1      -6.109  -4.852  -0.737  0.00  0.00    +0.137 HD
ATOM     20  H   UNL     1      -4.640  -5.411  -1.281  0.00  0.00    +0.137 HD
ENDBRANCH   5  18
BRANCH   4  21
ATOM     21  S   UNL     1      -6.674  -2.374  -2.868  0.00  0.00    -0.107 S 
BRANCH  21  22
ATOM     22  C   UNL     1      -6.468  -0.807  -1.978  0.00  0.00    +0.168 C 
BRANCH  22  23
ATOM     23  C   UNL     1      -7.735   0.002  -2.085  0.00  0.00    +0.227 C 
ATOM     24  O   UNL     1      -8.684  -0.435  -2.702  0.00  0.00    -0.275 OA
ATOM     25  N   UNL     1      -7.814   1.212  -1.497  0.00  0.00    -0.283 N 
ATOM     26  H   UNL     1      -7.081   1.534  -0.950  0.00  0.00    +0.155 HD
BRANCH  25  27
ATOM     27  C   UNL     1      -8.956   2.004  -1.674  0.00  0.00    +0.069 A 
ATOM     28  C   UNL     1     -10.206   1.409  -1.782  0.00  0.00    +0.027 A 
ATOM     29  C   UNL     1     -11.330   2.192  -1.957  0.00  0.00    +0.017 A 
ATOM     30  C   UNL     1     -11.213   3.569  -2.025  0.00  0.00    +0.021 A 
ATOM     31  C   UNL     1      -9.970   4.166  -1.917  0.00  0.00    +0.055 A 
ATOM     32  C   UNL     1      -8.841   3.388  -1.736  0.00  0.00    +0.146 A 
ATOM     33  F   UNL     1      -7.628   3.972  -1.625  0.00  0.00    -0.204 F 
ATOM     34 BR   UNL     1     -12.756   4.636  -2.265  0.00  0.00    -0.050 Br
ENDBRANCH  25  27
ENDBRANCH  22  23
ENDBRANCH  21  22
ENDBRANCH   4  21
TORSDOF 7
