REMARK  Name = ZINC33635875
REMARK  5 active torsions:
REMARK  status: ('A' for Active; 'I' for Inactive)
REMARK    1  A    between atoms: C_6  and  C_7
REMARK    2  A    between atoms: C_7  and  C_9
REMARK    3  A    between atoms: C_9  and  N_10
REMARK    4  A    between atoms: C_11  and  C_13
REMARK    5  A    between atoms: C_16  and  C_18
REMARK                            x       y       z     vdW  Elec       q    Type
REMARK                         _______ _______ _______ _____ _____    ______ ____
ROOT
ATOM      1  N   UNL     1      -4.916   0.792   0.031  0.00  0.00    -0.303 N 
ATOM      2  C   UNL     1      -6.191   1.229   0.039  0.00  0.00    +0.266 C 
ATOM      3  O   UNL     1      -6.424   2.423   0.046  0.00  0.00    -0.268 OA
ATOM      4  H   UNL     1      -4.705  -0.287   0.024  0.00  0.00    +0.150 HD
ENDROOT
BRANCH   2   5
ATOM      5  C   UNL     1      -7.302   0.261   0.040  0.00  0.00    +0.163 A 
ATOM      6  C   UNL     1      -8.631   0.555   0.054  0.00  0.00    +0.230 A 
ATOM      7  O   UNL     1      -9.291  -0.614   0.045  0.00  0.00    -0.449 OA
ATOM      8  C   UNL     1      -8.388  -1.605   0.036  0.00  0.00    +0.182 A 
ATOM      9  N   UNL     1      -7.193  -1.095   0.032  0.00  0.00    -0.210 NA
BRANCH   8  10
ATOM     10  C   UNL     1      -8.709  -3.077   0.030  0.00  0.00    +0.016 C 
ATOM     11  C   UNL     1      -9.213  -3.500  -1.366  0.00  0.00    -0.008 C 
ATOM     12  C   UNL     1     -10.335  -4.520  -1.038  0.00  0.00    -0.020 C 
ATOM     13  C   UNL     1     -10.947  -3.910   0.248  0.00  0.00    -0.082 C 
ATOM     14  N   UNL     1      -9.793  -3.358   0.990  0.00  0.00    +0.387 N 
ATOM     15  H   UNL     1      -9.443  -4.087   1.735  0.00  0.00    -0.085 HD
ATOM     16  H   UNL     1     -10.085  -2.426   1.496  0.00  0.00    -0.085 HD
ENDBRANCH   8  10
ENDBRANCH   2   5
BRANCH   1  17
ATOM     17  C   UNL     1      -3.812   1.754   0.030  0.00  0.00    +0.184 C 
BRANCH  17  18
ATOM     18  C   UNL     1      -2.499   1.013   0.020  0.00  0.00    +0.180 C 
ATOM     19  O   UNL     1      -2.488  -0.200   0.014  0.00  0.00    -0.290 OA
BRANCH  18  25
ATOM     20  C   UNL     1      -0.013   1.076   0.008  0.00  0.00    +0.012 A 
ATOM     21  C   UNL     1       1.171   1.783   0.001  0.00  0.00    +0.016 A 
ATOM     22  C   UNL     1       1.154   3.168   0.007  0.00  0.00    +0.018 A 
ATOM     23  C   UNL     1      -0.050   3.853   0.022  0.00  0.00    +0.016 A 
ATOM     24  C   UNL     1      -1.242   3.159   0.030  0.00  0.00    +0.012 A 
ATOM     25  C   UNL     1      -1.232   1.760   0.017  0.00  0.00    +0.019 A 
ATOM     26 BR   UNL     1       2.782   4.129  -0.004  0.00  0.00    -0.050 Br
ENDBRANCH  18  25
ENDBRANCH  17  18
ENDBRANCH   1  17
TORSDOF 5
