REMARK  Name = ZINC40438788
REMARK  3 active torsions:
REMARK  status: ('A' for Active; 'I' for Inactive)
REMARK    1  A    between atoms: C_6  and  S_7
REMARK    2  A    between atoms: S_7  and  N_10
REMARK    3  A    between atoms: N_10  and  C_11
REMARK                            x       y       z     vdW  Elec       q    Type
REMARK                         _______ _______ _______ _____ _____    ______ ____
ROOT
ATOM      1  N   UNL     1      -1.814  -1.169  -1.595  0.00  0.00    -0.216 N 
ATOM      2  H   UNL     1      -2.202  -0.385  -2.014  0.00  0.00    +0.174 HD
ENDROOT
BRANCH   1   3
ATOM      3  C   UNL     1      -0.982  -2.019  -2.333  0.00  0.00    +0.049 A 
ATOM      4  C   UNL     1       0.396  -1.995  -2.125  0.00  0.00    +0.026 A 
ATOM      5  C   UNL     1       1.228  -2.824  -2.843  0.00  0.00    +0.028 A 
ATOM      6  C   UNL     1       0.696  -3.696  -3.787  0.00  0.00    +0.047 A 
ATOM      7  C   UNL     1      -0.694  -3.723  -4.000  0.00  0.00    +0.001 A 
ATOM      8  C   UNL     1      -1.530  -2.882  -3.263  0.00  0.00    +0.034 A 
ATOM      9  C   UNL     1      -0.925  -4.730  -5.040  0.00  0.00    +0.027 A 
ATOM     10  C   UNL     1       0.275  -5.228  -5.378  0.00  0.00    +0.083 A 
ATOM     11  N   UNL     1       1.256  -4.623  -4.642  0.00  0.00    -0.361 N 
ATOM     12  H   UNL     1       2.204  -4.817  -4.710  0.00  0.00    +0.165 HD
ENDBRANCH   1   3
BRANCH   1  13
ATOM     13  S   UNL     1      -2.137  -1.503  -0.005  0.00  0.00    +0.072 S 
ATOM     14  O   UNL     1      -3.037  -0.500   0.446  0.00  0.00    -0.150 OA
ATOM     15  O   UNL     1      -0.885  -1.741   0.622  0.00  0.00    -0.150 OA
BRANCH  13  21
ATOM     16  C   UNL     1      -2.341  -4.213   0.253  0.00  0.00    +0.030 A 
ATOM     17  C   UNL     1      -3.033  -5.409   0.287  0.00  0.00    +0.017 A 
ATOM     18  C   UNL     1      -4.405  -5.420   0.106  0.00  0.00    +0.018 A 
ATOM     19  C   UNL     1      -5.083  -4.233  -0.108  0.00  0.00    +0.017 A 
ATOM     20  C   UNL     1      -4.390  -3.038  -0.143  0.00  0.00    +0.030 A 
ATOM     21  C   UNL     1      -3.020  -3.027   0.038  0.00  0.00    +0.109 A 
ATOM     22 BR   UNL     1      -5.352  -7.056   0.153  0.00  0.00    -0.050 Br
ENDBRANCH  13  21
ENDBRANCH   1  13
TORSDOF 3
