REMARK  Name = ZINC09237767
REMARK  7 active torsions:
REMARK  status: ('A' for Active; 'I' for Inactive)
REMARK    1  A    between atoms: C_1  and  C_2
REMARK    2  A    between atoms: C_7  and  N_8
REMARK    3  A    between atoms: C_9  and  C_11
REMARK    4  A    between atoms: C_13  and  C_23
REMARK    5  A    between atoms: C_17  and  C_22
REMARK    6  A    between atoms: C_26  and  O_30
REMARK    7  A    between atoms: O_30  and  C_31
REMARK                            x       y       z     vdW  Elec       q    Type
REMARK                         _______ _______ _______ _____ _____    ______ ____
ROOT
ATOM      1  C   UNL     1      -1.256   7.403  -0.163  0.00  0.00    +0.166 C 
ATOM      2  C   UNL     1      -2.506   7.858  -0.928  0.00  0.00    +0.140 C 
ATOM      3  N   UNL     1      -3.696   7.178  -0.414  0.00  0.00    -0.272 N 
ATOM      4  N   UNL     1      -3.929   7.406   0.904  0.00  0.00    -0.225 N 
ATOM      5  C   UNL     1      -5.110   7.276   1.576  0.00  0.00    +0.148 A 
ATOM      6  N   UNL     1      -4.882   7.575   2.825  0.00  0.00    -0.132 NA
ATOM      7  N   UNL     1      -3.643   7.889   2.987  0.00  0.00    -0.121 NA
ATOM      8  C   UNL     1      -3.021   7.806   1.843  0.00  0.00    +0.209 A 
ATOM      9  S   UNL     1      -1.322   8.137   1.499  0.00  0.00    -0.069 S 
ATOM     10  C   UNL     1      -6.433   6.862   0.985  0.00  0.00    +0.090 C 
ATOM     11  H   UNL     1      -4.508   7.402  -0.969  0.00  0.00    +0.167 HD
ENDROOT
BRANCH   2  12
ATOM     12  C   UNL     1      -2.340   7.536  -2.391  0.00  0.00    -0.023 A 
ATOM     13  C   UNL     1      -2.564   6.249  -2.844  0.00  0.00    +0.009 A 
ATOM     14  C   UNL     1      -2.418   5.952  -4.185  0.00  0.00    +0.047 A 
ATOM     15  C   UNL     1      -2.035   6.943  -5.076  0.00  0.00    +0.134 A 
ATOM     16  C   UNL     1      -1.805   8.233  -4.619  0.00  0.00    +0.060 A 
ATOM     17  C   UNL     1      -1.958   8.527  -3.276  0.00  0.00    +0.024 A 
ATOM     18 BR   UNL     1      -1.284   9.588  -5.830  0.00  0.00    -0.047 Br
BRANCH  15  19
ATOM     19  O   UNL     1      -1.885   6.652  -6.395  0.00  0.00    -0.494 OA
ATOM     20  C   UNL     1      -2.138   5.303  -6.794  0.00  0.00    +0.277 C 
ENDBRANCH  15  19
ENDBRANCH   2  12
BRANCH   1  22
ATOM     21  N   UNL     1      -0.069   5.242   0.030  0.00  0.00    -0.284 N 
ATOM     22  C   UNL     1      -1.242   5.900  -0.058  0.00  0.00    +0.233 C 
ATOM     23  O   UNL     1      -2.286   5.283  -0.051  0.00  0.00    -0.274 OA
ATOM     24  H   UNL     1       0.761   5.737   0.105  0.00  0.00    +0.155 HD
BRANCH  21  31
ATOM     25  C   UNL     1       2.132   3.913   1.250  0.00  0.00    +0.045 C 
ATOM     26  C   UNL     1       1.006   3.154   0.595  0.00  0.00    -0.029 A 
ATOM     27  C   UNL     1       1.023   1.773   0.575  0.00  0.00    +0.005 A 
ATOM     28  C   UNL     1      -0.010   1.076  -0.024  0.00  0.00    +0.000 A 
ATOM     29  C   UNL     1      -1.060   1.759  -0.611  0.00  0.00    +0.002 A 
ATOM     30  C   UNL     1      -1.085   3.139  -0.590  0.00  0.00    +0.023 A 
ATOM     31  C   UNL     1      -0.049   3.842   0.012  0.00  0.00    +0.036 A 
ENDBRANCH  21  31
ENDBRANCH   1  22
TORSDOF 4
