REMARK  Name = ZINC05274740
REMARK  5 active torsions:
REMARK  status: ('A' for Active; 'I' for Inactive)
REMARK    1  A    between atoms: C_1  and  C_2
REMARK    2  A    between atoms: C_2  and  C_3
REMARK    3  A    between atoms: C_2  and  C_4
REMARK    4  A    between atoms: C_2  and  C_5
REMARK    5  A    between atoms: C_17  and  C_20
REMARK                            x       y       z     vdW  Elec       q    Type
REMARK                         _______ _______ _______ _____ _____    ______ ____
ROOT
ATOM      1  C   UNL     1       0.718  -0.497  -1.257  0.00  0.00    -0.000 C 
ATOM      2  C   UNL     1       0.746  -2.029  -1.264  0.00  0.00    +0.009 C 
ATOM      3  C   UNL     1       1.235  -2.533  -2.624  0.00  0.00    +0.037 C 
ATOM      4  C   UNL     1       2.550  -1.843  -2.957  0.00  0.00    -0.023 A 
ATOM      5  C   UNL     1       2.922  -0.707  -2.327  0.00  0.00    -0.004 A 
ATOM      6  S   UNL     1       4.492  -0.289  -3.036  0.00  0.00    -0.078 S 
ATOM      7  C   UNL     1       4.656  -1.546  -4.105  0.00  0.00    +0.080 A 
ATOM      8  C   UNL     1       3.498  -2.322  -3.949  0.00  0.00    +0.068 A 
ATOM      9  C   UNL     1       3.356  -3.526  -4.800  0.00  0.00    +0.248 C 
ATOM     10  O   UNL     1       2.309  -4.145  -4.853  0.00  0.00    -0.270 OA
ATOM     11  N   UNL     1       4.435  -3.907  -5.515  0.00  0.00    -0.289 N 
ATOM     12  C   UNL     1       5.753  -3.299  -5.370  0.00  0.00    +0.190 C 
ATOM     13  N   UNL     1       5.649  -1.878  -4.994  0.00  0.00    -0.316 N 
ATOM     14  C   UNL     1       2.161   0.028  -1.267  0.00  0.00    +0.046 C 
ATOM     15  H   UNL     1       4.329  -4.625  -6.159  0.00  0.00    +0.151 HD
ATOM     16  H   UNL     1       6.253  -1.210  -5.356  0.00  0.00    +0.149 HD
ENDROOT
BRANCH  12  17
ATOM     17  C   UNL     1       6.522  -4.035  -4.303  0.00  0.00    -0.006 A 
ATOM     18  C   UNL     1       7.460  -3.364  -3.541  0.00  0.00    +0.011 A 
ATOM     19  C   UNL     1       8.167  -4.035  -2.561  0.00  0.00    +0.050 A 
ATOM     20  C   UNL     1       7.937  -5.383  -2.340  0.00  0.00    +0.166 A 
ATOM     21  C   UNL     1       6.992  -6.059  -3.107  0.00  0.00    +0.167 A 
ATOM     22  C   UNL     1       6.283  -5.379  -4.084  0.00  0.00    +0.056 A 
ATOM     23  O   UNL     1       6.951  -7.362  -2.702  0.00  0.00    -0.453 OA
ATOM     24  C   UNL     1       8.167  -7.571  -1.959  0.00  0.00    +0.466 C 
ATOM     25  O   UNL     1       8.489  -6.262  -1.453  0.00  0.00    -0.453 OA
ENDBRANCH  12  17
BRANCH   1  27
ATOM     26  C   UNL     1      -0.019   1.526   0.010  0.00  0.00    +0.011 C 
ATOM     27  C   UNL     1       0.002  -0.004   0.002  0.00  0.00    -0.035 C 
ATOM     28  C   UNL     1       0.742  -0.511   1.242  0.00  0.00    +0.011 C 
ATOM     29  C   UNL     1      -1.433  -0.534   0.013  0.00  0.00    +0.011 C 
ENDBRANCH   1  27
TORSDOF 2
