REMARK  Name = ZINC13548530
REMARK  3 active torsions:
REMARK  status: ('A' for Active; 'I' for Inactive)
REMARK    1  A    between atoms: C_1  and  C_2
REMARK    2  A    between atoms: C_12  and  O_25
REMARK    3  A    between atoms: C_17  and  O_24
REMARK                            x       y       z     vdW  Elec       q    Type
REMARK                         _______ _______ _______ _____ _____    ______ ____
ROOT
ATOM      1  C   UNL     1       0.207   2.498   2.047  0.00  0.00    +0.052 C 
ATOM      2  C   UNL     1      -0.732   1.581   1.261  0.00  0.00    +0.174 C 
ATOM      3  C   UNL     1      -0.013   1.086   0.008  0.00  0.00    +0.045 C 
ATOM      4  C   UNL     1      -0.759   1.596  -1.232  0.00  0.00    +0.008 C 
ATOM      5  C   UNL     1      -0.611   0.578  -2.360  0.00  0.00    +0.027 C 
ATOM      6  C   UNL     1      -1.730   0.724  -3.356  0.00  0.00    -0.031 C 
ATOM      7  C   UNL     1      -2.263  -0.352  -3.881  0.00  0.00    -0.027 C 
ATOM      8  C   UNL     1      -1.749  -1.708  -3.470  0.00  0.00    +0.020 C 
ATOM      9  C   UNL     1      -1.611  -2.586  -4.731  0.00  0.00    +0.039 C 
ATOM     10  C   UNL     1      -2.670  -3.691  -4.646  0.00  0.00    +0.115 C 
ATOM     11  C   UNL     1      -3.421  -3.530  -3.320  0.00  0.00    +0.038 C 
ATOM     12  C   UNL     1      -2.744  -2.385  -2.537  0.00  0.00    +0.031 C 
ATOM     13  C   UNL     1      -2.038  -2.965  -1.311  0.00  0.00    +0.141 C 
ATOM     14  C   UNL     1      -2.339  -2.139  -0.092  0.00  0.00    +0.011 C 
ATOM     15  C   UNL     1      -1.415  -1.293   0.366  0.00  0.00    +0.090 C 
ATOM     16  C   UNL     1      -1.592  -0.660   1.659  0.00  0.00    +0.332 C 
ATOM     17  O   UNL     1      -2.262  -1.291   2.453  0.00  0.00    -0.246 OA
ATOM     18  O   UNL     1      -1.141   0.486   2.103  0.00  0.00    -0.459 OA
ENDROOT
BRANCH  13  19
ATOM     19  O   UNL     1      -2.491  -4.303  -1.095  0.00  0.00    -0.387 OA
ATOM     20  H   UNL     1      -2.085  -4.737  -0.332  0.00  0.00    +0.210 HD
ENDBRANCH  13  19
BRANCH  10  21
ATOM     21  O   UNL     1      -3.584  -3.567  -5.737  0.00  0.00    -0.392 OA
ATOM     22  H   UNL     1      -3.173  -3.658  -6.607  0.00  0.00    +0.210 HD
ENDBRANCH  10  21
TORSDOF 2
