REMARK  Name = ZINC48836200
REMARK  4 active torsions:
REMARK  status: ('A' for Active; 'I' for Inactive)
REMARK    1  A    between atoms: C_1  and  N_2
REMARK    2  A    between atoms: N_2  and  C_3
REMARK    3  A    between atoms: C_8  and  C_9
REMARK    4  A    between atoms: C_17  and  N_20
REMARK                            x       y       z     vdW  Elec       q    Type
REMARK                         _______ _______ _______ _____ _____    ______ ____
ROOT
ATOM      1  C   UNL     1      -0.155  -0.859   1.209  0.00  0.00    +0.140 C 
ATOM      2  N   UNL     1       0.277  -0.030   0.081  0.00  0.00    -0.258 N 
ATOM      3  C   UNL     1       0.348  -0.560  -1.157  0.00  0.00    +0.309 C 
ATOM      4  O   UNL     1       0.110  -1.740  -1.327  0.00  0.00    -0.252 OA
ATOM      5  N   UNL     1       0.682   0.219  -2.205  0.00  0.00    -0.285 N 
ATOM      6  C   UNL     1       1.165  -0.379  -3.457  0.00  0.00    +0.108 C 
ATOM      7  C   UNL     1       0.311   0.146  -4.615  0.00  0.00    +0.003 C 
ATOM      8  C   UNL     1       0.326   1.676  -4.603  0.00  0.00    -0.072 C 
ATOM      9  C   UNL     1      -0.277   2.183  -3.290  0.00  0.00    +0.003 C 
ATOM     10  C   UNL     1       0.565   1.681  -2.119  0.00  0.00    +0.108 C 
ENDROOT
BRANCH   2  11
ATOM     11  C   UNL     1       0.614   1.304   0.287  0.00  0.00    +0.052 A 
ATOM     12  C   UNL     1       1.944   1.701   0.257  0.00  0.00    +0.024 A 
ATOM     13  C   UNL     1       2.276   3.025   0.461  0.00  0.00    +0.002 A 
ATOM     14  C   UNL     1       1.288   3.968   0.697  0.00  0.00    +0.001 A 
ATOM     15  C   UNL     1      -0.037   3.595   0.731  0.00  0.00    +0.017 A 
ATOM     16  C   UNL     1      -0.391   2.258   0.520  0.00  0.00    +0.085 A 
BRANCH  16  17
ATOM     17  C   UNL     1      -1.805   1.853   0.549  0.00  0.00    +0.388 C 
ATOM     18  O   UNL     1      -2.676   2.687   0.753  0.00  0.00    -0.241 OA
ATOM     19  O   UNL     1      -2.109   0.681   0.369  0.00  0.00    -0.241 OA
ENDBRANCH  16  17
ENDBRANCH   2  11
BRANCH   8  20
ATOM     20  N   UNL     1      -0.466   2.182  -5.732  0.00  0.00    +0.380 N 
ATOM     21  H   UNL     1      -1.417   1.854  -5.650  0.00  0.00    -0.090 HD
ATOM     22  H   UNL     1      -0.456   3.191  -5.724  0.00  0.00    -0.090 HD
ATOM     23  H   UNL     1      -0.068   1.849  -6.597  0.00  0.00    -0.090 HD
ENDBRANCH   8  20
TORSDOF 3
