REMARK  Name = ZINC14986166
REMARK  7 active torsions:
REMARK  status: ('A' for Active; 'I' for Inactive)
REMARK    1  A    between atoms: C_3  and  C_11
REMARK    2  A    between atoms: C_5  and  C_7
REMARK    3  A    between atoms: C_11  and  O_12
REMARK    4  A    between atoms: O_12  and  C_13
REMARK    5  A    between atoms: C_14  and  C_26
REMARK    6  A    between atoms: C_26  and  N_58
REMARK    7  A    between atoms: C_27  and  N_58
REMARK                            x       y       z     vdW  Elec       q    Type
REMARK                         _______ _______ _______ _____ _____    ______ ____
ROOT
ATOM      1  C   UNL     1      -0.109   7.176  -1.482  0.00  0.00    +0.217 A 
ATOM      2  C   UNL     1      -0.122   7.701  -2.781  0.00  0.00    -0.002 A 
ATOM      3  C   UNL     1      -0.148   9.051  -2.967  0.00  0.00    +0.017 A 
ATOM      4  C   UNL     1      -0.150   9.882  -1.829  0.00  0.00    +0.001 A 
ATOM      5  C   UNL     1      -0.172  11.279  -1.945  0.00  0.00    +0.014 A 
ATOM      6  C   UNL     1      -0.171  12.057  -0.824  0.00  0.00    -0.043 A 
ATOM      7  C   UNL     1      -0.149  11.476   0.444  0.00  0.00    -0.042 A 
ATOM      8  C   UNL     1      -0.129  10.119   0.589  0.00  0.00    +0.032 A 
ATOM      9  C   UNL     1      -0.129   9.289  -0.543  0.00  0.00    +0.075 A 
ATOM     10  N   UNL     1      -0.110   7.957  -0.424  0.00  0.00    -0.213 NA
ATOM     11  C   UNL     1      -0.153  12.563   1.499  0.00  0.00    +0.036 C 
ATOM     12  C   UNL     1       0.265  13.850   0.757  0.00  0.00    +0.009 C 
ATOM     13  C   UNL     1      -0.191  13.566  -0.689  0.00  0.00    +0.036 C 
ENDROOT
BRANCH   1  14
ATOM     14  O   UNL     1      -0.089   5.831  -1.313  0.00  0.00    -0.471 OA
BRANCH  14  15
ATOM     15  C   UNL     1      -0.070   5.347   0.032  0.00  0.00    +0.266 C 
BRANCH  15  18
ATOM     16  C   UNL     1       1.175   1.783   0.000  0.00  0.00    +0.001 A 
ATOM     17  C   UNL     1       1.156   3.166   0.008  0.00  0.00    +0.007 A 
ATOM     18  C   UNL     1      -0.050   3.840   0.023  0.00  0.00    -0.010 A 
ATOM     19  C   UNL     1      -1.238   3.133   0.029  0.00  0.00    +0.019 A 
ATOM     20  C   UNL     1      -1.219   1.751   0.017  0.00  0.00    +0.055 A 
ATOM     21  C   UNL     1      -0.013   1.076   0.008  0.00  0.00    +0.012 A 
BRANCH  20  22
ATOM     22  C   UNL     1      -2.514   0.980   0.019  0.00  0.00    +0.417 C 
ATOM     23  F   UNL     1      -2.240  -0.392   0.010  0.00  0.00    -0.166 F 
ATOM     24  F   UNL     1      -3.247   1.301   1.167  0.00  0.00    -0.166 F 
ATOM     25  F   UNL     1      -3.257   1.314  -1.118  0.00  0.00    -0.166 F 
ENDBRANCH  20  22
ENDBRANCH  15  18
ENDBRANCH  14  15
ENDBRANCH   1  14
BRANCH   2  26
ATOM     26  C   UNL     1      -0.113   6.774  -3.969  0.00  0.00    -0.041 C 
BRANCH  26  27
ATOM     27  N   UNL     1      -1.479   6.266  -4.197  0.00  0.00    +0.385 N 
ATOM     28  H   UNL     1      -2.109   7.056  -4.375  0.00  0.00    -0.085 HD
ATOM     29  H   UNL     1      -1.794   5.759  -3.361  0.00  0.00    -0.085 HD
BRANCH  27  30
ATOM     30  C   UNL     1      -1.500   5.355  -5.356  0.00  0.00    -0.049 C 
ATOM     31  C   UNL     1      -1.103   3.940  -4.902  0.00  0.00    +0.008 C 
ATOM     32  C   UNL     1      -1.443   2.949  -6.053  0.00  0.00    +0.164 C 
ATOM     33  S   UNL     1      -3.067   3.620  -6.607  0.00  0.00    -0.033 S 
ATOM     34  O   UNL     1      -4.107   2.947  -5.911  0.00  0.00    -0.174 OA
ATOM     35  O   UNL     1      -3.089   3.663  -8.027  0.00  0.00    -0.174 OA
ATOM     36  C   UNL     1      -2.925   5.336  -5.959  0.00  0.00    +0.150 C 
ENDBRANCH  27  30
ENDBRANCH  26  27
ENDBRANCH   2  26
TORSDOF 7
