REMARK  Name = ZINC12495459
REMARK  9 active torsions:
REMARK  status: ('A' for Active; 'I' for Inactive)
REMARK    1  A    between atoms: C_1  and  C_2
REMARK    2  A    between atoms: C_4  and  C_32
REMARK    3  A    between atoms: C_6  and  N_8
REMARK    4  A    between atoms: N_8  and  S_9
REMARK    5  A    between atoms: S_9  and  C_12
REMARK    6  A    between atoms: C_15  and  N_18
REMARK    7  A    between atoms: N_18  and  C_19
REMARK    8  A    between atoms: C_19  and  N_21
REMARK    9  A    between atoms: C_22  and  C_24
REMARK                            x       y       z     vdW  Elec       q    Type
REMARK                         _______ _______ _______ _____ _____    ______ ____
ROOT
ATOM      1  C   UNL     1      -0.473   4.629   0.671  0.00  0.00    +0.109 A 
ATOM      2  C   UNL     1       0.895   4.542   0.850  0.00  0.00    +0.030 A 
ATOM      3  C   UNL     1       1.707   5.602   0.497  0.00  0.00    +0.025 A 
ATOM      4  C   UNL     1       1.148   6.760  -0.028  0.00  0.00    +0.033 A 
ATOM      5  C   UNL     1      -0.228   6.845  -0.201  0.00  0.00    +0.025 A 
ATOM      6  C   UNL     1      -1.034   5.780   0.148  0.00  0.00    +0.030 A 
ENDROOT
BRANCH   1   7
ATOM      7  S   UNL     1      -1.506   3.272   1.116  0.00  0.00    +0.072 S 
ATOM      8  O   UNL     1      -2.820   3.793   1.262  0.00  0.00    -0.150 OA
ATOM      9  O   UNL     1      -0.839   2.581   2.164  0.00  0.00    -0.150 OA
BRANCH   7  10
ATOM     10  N   UNL     1      -1.546   2.242  -0.180  0.00  0.00    -0.216 N 
ATOM     11  H   UNL     1      -2.385   2.068  -0.636  0.00  0.00    +0.174 HD
BRANCH  10  17
ATOM     12  C   UNL     1       2.085   1.904  -3.475  0.00  0.00    +0.044 C 
ATOM     13  C   UNL     1       1.408   1.436  -2.212  0.00  0.00    -0.048 A 
ATOM     14  C   UNL     1       1.946   0.389  -1.488  0.00  0.00    +0.006 A 
ATOM     15  C   UNL     1       1.328  -0.043  -0.328  0.00  0.00    -0.048 A 
ATOM     16  C   UNL     1       0.171   0.570   0.109  0.00  0.00    +0.028 A 
ATOM     17  C   UNL     1      -0.373   1.623  -0.617  0.00  0.00    +0.049 A 
ATOM     18  C   UNL     1       0.251   2.054  -1.781  0.00  0.00    +0.028 A 
ATOM     19  C   UNL     1       1.919  -1.185   0.459  0.00  0.00    +0.044 C 
ENDBRANCH  10  17
ENDBRANCH   7  10
ENDBRANCH   1   7
BRANCH   4  20
ATOM     20  N   UNL     1       1.967   7.837  -0.381  0.00  0.00    -0.297 N 
ATOM     21  H   UNL     1       2.813   7.676  -0.828  0.00  0.00    +0.154 HD
BRANCH  20  22
ATOM     22  C   UNL     1       1.581   9.097  -0.102  0.00  0.00    +0.141 C 
ATOM     23  S   UNL     1       0.153   9.375   0.801  0.00  0.00    -0.018 S 
BRANCH  22  24
ATOM     24  N   UNL     1       2.319  10.139  -0.533  0.00  0.00    -0.264 N 
ATOM     25  C   UNL     1       1.933  11.400  -0.253  0.00  0.00    +0.251 C 
ATOM     26  O   UNL     1       0.919  11.597   0.388  0.00  0.00    -0.270 OA
ATOM     27  H   UNL     1       3.128   9.982  -1.044  0.00  0.00    +0.157 HD
BRANCH  25  28
ATOM     28  C   UNL     1       2.742  12.542  -0.725  0.00  0.00    +0.055 A 
ATOM     29  C   UNL     1       3.907  12.319  -1.462  0.00  0.00    +0.016 A 
ATOM     30  C   UNL     1       4.657  13.388  -1.901  0.00  0.00    +0.021 A 
ATOM     31  C   UNL     1       4.258  14.684  -1.613  0.00  0.00    +0.042 A 
ATOM     32  C   UNL     1       3.105  14.913  -0.883  0.00  0.00    +0.040 A 
ATOM     33  C   UNL     1       2.341  13.850  -0.442  0.00  0.00    +0.054 A 
ATOM     34 CL   UNL     1       0.890  14.139   0.467  0.00  0.00    -0.083 Cl
ATOM     35 CL   UNL     1       5.210  16.025  -2.168  0.00  0.00    -0.083 Cl
ENDBRANCH  25  28
ENDBRANCH  22  24
ENDBRANCH  20  22
ENDBRANCH   4  20
TORSDOF 7
