REMARK  Name = ZINC35693139
REMARK  8 active torsions:
REMARK  status: ('A' for Active; 'I' for Inactive)
REMARK    1  A    between atoms: C_1  and  C_2
REMARK    2  A    between atoms: C_2  and  C_4
REMARK    3  A    between atoms: C_2  and  N_10
REMARK    4  A    between atoms: N_10  and  C_11
REMARK    5  A    between atoms: C_14  and  S_18
REMARK    6  A    between atoms: C_16  and  N_17
REMARK    7  A    between atoms: S_18  and  N_21
REMARK    8  A    between atoms: N_21  and  C_22
REMARK                            x       y       z     vdW  Elec       q    Type
REMARK                         _______ _______ _______ _____ _____    ______ ____
ROOT
ATOM      1  C   UNL     1      -2.077  -0.648  -1.190  0.00  0.00    +0.049 A 
ATOM      2  C   UNL     1      -1.474  -0.309  -2.392  0.00  0.00    +0.027 A 
ATOM      3  C   UNL     1      -2.172  -0.446  -3.578  0.00  0.00    +0.030 A 
ATOM      4  C   UNL     1      -3.471  -0.919  -3.570  0.00  0.00    +0.107 A 
ATOM      5  C   UNL     1      -4.080  -1.259  -2.376  0.00  0.00    +0.053 A 
ATOM      6  C   UNL     1      -3.386  -1.130  -1.182  0.00  0.00    +0.048 A 
ENDROOT
BRANCH   6   7
ATOM      7  N   UNL     1      -3.998  -1.479   0.028  0.00  0.00    -0.356 N 
ATOM      8  H   UNL     1      -3.513  -1.385   0.862  0.00  0.00    +0.142 HD
ATOM      9  H   UNL     1      -4.909  -1.815   0.031  0.00  0.00    +0.142 HD
ENDBRANCH   6   7
BRANCH   4  10
ATOM     10  S   UNL     1      -4.354  -1.089  -5.085  0.00  0.00    +0.058 S 
ATOM     11  O   UNL     1      -5.735  -1.036  -4.759  0.00  0.00    -0.153 OA
ATOM     12  O   UNL     1      -3.753  -0.190  -6.008  0.00  0.00    -0.153 OA
BRANCH  10  13
ATOM     13  N   UNL     1      -4.060  -2.616  -5.654  0.00  0.00    -0.193 NA
ATOM     14  C   UNL     1      -4.535  -3.781  -4.903  0.00  0.00    +0.127 C 
ATOM     15  H   UNL     1      -3.574  -2.740  -6.484  0.00  0.00    +0.148 HD
ENDBRANCH  10  13
ENDBRANCH   4  10
BRANCH   1  16
ATOM     16  N   UNL     1      -1.372  -0.511   0.012  0.00  0.00    -0.336 N 
ATOM     17  H   UNL     1      -1.794  -0.752   0.852  0.00  0.00    +0.147 HD
BRANCH  16  19
ATOM     18  C   UNL     1      -0.019   1.526   0.010  0.00  0.00    +0.033 C 
ATOM     19  C   UNL     1       0.002  -0.004   0.002  0.00  0.00    +0.098 C 
BRANCH  19  20
ATOM     20  C   UNL     1       0.731  -0.503   1.223  0.00  0.00    -0.025 A 
ATOM     21  C   UNL     1       0.095  -0.566   2.453  0.00  0.00    +0.025 A 
ATOM     22  C   UNL     1       0.795  -1.029   3.551  0.00  0.00    +0.111 A 
ATOM     23  N   UNL     1       2.053  -1.408   3.437  0.00  0.00    -0.263 NA
ATOM     24  C   UNL     1       2.690  -1.363   2.284  0.00  0.00    +0.111 A 
ATOM     25  C   UNL     1       2.052  -0.916   1.141  0.00  0.00    +0.025 A 
ENDBRANCH  19  20
ENDBRANCH  16  19
ENDBRANCH   1  16
TORSDOF 6
