REMARK  Name = ZINC35651037
REMARK  8 active torsions:
REMARK  status: ('A' for Active; 'I' for Inactive)
REMARK    1  A    between atoms: C_1  and  C_2
REMARK    2  A    between atoms: C_5  and  C_17
REMARK    3  A    between atoms: C_7  and  S_8
REMARK    4  A    between atoms: S_8  and  N_11
REMARK    5  A    between atoms: N_11  and  C_12
REMARK    6  A    between atoms: C_12  and  C_14
REMARK    7  A    between atoms: C_12  and  C_15
REMARK    8  A    between atoms: C_15  and  O_16
REMARK                            x       y       z     vdW  Elec       q    Type
REMARK                         _______ _______ _______ _____ _____    ______ ____
ROOT
ATOM      1  C   UNL     1       1.025  -1.827   1.473  0.00  0.00    +0.049 C 
ATOM      2  C   UNL     1      -0.233  -1.227   0.899  0.00  0.00    +0.011 A 
ATOM      3  C   UNL     1      -0.706  -1.662  -0.329  0.00  0.00    +0.129 A 
ATOM      4  C   UNL     1      -1.858  -1.116  -0.860  0.00  0.00    +0.053 A 
ATOM      5  C   UNL     1      -2.546  -0.124  -0.156  0.00  0.00    +0.068 A 
ATOM      6  C   UNL     1      -2.062   0.308   1.081  0.00  0.00    +0.044 A 
ATOM      7  C   UNL     1      -0.912  -0.249   1.603  0.00  0.00    +0.112 A 
ATOM      8  F   UNL     1      -0.039  -2.621  -1.008  0.00  0.00    -0.205 F 
ENDROOT
BRANCH   7   9
ATOM      9  S   UNL     1      -0.305   0.291   3.166  0.00  0.00    +0.059 S 
ATOM     10  O   UNL     1      -1.195   1.301   3.620  0.00  0.00    -0.153 OA
ATOM     11  O   UNL     1      -0.032  -0.880   3.922  0.00  0.00    -0.153 OA
BRANCH   9  12
ATOM     12  N   UNL     1       1.152   1.031   2.896  0.00  0.00    -0.185 NA
ATOM     13  H   UNL     1       1.963   0.656   3.273  0.00  0.00    +0.148 HD
BRANCH  12  14
ATOM     14  C   UNL     1       1.215   2.251   2.088  0.00  0.00    +0.099 C 
ATOM     15  C   UNL     1       2.106   2.009   0.868  0.00  0.00    +0.028 C 
BRANCH  14  16
ATOM     16  C   UNL     1       1.800   3.389   2.928  0.00  0.00    +0.175 C 
BRANCH  16  17
ATOM     17  O   UNL     1       3.155   3.086   3.263  0.00  0.00    -0.393 OA
ATOM     18  H   UNL     1       3.590   3.765   3.796  0.00  0.00    +0.209 HD
ENDBRANCH  16  17
ENDBRANCH  14  16
ENDBRANCH  12  14
ENDBRANCH   9  12
ENDBRANCH   7   9
BRANCH   5  19
ATOM     19  C   UNL     1      -3.777   0.464  -0.717  0.00  0.00    +0.387 C 
ATOM     20  O   UNL     1      -4.198   0.084  -1.800  0.00  0.00    -0.241 OA
ATOM     21  O   UNL     1      -4.377   1.332  -0.098  0.00  0.00    -0.241 OA
ENDBRANCH   5  19
TORSDOF 6
