REMARK  Name = ZINC10440178
REMARK  9 active torsions:
REMARK  status: ('A' for Active; 'I' for Inactive)
REMARK    1  A    between atoms: C_1  and  C_2
REMARK    2  A    between atoms: C_2  and  C_3
REMARK    3  A    between atoms: C_10  and  C_12
REMARK    4  A    between atoms: C_15  and  S_18
REMARK    5  A    between atoms: N_16  and  C_17
REMARK    6  A    between atoms: S_18  and  C_19
REMARK    7  A    between atoms: C_19  and  C_20
REMARK    8  A    between atoms: N_22  and  N_23
REMARK    9  A    between atoms: C_24  and  C_26
REMARK                            x       y       z     vdW  Elec       q    Type
REMARK                         _______ _______ _______ _____ _____    ______ ____
ROOT
ATOM      1  C   UNL     1       9.595   0.431  -0.087  0.00  0.00    +0.171 A 
ATOM      2  N   UNL     1       8.708  -0.539  -0.084  0.00  0.00    -0.128 NA
ATOM      3  N   UNL     1       7.521  -0.048  -0.064  0.00  0.00    -0.122 NA
ATOM      4  C   UNL     1       7.574   1.265  -0.064  0.00  0.00    +0.192 A 
ATOM      5  N   UNL     1       8.895   1.617  -0.074  0.00  0.00    -0.305 N 
ATOM      6  C   UNL     1       9.450   2.973  -0.072  0.00  0.00    +0.153 C 
ENDROOT
BRANCH   1  13
ATOM      7  C   UNL     1      15.488  -1.666  -0.241  0.00  0.00    -0.007 C 
ATOM      8  C   UNL     1      16.011  -0.314   0.254  0.00  0.00    +0.009 C 
ATOM      9  C   UNL     1      15.177   0.803  -0.391  0.00  0.00    +0.043 C 
ATOM     10  C   UNL     1      13.731   0.453  -0.246  0.00  0.00    -0.006 A 
ATOM     11  C   UNL     1      13.199  -0.758   0.089  0.00  0.00    -0.036 A 
ATOM     12  C   UNL     1      11.814  -0.833   0.160  0.00  0.00    +0.023 A 
ATOM     13  C   UNL     1      11.059   0.279  -0.102  0.00  0.00    +0.057 A 
ATOM     14  S   UNL     1      12.314   1.494  -0.473  0.00  0.00    -0.090 S 
ATOM     15  C   UNL     1      14.113  -1.949   0.364  0.00  0.00    +0.039 C 
BRANCH   7  17
ATOM     16  C   UNL     1      16.007  -4.103  -0.423  0.00  0.00    +0.004 C 
ATOM     17  C   UNL     1      16.461  -2.770   0.176  0.00  0.00    +0.000 C 
ENDBRANCH   7  17
ENDBRANCH   1  13
BRANCH   4  18
ATOM     18  S   UNL     1       6.199   2.366  -0.044  0.00  0.00    -0.077 S 
BRANCH  18  19
ATOM     19  C   UNL     1       4.839   1.171  -0.038  0.00  0.00    +0.174 C 
BRANCH  19  20
ATOM     20  C   UNL     1       3.524   1.907  -0.021  0.00  0.00    +0.239 C 
ATOM     21  O   UNL     1       3.508   3.120  -0.015  0.00  0.00    -0.273 OA
ATOM     22  N   UNL     1       2.366   1.217  -0.014  0.00  0.00    -0.233 N 
ATOM     23  H   UNL     1       2.379   0.247  -0.019  0.00  0.00    +0.173 HD
BRANCH  22  24
ATOM     24  N   UNL     1       1.143   1.901   0.001  0.00  0.00    -0.230 N 
ATOM     25  C   UNL     1      -0.014   1.211   0.009  0.00  0.00    +0.260 C 
ATOM     26  O   UNL     1       0.002  -0.004   0.002  0.00  0.00    -0.269 OA
ATOM     27  H   UNL     1       1.130   2.871   0.007  0.00  0.00    +0.173 HD
BRANCH  25  28
ATOM     28  C   UNL     1      -1.304   1.933   0.019  0.00  0.00    +0.038 A 
ATOM     29  C   UNL     1      -1.326   3.329   0.032  0.00  0.00    +0.014 A 
ATOM     30  C   UNL     1      -2.533   3.996   0.035  0.00  0.00    +0.021 A 
ATOM     31  C   UNL     1      -3.721   3.285   0.037  0.00  0.00    +0.041 A 
ATOM     32  C   UNL     1      -3.706   1.900   0.030  0.00  0.00    +0.021 A 
ATOM     33  C   UNL     1      -2.505   1.221   0.021  0.00  0.00    +0.014 A 
ATOM     34 CL   UNL     1      -5.236   4.132   0.048  0.00  0.00    -0.084 Cl
ENDBRANCH  25  28
ENDBRANCH  22  24
ENDBRANCH  19  20
ENDBRANCH  18  19
ENDBRANCH   4  18
TORSDOF 7
