REMARK  Name = ZINC39669848
REMARK  8 active torsions:
REMARK  status: ('A' for Active; 'I' for Inactive)
REMARK    1  A    between atoms: C_1  and  O_2
REMARK    2  A    between atoms: O_2  and  C_3
REMARK    3  A    between atoms: C_8  and  C_13
REMARK    4  A    between atoms: C_13  and  C_14
REMARK    5  A    between atoms: C_14  and  N_15
REMARK    6  A    between atoms: C_16  and  C_18
REMARK    7  A    between atoms: C_29  and  C_31
REMARK    8  A    between atoms: C_34  and  C_37
REMARK                            x       y       z     vdW  Elec       q    Type
REMARK                         _______ _______ _______ _____ _____    ______ ____
ROOT
ATOM      1  C   UNL     1       2.861  -7.029  -8.844  0.00  0.00    +0.100 C 
ATOM      2  C   UNL     1       4.360  -7.362  -9.014  0.00  0.00    +0.121 C 
ATOM      3  N   UNL     1       4.457  -7.974 -10.360  0.00  0.00    -0.296 N 
ATOM      4  C   UNL     1       3.527  -7.177 -11.195  0.00  0.00    +0.115 C 
ATOM      5  C   UNL     1       2.318  -6.907 -10.277  0.00  0.00    -0.004 C 
ATOM      6  C   UNL     1       1.776  -5.502 -10.520  0.00  0.00    -0.010 C 
ATOM      7  C   UNL     1       1.189  -5.423 -11.932  0.00  0.00    -0.082 C 
ATOM      8  N   UNL     1       0.116  -6.415 -12.074  0.00  0.00    +0.379 N 
ATOM      9  C   UNL     1       0.664  -7.769 -11.932  0.00  0.00    -0.082 C 
ATOM     10  C   UNL     1       1.229  -7.947 -10.520  0.00  0.00    -0.010 C 
ATOM     11  C   UNL     1       5.218  -9.020 -10.739  0.00  0.00    +0.247 C 
ATOM     12  O   UNL     1       5.836  -9.656  -9.906  0.00  0.00    -0.270 OA
ATOM     13  H   UNL     1      -0.581  -6.258 -11.362  0.00  0.00    -0.086 HD
ATOM     14  H   UNL     1      -0.309  -6.320 -12.984  0.00  0.00    -0.086 HD
ENDROOT
BRANCH  11  15
ATOM     15  C   UNL     1       5.302  -9.394 -12.166  0.00  0.00    +0.037 A 
ATOM     16  C   UNL     1       4.976  -8.465 -13.155  0.00  0.00    +0.013 A 
ATOM     17  C   UNL     1       5.057  -8.820 -14.486  0.00  0.00    +0.013 A 
ATOM     18  C   UNL     1       5.460 -10.095 -14.841  0.00  0.00    +0.055 A 
ATOM     19  C   UNL     1       5.785 -11.022 -13.866  0.00  0.00    +0.013 A 
ATOM     20  C   UNL     1       5.714 -10.677 -12.532  0.00  0.00    +0.013 A 
BRANCH  18  21
ATOM     21  C   UNL     1       5.546 -10.476 -16.296  0.00  0.00    +0.417 C 
ATOM     22  F   UNL     1       6.827 -10.189 -16.779  0.00  0.00    -0.166 F 
ATOM     23  F   UNL     1       5.291 -11.845 -16.436  0.00  0.00    -0.166 F 
ATOM     24  F   UNL     1       4.599  -9.750 -17.025  0.00  0.00    -0.166 F 
ENDBRANCH  18  21
ENDBRANCH  11  15
BRANCH   1  26
ATOM     25  N   UNL     1       1.609  -5.521  -7.335  0.00  0.00    -0.315 N 
ATOM     26  C   UNL     1       2.694  -5.724  -8.107  0.00  0.00    +0.218 C 
ATOM     27  O   UNL     1       3.537  -4.858  -8.210  0.00  0.00    -0.275 OA
ATOM     28  H   UNL     1       0.935  -6.214  -7.253  0.00  0.00    +0.149 HD
BRANCH  25  29
ATOM     29  C   UNL     1       1.446  -4.253  -6.619  0.00  0.00    +0.112 C 
BRANCH  29  30
ATOM     30  C   UNL     1       0.141  -4.281  -5.822  0.00  0.00    +0.093 C 
BRANCH  30  36
ATOM     31  C   UNL     1      -1.079   0.987  -3.156  0.00  0.00    +0.122 A 
ATOM     32  C   UNL     1       0.173   0.775  -2.585  0.00  0.00    +0.048 A 
ATOM     33  C   UNL     1       0.896  -0.342  -2.889  0.00  0.00    +0.033 A 
ATOM     34  C   UNL     1       0.380  -1.286  -3.780  0.00  0.00    +0.089 A 
ATOM     35  N   UNL     1       0.847  -2.466  -4.268  0.00  0.00    -0.232 NA
ATOM     36  C   UNL     1      -0.026  -2.977  -5.085  0.00  0.00    +0.110 A 
ATOM     37  H   UNL     1      -1.902  -2.316  -5.721  0.00  0.00    +0.167 HD
ATOM     38  N   UNL     1      -1.113  -2.162  -5.179  0.00  0.00    -0.342 N 
ATOM     39  C   UNL     1      -0.883  -1.076  -4.358  0.00  0.00    +0.070 A 
ATOM     40  C   UNL     1      -1.610   0.062  -4.037  0.00  0.00    +0.073 A 
BRANCH  31  42
ATOM     41  C   UNL     1      -1.179   3.020  -1.927  0.00  0.00    +0.277 C 
ATOM     42  O   UNL     1      -1.785   2.106  -2.843  0.00  0.00    -0.495 OA
ENDBRANCH  31  42
ENDBRANCH  30  36
ENDBRANCH  29  30
ENDBRANCH  25  29
ENDBRANCH   1  26
TORSDOF 7
