REMARK  Name = ZINC39883543
REMARK  10 active torsions:
REMARK  status: ('A' for Active; 'I' for Inactive)
REMARK    1  A    between atoms: C_1  and  C_2
REMARK    2  A    between atoms: C_2  and  C_3
REMARK    3  A    between atoms: C_2  and  C_4
REMARK    4  A    between atoms: C_2  and  C_5
REMARK    5  A    between atoms: C_11  and  C_14
REMARK    6  A    between atoms: C_14  and  C_15
REMARK    7  A    between atoms: N_17  and  C_18
REMARK    8  A    between atoms: C_19  and  C_27
REMARK    9  A    between atoms: N_29  and  C_30
REMARK   10  A    between atoms: C_30  and  C_31
REMARK                            x       y       z     vdW  Elec       q    Type
REMARK                         _______ _______ _______ _____ _____    ______ ____
ROOT
ATOM      1  C   UNL     1       7.604  -0.806   0.047  0.00  0.00    +0.084 A 
ATOM      2  C   UNL     1       8.697  -0.468   0.829  0.00  0.00    +0.069 A 
ATOM      3  C   UNL     1       9.220  -1.491   1.717  0.00  0.00    -0.023 A 
ATOM      4  C   UNL     1       8.555  -2.665   1.660  0.00  0.00    -0.004 A 
ATOM      5  S   UNL     1       7.276  -2.398   0.468  0.00  0.00    -0.077 S 
ATOM      6  C   UNL     1       8.850  -3.905   2.446  0.00  0.00    +0.043 C 
ATOM      7  C   UNL     1      10.254  -3.769   3.052  0.00  0.00    +0.005 C 
ATOM      8  C   UNL     1      10.376  -2.395   3.716  0.00  0.00    +0.005 C 
ATOM      9  C   UNL     1      10.409  -1.301   2.647  0.00  0.00    +0.037 C 
ENDROOT
BRANCH   1  12
ATOM     10  C   UNL     1       5.876  -0.505  -1.544  0.00  0.00    +0.222 C 
ATOM     11  O   UNL     1       5.513  -1.646  -1.351  0.00  0.00    -0.275 OA
ATOM     12  N   UNL     1       6.933  -0.010  -0.869  0.00  0.00    -0.279 N 
ATOM     13  H   UNL     1       7.223   0.902  -1.024  0.00  0.00    +0.155 HD
BRANCH  10  14
ATOM     14  C   UNL     1       5.146   0.360  -2.540  0.00  0.00    +0.135 C 
BRANCH  14  21
ATOM     15  C   UNL     1       0.707  -0.490  -1.238  0.00  0.00    -0.041 A 
ATOM     16  C   UNL     1       0.029  -1.287  -2.149  0.00  0.00    +0.008 A 
ATOM     17  C   UNL     1       0.657  -1.742  -3.289  0.00  0.00    +0.047 A 
ATOM     18  C   UNL     1       1.982  -1.401  -3.531  0.00  0.00    +0.135 A 
ATOM     19  C   UNL     1       2.663  -0.593  -2.605  0.00  0.00    +0.024 A 
ATOM     20  C   UNL     1       2.010  -0.138  -1.461  0.00  0.00    +0.016 A 
ATOM     21  C   UNL     1       4.014  -0.425  -3.151  0.00  0.00    +0.007 A 
ATOM     22  C   UNL     1       4.040  -1.109  -4.303  0.00  0.00    +0.200 A 
ATOM     23  O   UNL     1       2.845  -1.683  -4.528  0.00  0.00    -0.463 OA
BRANCH  15  25
ATOM     24  C   UNL     1      -0.019   1.526   0.010  0.00  0.00    +0.015 C 
ATOM     25  C   UNL     1       0.002  -0.004   0.002  0.00  0.00    -0.013 C 
ATOM     26  C   UNL     1       0.742  -0.511   1.242  0.00  0.00    +0.015 C 
ATOM     27  C   UNL     1      -1.433  -0.534   0.013  0.00  0.00    +0.015 C 
ENDBRANCH  15  25
ENDBRANCH  14  21
ENDBRANCH  10  14
ENDBRANCH   1  12
BRANCH   2  28
ATOM     28  C   UNL     1       9.301   0.867   0.763  0.00  0.00    +0.247 C 
ATOM     29  O   UNL     1       8.903   1.752   1.498  0.00  0.00    -0.270 OA
ATOM     30  N   UNL     1      10.295   1.114  -0.113  0.00  0.00    -0.309 N 
ATOM     31  H   UNL     1      10.612   0.409  -0.699  0.00  0.00    +0.149 HD
BRANCH  30  32
ATOM     32  C   UNL     1      10.898   2.448  -0.179  0.00  0.00    +0.136 C 
BRANCH  32  33
ATOM     33  C   UNL     1      11.994   2.459  -1.246  0.00  0.00    +0.135 C 
ATOM     34  C   UNL     1      12.669   3.853  -1.308  0.00  0.00    +0.035 C 
ATOM     35  C   UNL     1      14.058   3.481  -1.896  0.00  0.00    +0.031 C 
ATOM     36  C   UNL     1      14.315   2.091  -1.276  0.00  0.00    +0.160 C 
ATOM     37  O   UNL     1      13.045   1.547  -0.891  0.00  0.00    -0.375 OA
ENDBRANCH  32  33
ENDBRANCH  30  32
ENDBRANCH   2  28
TORSDOF 7
