REMARK  Name = ZINC20097727
REMARK  9 active torsions:
REMARK  status: ('A' for Active; 'I' for Inactive)
REMARK    1  A    between atoms: C_5  and  N_7
REMARK    2  A    between atoms: N_7  and  C_8
REMARK    3  A    between atoms: C_8  and  C_9
REMARK    4  A    between atoms: N_11  and  C_12
REMARK    5  A    between atoms: C_17  and  C_19
REMARK    6  A    between atoms: C_19  and  S_20
REMARK    7  A    between atoms: S_20  and  C_22
REMARK    8  A    between atoms: C_22  and  C_23
REMARK    9  A    between atoms: N_25  and  C_26
REMARK                            x       y       z     vdW  Elec       q    Type
REMARK                         _______ _______ _______ _____ _____    ______ ____
ROOT
ATOM      1  N   UNL     1      -0.091   1.038  -5.311  0.00  0.00    -0.262 N 
ATOM      2  C   UNL     1      -0.637   1.897  -4.427  0.00  0.00    +0.233 C 
ATOM      3  O   UNL     1      -1.375   2.778  -4.815  0.00  0.00    -0.274 OA
ENDROOT
BRANCH   1   8
ATOM      4  C   UNL     1       2.958  -0.740  -4.299  0.00  0.00    +0.002 A 
ATOM      5  C   UNL     1       2.438  -1.980  -3.985  0.00  0.00    +0.004 A 
ATOM      6  C   UNL     1       1.077  -2.229  -4.107  0.00  0.00    -0.042 A 
ATOM      7  C   UNL     1       0.235  -1.229  -4.537  0.00  0.00    -0.023 A 
ATOM      8  C   UNL     1       0.761   0.021  -4.863  0.00  0.00    +0.040 A 
ATOM      9  C   UNL     1       2.120   0.265  -4.741  0.00  0.00    +0.024 A 
ATOM     10  C   UNL     1      -1.251  -1.426  -4.683  0.00  0.00    +0.037 C 
ATOM     11  C   UNL     1      -1.596  -2.913  -4.719  0.00  0.00    +0.005 C 
ATOM     12  C   UNL     1      -0.926  -3.595  -3.520  0.00  0.00    +0.005 C 
ATOM     13  C   UNL     1       0.583  -3.608  -3.754  0.00  0.00    +0.035 C 
ENDBRANCH   1   8
BRANCH   1  14
ATOM     14  C   UNL     1      -0.387   1.169  -6.739  0.00  0.00    +0.209 C 
BRANCH  14  15
ATOM     15  C   UNL     1       0.576   2.144  -7.365  0.00  0.00    +0.231 C 
ATOM     16  O   UNL     1       1.453   2.646  -6.694  0.00  0.00    -0.274 OA
ATOM     17  N   UNL     1       0.463   2.458  -8.671  0.00  0.00    -0.311 N 
ATOM     18  H   UNL     1      -0.332   2.003  -9.280  0.00  0.00    +0.149 HD
BRANCH  17  19
ATOM     19  C   UNL     1       1.400   3.407  -9.279  0.00  0.00    +0.073 C 
ATOM     20  C   UNL     1       0.877   4.848  -9.111  0.00  0.00    +0.022 C 
ATOM     21  C   UNL     1       1.268   5.552 -10.434  0.00  0.00    +0.002 C 
ATOM     22  C   UNL     1       1.035   4.444 -11.491  0.00  0.00    +0.002 C 
ATOM     23  C   UNL     1       1.501   3.150 -10.793  0.00  0.00    +0.022 C 
ENDBRANCH  17  19
ENDBRANCH  14  15
ENDBRANCH   1  14
BRANCH   2  24
ATOM     24  C   UNL     1      -0.332   1.762  -2.958  0.00  0.00    +0.200 C 
BRANCH  24  25
ATOM     25  S   UNL     1      -1.211   3.054  -2.037  0.00  0.00    +0.040 S 
ATOM     26  O   UNL     1      -0.736   4.331  -2.443  0.00  0.00    -0.256 OA
BRANCH  25  27
ATOM     27  C   UNL     1      -0.744   2.757  -0.309  0.00  0.00    +0.200 C 
BRANCH  27  28
ATOM     28  C   UNL     1      -1.415   3.776   0.575  0.00  0.00    +0.230 C 
ATOM     29  O   UNL     1      -2.137   4.620   0.088  0.00  0.00    -0.274 OA
ATOM     30  N   UNL     1      -1.212   3.750   1.907  0.00  0.00    -0.285 N 
ATOM     31  H   UNL     1      -0.626   2.935   2.359  0.00  0.00    +0.155 HD
BRANCH  30  32
ATOM     32  C   UNL     1      -1.748   4.759   2.717  0.00  0.00    +0.034 A 
ATOM     33  C   UNL     1      -1.051   5.196   3.836  0.00  0.00    +0.026 A 
ATOM     34  C   UNL     1      -1.579   6.195   4.630  0.00  0.00    +0.040 A 
ATOM     35  C   UNL     1      -2.807   6.753   4.317  0.00  0.00    +0.124 A 
ATOM     36  C   UNL     1      -3.506   6.315   3.205  0.00  0.00    +0.040 A 
ATOM     37  C   UNL     1      -2.979   5.320   2.405  0.00  0.00    +0.026 A 
ATOM     38  F   UNL     1      -3.323   7.728   5.098  0.00  0.00    -0.205 F 
ENDBRANCH  30  32
ENDBRANCH  27  28
ENDBRANCH  25  27
ENDBRANCH  24  25
ENDBRANCH   2  24
TORSDOF 9
