REMARK  Name = ZINC33297924
REMARK  11 active torsions:
REMARK  status: ('A' for Active; 'I' for Inactive)
REMARK    1  A    between atoms: C_1  and  C_2
REMARK    2  A    between atoms: C_2  and  C_3
REMARK    3  A    between atoms: N_5  and  C_6
REMARK    4  A    between atoms: C_7  and  C_31
REMARK    5  A    between atoms: C_10  and  C_11
REMARK    6  A    between atoms: C_12  and  C_13
REMARK    7  A    between atoms: C_16  and  S_19
REMARK    8  A    between atoms: S_19  and  N_22
REMARK    9  A    between atoms: N_22  and  C_23
REMARK   10  A    between atoms: C_27  and  S_29
REMARK   11  A    between atoms: S_29  and  C_30
REMARK                            x       y       z     vdW  Elec       q    Type
REMARK                         _______ _______ _______ _____ _____    ______ ____
ROOT
ATOM      1  C   UNL     1      -6.010   5.839   0.856  0.00  0.00    -0.025 A 
ATOM      2  C   UNL     1      -6.755   6.662   1.706  0.00  0.00    +0.010 A 
ATOM      3  C   UNL     1      -6.114   7.598   2.490  0.00  0.00    +0.029 A 
ATOM      4  C   UNL     1      -4.737   7.724   2.437  0.00  0.00    +0.109 A 
ATOM      5  C   UNL     1      -3.993   6.917   1.594  0.00  0.00    +0.029 A 
ATOM      6  C   UNL     1      -4.619   5.972   0.809  0.00  0.00    +0.010 A 
ENDROOT
BRANCH   4   7
ATOM      7  S   UNL     1      -3.927   8.923   3.442  0.00  0.00    +0.072 S 
ATOM      8  O   UNL     1      -4.890   9.927   3.733  0.00  0.00    -0.150 OA
ATOM      9  O   UNL     1      -2.689   9.216   2.808  0.00  0.00    -0.150 OA
BRANCH   7  10
ATOM     10  N   UNL     1      -3.559   8.189   4.880  0.00  0.00    -0.216 N 
ATOM     11  H   UNL     1      -4.034   8.534   5.811  0.00  0.00    +0.174 HD
BRANCH  10  12
ATOM     12  C   UNL     1      -2.647   7.132   4.912  0.00  0.00    +0.049 A 
ATOM     13  C   UNL     1      -1.453   7.222   4.205  0.00  0.00    +0.024 A 
ATOM     14  C   UNL     1      -0.550   6.177   4.235  0.00  0.00    +0.003 A 
ATOM     15  C   UNL     1      -0.830   5.039   4.968  0.00  0.00    +0.015 A 
ATOM     16  C   UNL     1      -2.021   4.942   5.677  0.00  0.00    +0.009 A 
ATOM     17  C   UNL     1      -2.933   5.989   5.644  0.00  0.00    +0.039 A 
BRANCH  16  18
ATOM     18  S   UNL     1      -2.377   3.491   6.610  0.00  0.00    -0.129 S 
ATOM     19  C   UNL     1      -0.928   2.432   6.344  0.00  0.00    +0.090 C 
ENDBRANCH  16  18
ENDBRANCH  10  12
ENDBRANCH   7  10
ENDBRANCH   4   7
BRANCH   1  21
ATOM     20  C   UNL     1      -7.622   4.028   0.552  0.00  0.00    +0.051 C 
ATOM     21  C   UNL     1      -6.687   4.838   0.016  0.00  0.00    +0.011 C 
BRANCH  20  26
ATOM     22  C   UNL     1      -8.783   3.295   2.706  0.00  0.00    +0.103 A 
ATOM     23  C   UNL     1      -8.476   3.567   4.059  0.00  0.00    +0.102 A 
ATOM     24  N   UNL     1      -7.412   4.319   4.056  0.00  0.00    -0.081 NA
ATOM     25  O   UNL     1      -7.013   4.550   2.940  0.00  0.00    -0.353 OA
ATOM     26  C   UNL     1      -7.791   3.968   2.005  0.00  0.00    +0.182 A 
ATOM     27  C   UNL     1      -9.231   3.081   5.269  0.00  0.00    +0.071 C 
BRANCH  22  30
ATOM     28  C   UNL     1     -10.147   1.343   2.760  0.00  0.00    +0.217 C 
ATOM     29  O   UNL     1      -9.583   0.991   3.775  0.00  0.00    -0.275 OA
ATOM     30  N   UNL     1      -9.838   2.527   2.194  0.00  0.00    -0.281 N 
ATOM     31  H   UNL     1     -10.414   2.890   1.330  0.00  0.00    +0.155 HD
BRANCH  28  33
ATOM     32  C   UNL     1     -11.349  -0.815   2.966  0.00  0.00    +0.013 C 
ATOM     33  C   UNL     1     -11.192   0.458   2.132  0.00  0.00    +0.093 C 
ENDBRANCH  28  33
ENDBRANCH  22  30
ENDBRANCH  20  26
ENDBRANCH   1  21
TORSDOF 8
