REMARK  Name = ZINC40811821
REMARK  5 active torsions:
REMARK  status: ('A' for Active; 'I' for Inactive)
REMARK    1  A    between atoms: C_1  and  C_2
REMARK    2  A    between atoms: C_6  and  C_7
REMARK    3  A    between atoms: N_9  and  C_10
REMARK    4  A    between atoms: N_22  and  N_23
REMARK    5  A    between atoms: C_24  and  C_26
REMARK                            x       y       z     vdW  Elec       q    Type
REMARK                         _______ _______ _______ _____ _____    ______ ____
ROOT
ATOM      1  C   UNL     1      -0.043   1.504   0.012  0.00  0.00    +0.048 C 
ATOM      2  C   UNL     1      -0.024  -0.003   0.003  0.00  0.00    +0.009 A 
ATOM      3  C   UNL     1      -0.028  -0.837  -1.122  0.00  0.00    +0.042 A 
ATOM      4  C   UNL     1      -0.007  -2.136  -0.672  0.00  0.00    +0.115 A 
ATOM      5  O   UNL     1       0.012  -2.111   0.658  0.00  0.00    -0.454 OA
ATOM      6  C   UNL     1       0.005  -0.830   1.091  0.00  0.00    +0.193 A 
ATOM      7  C   UNL     1      -0.010  -3.325  -1.600  0.00  0.00    +0.075 C 
ATOM      8  C   UNL     1      -0.545  -2.901  -2.970  0.00  0.00    +0.014 C 
ATOM      9  C   UNL     1       0.223  -1.683  -3.496  0.00  0.00    +0.058 C 
ATOM     10  C   UNL     1      -0.048  -0.510  -2.565  0.00  0.00    +0.070 C 
ATOM     11  N   UNL     1      -0.278   0.689  -3.005  0.00  0.00    -0.184 NA
ENDROOT
BRANCH   6  12
ATOM     12  C   UNL     1       0.025  -0.399   2.494  0.00  0.00    +0.284 C 
ATOM     13  O   UNL     1       0.015   0.787   2.767  0.00  0.00    -0.266 OA
ATOM     14  N   UNL     1       0.054  -1.317   3.480  0.00  0.00    -0.277 N 
ATOM     15  H   UNL     1      -0.003  -2.262   3.265  0.00  0.00    +0.155 HD
BRANCH  14  16
ATOM     16  C   UNL     1       0.167  -0.908   4.815  0.00  0.00    +0.069 A 
ATOM     17  C   UNL     1      -0.436   0.269   5.234  0.00  0.00    +0.029 A 
ATOM     18  C   UNL     1      -0.324   0.671   6.551  0.00  0.00    +0.040 A 
ATOM     19  C   UNL     1       0.390  -0.099   7.454  0.00  0.00    +0.126 A 
ATOM     20  C   UNL     1       0.994  -1.274   7.039  0.00  0.00    +0.078 A 
ATOM     21  C   UNL     1       0.879  -1.684   5.723  0.00  0.00    +0.147 A 
ATOM     22  F   UNL     1       1.463  -2.833   5.319  0.00  0.00    -0.203 F 
ATOM     23  F   UNL     1       0.498   0.297   8.741  0.00  0.00    -0.205 F 
ENDBRANCH  14  16
ENDBRANCH   6  12
BRANCH  11  24
ATOM     24  N   UNL     1      -0.284   0.941  -4.383  0.00  0.00    -0.203 N 
ATOM     25  C   UNL     1      -0.523   2.186  -4.839  0.00  0.00    +0.263 C 
ATOM     26  O   UNL     1      -0.733   3.091  -4.055  0.00  0.00    -0.268 OA
ATOM     27  H   UNL     1      -0.116   0.218  -5.008  0.00  0.00    +0.178 HD
BRANCH  25  28
ATOM     28  C   UNL     1      -0.529   2.451  -6.293  0.00  0.00    +0.038 A 
ATOM     29  C   UNL     1      -0.294   1.413  -7.196  0.00  0.00    +0.014 A 
ATOM     30  C   UNL     1      -0.301   1.667  -8.551  0.00  0.00    +0.016 A 
ATOM     31  C   UNL     1      -0.541   2.949  -9.017  0.00  0.00    +0.018 A 
ATOM     32  C   UNL     1      -0.775   3.983  -8.126  0.00  0.00    +0.016 A 
ATOM     33  C   UNL     1      -0.776   3.741  -6.769  0.00  0.00    +0.014 A 
ATOM     34 BR   UNL     1      -0.548   3.289 -10.877  0.00  0.00    -0.050 Br
ENDBRANCH  25  28
ENDBRANCH  11  24
TORSDOF 4
