REMARK  Name = ZINC01159664
REMARK  4 active torsions:
REMARK  status: ('A' for Active; 'I' for Inactive)
REMARK    1  A    between atoms: C_1  and  S_2
REMARK    2  A    between atoms: S_2  and  C_3
REMARK    3  A    between atoms: C_16  and  C_19
REMARK    4  A    between atoms: C_24  and  C_25
REMARK                            x       y       z     vdW  Elec       q    Type
REMARK                         _______ _______ _______ _____ _____    ______ ____
ROOT
ATOM      1  C   UNL     1       4.437   1.198  -1.676  0.00  0.00    +0.212 A 
ATOM      2  N   UNL     1       3.582   1.060  -0.666  0.00  0.00    -0.184 NA
ATOM      3  C   UNL     1       2.600   1.934  -0.526  0.00  0.00    +0.248 A 
ATOM      4  C   UNL     1       2.488   2.986  -1.462  0.00  0.00    +0.156 A 
ATOM      5  N   UNL     1       3.374   3.070  -2.443  0.00  0.00    -0.141 NA
ATOM      6  N   UNL     1       4.318   2.198  -2.541  0.00  0.00    -0.122 NA
ATOM      7  C   UNL     1       1.388   3.963  -1.334  0.00  0.00    +0.029 A 
ATOM      8  C   UNL     1       1.617   5.332  -1.411  0.00  0.00    +0.027 A 
ATOM      9  C   UNL     1       0.558   6.213  -1.300  0.00  0.00    +0.019 A 
ATOM     10  C   UNL     1      -0.730   5.740  -1.112  0.00  0.00    +0.017 A 
ATOM     11  C   UNL     1      -0.971   4.381  -1.028  0.00  0.00    +0.025 A 
ATOM     12  C   UNL     1       0.079   3.487  -1.130  0.00  0.00    +0.040 A 
ATOM     13  N   UNL     1      -0.124   2.108  -1.014  0.00  0.00    -0.305 N 
ATOM     14  C   UNL     1       0.389   1.419   0.166  0.00  0.00    +0.297 C 
ATOM     15  O   UNL     1       1.710   1.838   0.490  0.00  0.00    -0.449 OA
ATOM     16 BR   UNL     1       0.870   8.075  -1.404  0.00  0.00    -0.050 Br
ATOM     17  H   UNL     1      -0.597   1.619  -1.705  0.00  0.00    +0.150 HD
ENDROOT
BRANCH  14  18
ATOM     18  C   UNL     1      -0.518   1.708   1.335  0.00  0.00    +0.056 A 
ATOM     19  C   UNL     1      -1.427   2.704   1.409  0.00  0.00    +0.114 A 
ATOM     20  N   UNL     1      -2.037   2.623   2.611  0.00  0.00    -0.284 N 
ATOM     21  H   UNL     1      -2.760   3.228   2.944  0.00  0.00    +0.188 HD
ATOM     22  N   UNL     1      -1.480   1.546   3.311  0.00  0.00    -0.173 NA
ATOM     23  C   UNL     1      -0.564   0.991   2.546  0.00  0.00    +0.101 A 
BRANCH  23  24
ATOM     24  C   UNL     1       0.273  -0.184   2.898  0.00  0.00    +0.003 A 
ATOM     25  C   UNL     1       0.504  -1.184   1.956  0.00  0.00    +0.010 A 
ATOM     26  C   UNL     1       1.286  -2.272   2.287  0.00  0.00    +0.001 A 
ATOM     27  C   UNL     1       1.833  -2.375   3.554  0.00  0.00    +0.000 A 
ATOM     28  C   UNL     1       1.602  -1.387   4.494  0.00  0.00    +0.001 A 
ATOM     29  C   UNL     1       0.825  -0.292   4.172  0.00  0.00    +0.010 A 
ENDBRANCH  23  24
ENDBRANCH  14  18
BRANCH   1  31
ATOM     30  C   UNL     1       6.547   0.707  -3.347  0.00  0.00    +0.093 C 
ATOM     31  S   UNL     1       5.747   0.036  -1.868  0.00  0.00    -0.088 S 
ENDBRANCH   1  31
TORSDOF 3
