REMARK  Name = ZINC24434376
REMARK  5 active torsions:
REMARK  status: ('A' for Active; 'I' for Inactive)
REMARK    1  A    between atoms: C_2  and  C_3
REMARK    2  A    between atoms: C_7  and  N_9
REMARK    3  A    between atoms: C_10  and  C_12
REMARK    4  A    between atoms: C_15  and  N_21
REMARK    5  A    between atoms: C_16  and  N_18
REMARK                            x       y       z     vdW  Elec       q    Type
REMARK                         _______ _______ _______ _____ _____    ______ ____
ROOT
ATOM      1  N   UNL     1      -0.179   1.533  -0.072  0.00  0.00    -0.281 N 
ATOM      2  C   UNL     1       0.082   0.222  -0.248  0.00  0.00    +0.248 C 
ATOM      3  O   UNL     1       1.207  -0.140  -0.534  0.00  0.00    -0.270 OA
ATOM      4  H   UNL     1      -1.212   1.869   0.102  0.00  0.00    +0.155 HD
ENDROOT
BRANCH   1   9
ATOM      5  C   UNL     1       3.158   3.050   0.309  0.00  0.00    +0.026 A 
ATOM      6  C   UNL     1       2.919   4.329  -0.197  0.00  0.00    +0.017 A 
ATOM      7  C   UNL     1       1.661   4.666  -0.655  0.00  0.00    +0.003 A 
ATOM      8  C   UNL     1       0.635   3.741  -0.614  0.00  0.00    +0.023 A 
ATOM      9  C   UNL     1       0.863   2.465  -0.112  0.00  0.00    +0.035 A 
ATOM     10  C   UNL     1       2.122   2.118   0.354  0.00  0.00    +0.040 A 
BRANCH   5  12
ATOM     11  C   UNL     1       5.530   2.409   1.175  0.00  0.00    +0.009 C 
ATOM     12  C   UNL     1       4.462   2.698   0.785  0.00  0.00    -0.070 C 
ENDBRANCH   5  12
ENDBRANCH   1   9
BRANCH   2  13
ATOM     13  C   UNL     1      -0.997  -0.772  -0.093  0.00  0.00    +0.039 A 
ATOM     14  C   UNL     1      -2.289  -0.357   0.242  0.00  0.00    +0.015 A 
ATOM     15  C   UNL     1      -3.294  -1.286   0.382  0.00  0.00    +0.026 A 
ATOM     16  C   UNL     1      -3.023  -2.640   0.200  0.00  0.00    +0.055 A 
ATOM     17  C   UNL     1      -1.736  -3.057  -0.129  0.00  0.00    +0.147 A 
ATOM     18  C   UNL     1      -0.727  -2.131  -0.275  0.00  0.00    +0.047 A 
BRANCH  17  19
ATOM     19  N   UNL     1      -1.452  -4.496  -0.322  0.00  0.00    +0.058 N 
ATOM     20  O   UNL     1      -0.306  -4.873  -0.495  0.00  0.00    -0.126 OA
ATOM     21  O   UNL     1      -2.363  -5.304  -0.306  0.00  0.00    -0.126 OA
ENDBRANCH  17  19
BRANCH  16  22
ATOM     22  N   UNL     1      -4.039  -3.577   0.346  0.00  0.00    -0.356 N 
ATOM     23  H   UNL     1      -3.826  -4.646   0.203  0.00  0.00    +0.142 HD
ATOM     24  H   UNL     1      -5.056  -3.249   0.606  0.00  0.00    +0.142 HD
ENDBRANCH  16  22
ENDBRANCH   2  13
TORSDOF 5
