REMARK  Name = ZINC65074876
REMARK  5 active torsions:
REMARK  status: ('A' for Active; 'I' for Inactive)
REMARK    1  A    between atoms: C_1  and  C_2
REMARK    2  A    between atoms: C_2  and  C_3
REMARK    3  A    between atoms: C_6  and  S_9
REMARK    4  A    between atoms: S_9  and  N_12
REMARK    5  A    between atoms: N_23  and  C_24
REMARK                            x       y       z     vdW  Elec       q    Type
REMARK                         _______ _______ _______ _____ _____    ______ ____
ROOT
ATOM      1  N   UNL     1      -6.666  -0.779   0.055  0.00  0.00    -0.176 NA
ATOM      2  C   UNL     1      -7.106  -0.183   1.324  0.00  0.00    +0.111 C 
ATOM      3  C   UNL     1      -8.636  -0.106   1.327  0.00  0.00    +0.047 C 
ATOM      4  C   UNL     1      -9.108   0.651   0.083  0.00  0.00    +0.075 C 
ATOM      5  C   UNL     1      -8.666  -0.109  -1.172  0.00  0.00    +0.047 C 
ATOM      6  C   UNL     1      -7.132  -0.183  -1.204  0.00  0.00    +0.111 C 
ATOM      7  C   UNL     1     -10.606   0.762   0.101  0.00  0.00    +0.089 C 
ATOM      8  N   UNL     1     -11.232   1.835   0.409  0.00  0.00    -0.374 N 
ATOM      9  C   UNL     1     -10.570   3.084   0.771  0.00  0.00    +0.129 C 
ATOM     10  C   UNL     1      -9.108   2.818   1.135  0.00  0.00    +0.102 C 
ATOM     11  N   UNL     1      -8.506   1.992   0.074  0.00  0.00    -0.303 NA
ATOM     12  N   UNL     1     -11.342  -0.344  -0.232  0.00  0.00    -0.330 N 
ATOM     13  H   UNL     1      -7.504   1.940   0.181  0.00  0.00    +0.123 HD
ATOM     14  H   UNL     1     -10.895  -1.171  -0.470  0.00  0.00    +0.147 HD
ATOM     15  H   UNL     1     -12.201   1.817   0.402  0.00  0.00    +0.161 HD
ENDROOT
BRANCH  12  16
ATOM     16  C   UNL     1     -12.806  -0.279  -0.227  0.00  0.00    +0.071 C 
ATOM     17  C   UNL     1     -13.310  -0.472   1.218  0.00  0.00    +0.022 C 
ATOM     18  C   UNL     1     -14.703   0.088   1.317  0.00  0.00    +0.002 C 
ATOM     19  C   UNL     1     -15.786  -0.985   1.101  0.00  0.00    +0.000 C 
ATOM     20  C   UNL     1     -15.446  -1.954  -0.049  0.00  0.00    +0.000 C 
ATOM     21  C   UNL     1     -14.864  -1.248  -1.243  0.00  0.00    +0.002 C 
ATOM     22  C   UNL     1     -13.326  -1.290  -1.135  0.00  0.00    +0.022 C 
ENDBRANCH  12  16
BRANCH   1  23
ATOM     23  S   UNL     1      -5.658  -2.093   0.045  0.00  0.00    +0.061 S 
ATOM     24  O   UNL     1      -5.858  -2.749  -1.200  0.00  0.00    -0.153 OA
ATOM     25  O   UNL     1      -5.838  -2.753   1.291  0.00  0.00    -0.153 OA
BRANCH  23  29
ATOM     26  C   UNL     1      -1.412  -0.526   0.013  0.00  0.00    -0.048 A 
ATOM     27  C   UNL     1      -2.051  -0.766   1.215  0.00  0.00    +0.005 A 
ATOM     28  C   UNL     1      -3.348  -1.244   1.225  0.00  0.00    +0.029 A 
ATOM     29  C   UNL     1      -4.006  -1.482   0.032  0.00  0.00    +0.105 A 
ATOM     30  C   UNL     1      -3.367  -1.241  -1.170  0.00  0.00    +0.029 A 
ATOM     31  C   UNL     1      -2.072  -0.758  -1.179  0.00  0.00    +0.005 A 
BRANCH  26  33
ATOM     32  C   UNL     1      -0.019   1.526   0.010  0.00  0.00    +0.009 C 
ATOM     33  C   UNL     1       0.002  -0.004   0.002  0.00  0.00    +0.032 C 
ENDBRANCH  26  33
ENDBRANCH  23  29
ENDBRANCH   1  23
TORSDOF 4
