REMARK  Name = ZINC39665799
REMARK  11 active torsions:
REMARK  status: ('A' for Active; 'I' for Inactive)
REMARK    1  A    between atoms: C_1  and  C_2
REMARK    2  A    between atoms: C_4  and  C_11
REMARK    3  A    between atoms: C_5  and  C_7
REMARK    4  A    between atoms: C_15  and  C_24
REMARK    5  A    between atoms: N_26  and  C_27
REMARK    6  A    between atoms: C_27  and  C_28
REMARK    7  A    between atoms: C_28  and  C_30
REMARK    8  A    between atoms: C_28  and  O_31
REMARK    9  A    between atoms: O_31  and  C_32
REMARK   10  A    between atoms: C_35  and  O_38
REMARK   11  A    between atoms: O_38  and  C_39
REMARK                            x       y       z     vdW  Elec       q    Type
REMARK                         _______ _______ _______ _____ _____    ______ ____
ROOT
ATOM      1  C   UNL     1      -0.344  -1.572  -0.512  0.00  0.00    +0.250 C 
ATOM      2  O   UNL     1       0.304  -2.573  -0.273  0.00  0.00    -0.270 OA
ATOM      3  N   UNL     1      -1.666  -1.547  -0.249  0.00  0.00    -0.296 N 
ATOM      4  C   UNL     1      -2.640  -0.485  -0.594  0.00  0.00    +0.121 C 
ATOM      5  C   UNL     1      -3.915  -1.248  -1.018  0.00  0.00    +0.100 C 
ATOM      6  C   UNL     1      -3.801  -2.618  -0.329  0.00  0.00    -0.004 C 
ATOM      7  C   UNL     1      -2.474  -2.578   0.444  0.00  0.00    +0.115 C 
ATOM      8  C   UNL     1      -3.764  -3.732  -1.370  0.00  0.00    -0.010 C 
ATOM      9  C   UNL     1      -3.708  -5.087  -0.659  0.00  0.00    -0.082 C 
ATOM     10  N   UNL     1      -4.884  -5.237   0.206  0.00  0.00    +0.379 N 
ATOM     11  C   UNL     1      -4.862  -4.217   1.262  0.00  0.00    -0.082 C 
ATOM     12  C   UNL     1      -4.967  -2.825   0.632  0.00  0.00    -0.010 C 
ATOM     13  H   UNL     1      -5.722  -5.130  -0.346  0.00  0.00    -0.086 HD
ATOM     14  H   UNL     1      -4.876  -6.154   0.626  0.00  0.00    -0.086 HD
ENDROOT
BRANCH   1  18
ATOM     15  C   UNL     1       0.556   3.136  -2.258  0.00  0.00    +0.086 C 
ATOM     16  C   UNL     1       0.693   1.691  -1.853  0.00  0.00    +0.103 A 
ATOM     17  C   UNL     1      -0.278   0.939  -1.312  0.00  0.00    +0.058 A 
ATOM     18  C   UNL     1       0.315  -0.387  -1.089  0.00  0.00    +0.087 A 
ATOM     19  C   UNL     1       1.604  -0.292  -1.527  0.00  0.00    +0.220 A 
ATOM     20  O   UNL     1       1.804   0.949  -1.980  0.00  0.00    -0.455 OA
BRANCH  19  21
ATOM     21  C   UNL     1       2.626  -1.399  -1.507  0.00  0.00    +0.451 C 
ATOM     22  F   UNL     1       2.559  -2.116  -2.707  0.00  0.00    -0.163 F 
ATOM     23  F   UNL     1       3.905  -0.851  -1.361  0.00  0.00    -0.163 F 
ATOM     24  F   UNL     1       2.361  -2.259  -0.436  0.00  0.00    -0.163 F 
ENDBRANCH  19  21
ENDBRANCH   1  18
BRANCH   5  25
ATOM     25  C   UNL     1      -3.954  -1.413  -2.516  0.00  0.00    +0.218 C 
ATOM     26  O   UNL     1      -2.920  -1.451  -3.148  0.00  0.00    -0.275 OA
ATOM     27  N   UNL     1      -5.138  -1.518  -3.152  0.00  0.00    -0.312 N 
ATOM     28  H   UNL     1      -5.965  -1.411  -2.657  0.00  0.00    +0.149 HD
BRANCH  27  29
ATOM     29  C   UNL     1      -5.175  -1.793  -4.590  0.00  0.00    +0.148 C 
BRANCH  29  30
ATOM     30  C   UNL     1      -6.622  -1.741  -5.082  0.00  0.00    +0.187 C 
ATOM     31  C   UNL     1      -6.673  -2.139  -6.559  0.00  0.00    +0.053 C 
BRANCH  30  32
ATOM     32  O   UNL     1      -7.131  -0.415  -4.929  0.00  0.00    -0.488 OA
BRANCH  32  33
ATOM     33  C   UNL     1      -8.479  -0.280  -4.812  0.00  0.00    +0.121 A 
ATOM     34  C   UNL     1      -9.301  -1.388  -4.952  0.00  0.00    +0.049 A 
ATOM     35  C   UNL     1     -10.671  -1.251  -4.833  0.00  0.00    +0.049 A 
ATOM     36  C   UNL     1     -11.223  -0.005  -4.574  0.00  0.00    +0.120 A 
ATOM     37  C   UNL     1     -10.401   1.102  -4.434  0.00  0.00    +0.049 A 
ATOM     38  C   UNL     1      -9.031   0.965  -4.548  0.00  0.00    +0.049 A 
BRANCH  36  39
ATOM     39  O   UNL     1     -12.571   0.130  -4.459  0.00  0.00    -0.495 OA
ATOM     40  C   UNL     1     -13.072   1.441  -4.192  0.00  0.00    +0.277 C 
ENDBRANCH  36  39
ENDBRANCH  32  33
ENDBRANCH  30  32
ENDBRANCH  29  30
ENDBRANCH  27  29
ENDBRANCH   5  25
TORSDOF 8
