REMARK  Name = ZINC64109231
REMARK  7 active torsions:
REMARK  status: ('A' for Active; 'I' for Inactive)
REMARK    1  A    between atoms: C_1  and  C_2
REMARK    2  A    between atoms: C_4  and  C_11
REMARK    3  A    between atoms: C_5  and  C_8
REMARK    4  A    between atoms: C_8  and  C_9
REMARK    5  A    between atoms: C_8  and  C_10
REMARK    6  A    between atoms: N_13  and  C_14
REMARK    7  A    between atoms: C_21  and  C_23
REMARK                            x       y       z     vdW  Elec       q    Type
REMARK                         _______ _______ _______ _____ _____    ______ ____
ROOT
ATOM      1  C   UNL     1      -2.868  -0.371  -3.295  0.00  0.00    +0.036 A 
ATOM      2  C   UNL     1      -4.244  -0.289  -3.091  0.00  0.00    +0.025 A 
ATOM      3  C   UNL     1      -5.112  -0.457  -4.131  0.00  0.00    +0.032 A 
ATOM      4  C   UNL     1      -4.622  -0.713  -5.416  0.00  0.00    +0.090 A 
ATOM      5  C   UNL     1      -3.234  -0.796  -5.625  0.00  0.00    +0.068 A 
ATOM      6  C   UNL     1      -2.362  -0.618  -4.560  0.00  0.00    +0.051 A 
ATOM      7  N   UNL     1      -3.061  -1.054  -6.971  0.00  0.00    -0.338 N 
ATOM      8  C   UNL     1      -4.308  -1.120  -7.534  0.00  0.00    +0.142 A 
ATOM      9  N   UNL     1      -5.220  -0.919  -6.615  0.00  0.00    -0.228 NA
ATOM     10  H   UNL     1      -2.215  -1.167  -7.432  0.00  0.00    +0.167 HD
ENDROOT
BRANCH   8  11
ATOM     11  C   UNL     1      -4.583  -1.379  -8.963  0.00  0.00    +0.055 A 
ATOM     12  C   UNL     1      -3.529  -1.584  -9.854  0.00  0.00    +0.052 A 
ATOM     13  C   UNL     1      -3.793  -1.825 -11.188  0.00  0.00    +0.124 A 
ATOM     14  C   UNL     1      -5.102  -1.864 -11.643  0.00  0.00    +0.041 A 
ATOM     15  C   UNL     1      -6.151  -1.661 -10.766  0.00  0.00    +0.042 A 
ATOM     16  C   UNL     1      -5.901  -1.424  -9.427  0.00  0.00    +0.134 A 
ATOM     17  F   UNL     1      -6.927  -1.232  -8.570  0.00  0.00    -0.205 F 
ATOM     18  F   UNL     1      -2.773  -2.024 -12.052  0.00  0.00    -0.205 F 
ENDBRANCH   8  11
BRANCH   1  21
ATOM     19  C   UNL     1      -2.334  -0.645  -0.992  0.00  0.00    +0.249 C 
ATOM     20  O   UNL     1      -3.437  -1.125  -0.805  0.00  0.00    -0.270 OA
ATOM     21  N   UNL     1      -1.993  -0.197  -2.217  0.00  0.00    -0.282 N 
ATOM     22  H   UNL     1      -1.140   0.246  -2.351  0.00  0.00    +0.155 HD
BRANCH  19  25
ATOM     23  C   UNL     1      -0.037   1.543   0.014  0.00  0.00    +0.033 C 
ATOM     24  C   UNL     1      -0.004   0.013   0.006  0.00  0.00    +0.128 C 
ATOM     25  C   UNL     1      -1.409  -0.556   0.078  0.00  0.00    +0.074 C 
ATOM     26  C   UNL     1      -1.615  -0.962   1.343  0.00  0.00    +0.137 C 
ATOM     27  O   UNL     1      -0.543  -0.732   2.125  0.00  0.00    -0.410 OA
ATOM     28  N   UNL     1       0.625  -0.507   1.247  0.00  0.00    -0.148 NA
ATOM     29  H   UNL     1       1.117  -1.370   1.069  0.00  0.00    +0.168 HD
BRANCH  26  30
ATOM     30  C   UNL     1      -2.892  -1.597   1.828  0.00  0.00    +0.051 C 
ATOM     31  C   UNL     1      -2.593  -2.998   2.366  0.00  0.00    +0.015 C 
ATOM     32  C   UNL     1      -3.497  -0.741   2.943  0.00  0.00    +0.015 C 
ENDBRANCH  26  30
ENDBRANCH  19  25
ENDBRANCH   1  21
TORSDOF 4
