REMARK  Name = ZINC58940622
REMARK  6 active torsions:
REMARK  status: ('A' for Active; 'I' for Inactive)
REMARK    1  A    between atoms: C_4  and  C_7
REMARK    2  A    between atoms: N_9  and  N_10
REMARK    3  A    between atoms: C_11  and  C_24
REMARK    4  A    between atoms: N_15  and  C_18
REMARK    5  A    between atoms: C_24  and  C_25
REMARK    6  A    between atoms: N_27  and  C_28
REMARK                            x       y       z     vdW  Elec       q    Type
REMARK                         _______ _______ _______ _____ _____    ______ ____
ROOT
ATOM      1  N   UNL     1       5.528  -1.833  -0.262  0.00  0.00    -0.218 N 
ATOM      2  C   UNL     1       5.502  -3.185  -0.847  0.00  0.00    +0.191 C 
ATOM      3  C   UNL     1       6.659  -3.889  -0.167  0.00  0.00    +0.248 C 
ATOM      4  O   UNL     1       7.022  -5.034  -0.338  0.00  0.00    -0.273 OA
ATOM      5  N   UNL     1       7.200  -2.980   0.668  0.00  0.00    -0.219 N 
ATOM      6  C   UNL     1       6.556  -1.809   0.606  0.00  0.00    +0.164 C 
ATOM      7  S   UNL     1       6.988  -0.435   1.532  0.00  0.00    -0.016 S 
ENDROOT
BRANCH   5   8
ATOM      8  C   UNL     1       8.304  -3.228   1.495  0.00  0.00    +0.043 A 
ATOM      9  C   UNL     1       8.113  -3.678   2.794  0.00  0.00    +0.024 A 
ATOM     10  C   UNL     1       9.202  -3.922   3.607  0.00  0.00    +0.002 A 
ATOM     11  C   UNL     1      10.483  -3.719   3.127  0.00  0.00    +0.000 A 
ATOM     12  C   UNL     1      10.677  -3.271   1.833  0.00  0.00    +0.002 A 
ATOM     13  C   UNL     1       9.591  -3.031   1.014  0.00  0.00    +0.024 A 
ENDBRANCH   5   8
BRANCH   1  16
ATOM     14  C   UNL     1       5.075   0.247  -1.328  0.00  0.00    +0.260 C 
ATOM     15  O   UNL     1       6.208   0.253  -1.768  0.00  0.00    -0.269 OA
ATOM     16  N   UNL     1       4.657  -0.776  -0.557  0.00  0.00    -0.228 N 
ATOM     17  H   UNL     1       3.752  -0.781  -0.206  0.00  0.00    +0.173 HD
BRANCH  14  21
ATOM     18  C   UNL     1       2.432   3.450  -2.222  0.00  0.00    +0.000 A 
ATOM     19  C   UNL     1       3.721   3.460  -2.724  0.00  0.00    +0.001 A 
ATOM     20  C   UNL     1       4.585   2.423  -2.437  0.00  0.00    +0.013 A 
ATOM     21  C   UNL     1       4.155   1.362  -1.639  0.00  0.00    +0.038 A 
ATOM     22  C   UNL     1       2.853   1.357  -1.136  0.00  0.00    +0.013 A 
ATOM     23  C   UNL     1       2.000   2.401  -1.431  0.00  0.00    +0.001 A 
ENDBRANCH  14  21
ENDBRANCH   1  16
BRANCH   2  24
ATOM     24  C   UNL     1       5.721  -3.121  -2.360  0.00  0.00    +0.129 C 
BRANCH  24  25
ATOM     25  C   UNL     1       4.566  -2.400  -3.005  0.00  0.00    +0.220 C 
ATOM     26  O   UNL     1       3.657  -1.978  -2.322  0.00  0.00    -0.275 OA
ATOM     27  N   UNL     1       4.543  -2.223  -4.341  0.00  0.00    -0.285 N 
ATOM     28  H   UNL     1       5.235  -2.618  -4.894  0.00  0.00    +0.155 HD
BRANCH  27  29
ATOM     29  C   UNL     1       3.520  -1.469  -4.930  0.00  0.00    +0.034 A 
ATOM     30  C   UNL     1       3.790  -0.676  -6.037  0.00  0.00    +0.026 A 
ATOM     31  C   UNL     1       2.780   0.066  -6.616  0.00  0.00    +0.040 A 
ATOM     32  C   UNL     1       1.498   0.020  -6.094  0.00  0.00    +0.124 A 
ATOM     33  C   UNL     1       1.227  -0.770  -4.990  0.00  0.00    +0.040 A 
ATOM     34  C   UNL     1       2.233  -1.519  -4.411  0.00  0.00    +0.026 A 
ATOM     35  F   UNL     1       0.512   0.748  -6.662  0.00  0.00    -0.205 F 
ENDBRANCH  27  29
ENDBRANCH  24  25
ENDBRANCH   2  24
TORSDOF 6
