REMARK  Name = ZINC13192111
REMARK  10 active torsions:
REMARK  status: ('A' for Active; 'I' for Inactive)
REMARK    1  A    between atoms: C_1  and  C_2
REMARK    2  A    between atoms: C_4  and  C_31
REMARK    3  A    between atoms: C_5  and  N_9
REMARK    4  A    between atoms: C_6  and  C_8
REMARK    5  A    between atoms: C_10  and  C_12
REMARK    6  A    between atoms: C_12  and  N_13
REMARK    7  A    between atoms: N_13  and  C_14
REMARK    8  A    between atoms: C_17  and  S_22
REMARK    9  A    between atoms: C_19  and  C_20
REMARK   10  A    between atoms: S_22  and  N_25
REMARK                            x       y       z     vdW  Elec       q    Type
REMARK                         _______ _______ _______ _____ _____    ______ ____
ROOT
ATOM      1  C   UNL     1       5.337  -3.378  -2.200  0.00  0.00    +0.042 A 
ATOM      2  C   UNL     1       4.041  -3.783  -1.902  0.00  0.00    +0.025 A 
ATOM      3  C   UNL     1       3.564  -3.680  -0.612  0.00  0.00    +0.030 A 
ATOM      4  C   UNL     1       4.367  -3.164   0.394  0.00  0.00    +0.106 A 
ATOM      5  C   UNL     1       5.653  -2.757   0.119  0.00  0.00    +0.045 A 
ATOM      6  C   UNL     1       6.154  -2.860  -1.183  0.00  0.00    +0.086 A 
ENDROOT
BRANCH   6   7
ATOM      7  C   UNL     1       7.529  -2.426  -1.485  0.00  0.00    +0.388 C 
ATOM      8  O   UNL     1       7.995  -2.613  -2.591  0.00  0.00    -0.241 OA
ATOM      9  O   UNL     1       8.269  -1.823  -0.534  0.00  0.00    -0.241 OA
ENDBRANCH   6   7
BRANCH   4  10
ATOM     10  S   UNL     1       3.739  -3.034   2.035  0.00  0.00    +0.061 S 
ATOM     11  O   UNL     1       4.865  -3.034   2.902  0.00  0.00    -0.153 OA
ATOM     12  O   UNL     1       2.692  -3.987   2.147  0.00  0.00    -0.153 OA
BRANCH  10  13
ATOM     13  N   UNL     1       3.036  -1.540   2.174  0.00  0.00    -0.177 NA
ATOM     14  C   UNL     1       1.615  -1.349   1.853  0.00  0.00    +0.109 C 
ATOM     15  C   UNL     1       1.489  -0.214   0.833  0.00  0.00    +0.017 C 
ATOM     16  C   UNL     1       2.184   1.036   1.377  0.00  0.00    +0.003 C 
ATOM     17  C   UNL     1       3.671   0.743   1.591  0.00  0.00    +0.017 C 
ATOM     18  C   UNL     1       3.822  -0.382   2.621  0.00  0.00    +0.109 C 
ENDBRANCH  10  13
ENDBRANCH   4  10
BRANCH   1  19
ATOM     19  N   UNL     1       5.820  -3.485  -3.497  0.00  0.00    -0.335 N 
ATOM     20  H   UNL     1       6.750  -3.284  -3.686  0.00  0.00    +0.147 HD
BRANCH  19  21
ATOM     21  C   UNL     1       4.927  -3.903  -4.580  0.00  0.00    +0.198 C 
BRANCH  21  23
ATOM     22  N   UNL     1       5.070  -4.298  -7.018  0.00  0.00    -0.284 N 
ATOM     23  C   UNL     1       5.692  -3.939  -5.878  0.00  0.00    +0.234 C 
ATOM     24  O   UNL     1       6.869  -3.645  -5.896  0.00  0.00    -0.274 OA
ATOM     25  H   UNL     1       4.112  -4.455  -7.019  0.00  0.00    +0.155 HD
BRANCH  22  30
ATOM     26  C   UNL     1       8.047  -4.897 -11.810  0.00  0.00    +0.044 C 
ATOM     27  C   UNL     1       7.256  -4.738 -10.537  0.00  0.00    -0.050 A 
ATOM     28  C   UNL     1       6.497  -5.791 -10.060  0.00  0.00    +0.008 A 
ATOM     29  C   UNL     1       5.771  -5.648  -8.894  0.00  0.00    -0.029 A 
ATOM     30  C   UNL     1       5.804  -4.446  -8.199  0.00  0.00    +0.039 A 
ATOM     31  C   UNL     1       6.564  -3.389  -8.683  0.00  0.00    -0.029 A 
ATOM     32  C   UNL     1       7.291  -3.539  -9.848  0.00  0.00    +0.008 A 
ATOM     33  C   UNL     1       6.599  -2.081  -7.936  0.00  0.00    +0.045 C 
ATOM     34  C   UNL     1       4.943  -6.796  -8.376  0.00  0.00    +0.045 C 
ENDBRANCH  22  30
ENDBRANCH  21  23
ENDBRANCH  19  21
ENDBRANCH   1  19
TORSDOF 7
