REMARK  Name = ZINC09056228
REMARK  3 active torsions:
REMARK  status: ('A' for Active; 'I' for Inactive)
REMARK    1  A    between atoms: C_6  and  C_7
REMARK    2  A    between atoms: C_13  and  C_15
REMARK    3  A    between atoms: C_15  and  N_16
REMARK                            x       y       z     vdW  Elec       q    Type
REMARK                         _______ _______ _______ _____ _____    ______ ____
ROOT
ATOM      1  C   UNL     1      -6.380   0.396   1.157  0.00  0.00    +0.080 A 
ATOM      2  C   UNL     1      -7.123   0.536   2.296  0.00  0.00    +0.076 A 
ATOM      3  S   UNL     1      -8.739   0.057   1.698  0.00  0.00    -0.060 S 
ATOM      4  C   UNL     1      -8.261  -0.276   0.008  0.00  0.00    +0.165 A 
ATOM      5  N   UNL     1      -6.971  -0.002   0.040  0.00  0.00    -0.225 NA
ATOM      6  N   UNL     1      -9.043  -0.705  -1.058  0.00  0.00    -0.263 N 
ATOM      7  C   UNL     1     -10.360  -0.926  -0.882  0.00  0.00    +0.237 C 
ATOM      8  O   UNL     1     -10.864  -0.751   0.207  0.00  0.00    -0.274 OA
ATOM      9  H   UNL     1      -8.639  -0.845  -1.929  0.00  0.00    +0.157 HD
ENDROOT
BRANCH   1  15
ATOM     10  C   UNL     1      -4.287   1.017   2.365  0.00  0.00    +0.010 A 
ATOM     11  C   UNL     1      -2.938   1.294   2.362  0.00  0.00    +0.004 A 
ATOM     12  C   UNL     1      -2.208   1.255   1.181  0.00  0.00    -0.044 A 
ATOM     13  C   UNL     1      -2.834   0.931  -0.004  0.00  0.00    -0.044 A 
ATOM     14  C   UNL     1      -4.192   0.653  -0.011  0.00  0.00    +0.014 A 
ATOM     15  C   UNL     1      -4.927   0.694   1.170  0.00  0.00    +0.001 A 
ATOM     16  C   UNL     1      -2.099   0.863  -1.317  0.00  0.00    +0.035 C 
ATOM     17  C   UNL     1      -0.765   1.599  -1.226  0.00  0.00    +0.005 C 
ATOM     18  C   UNL     1      -0.013   1.086   0.008  0.00  0.00    +0.005 C 
ATOM     19  C   UNL     1      -0.738   1.584   1.256  0.00  0.00    +0.035 C 
ENDBRANCH   1  15
BRANCH   7  20
ATOM     20  C   UNL     1     -11.208  -1.391  -2.038  0.00  0.00    +0.214 C 
BRANCH  20  21
ATOM     21  N   UNL     1     -12.593  -1.557  -1.592  0.00  0.00    -0.215 N 
ATOM     22  C   UNL     1     -13.526  -0.581  -1.632  0.00  0.00    +0.247 C 
ATOM     23  O   UNL     1     -13.384   0.556  -2.026  0.00  0.00    -0.273 OA
ATOM     24  C   UNL     1     -14.781  -1.208  -1.080  0.00  0.00    +0.113 C 
ATOM     25  C   UNL     1     -15.914  -1.176  -2.114  0.00  0.00    +0.035 C 
ATOM     26  C   UNL     1     -17.192  -0.959  -1.263  0.00  0.00    +0.003 C 
ATOM     27  C   UNL     1     -16.709   0.011  -0.156  0.00  0.00    +0.003 C 
ATOM     28  C   UNL     1     -15.273  -0.463   0.164  0.00  0.00    +0.035 C 
ATOM     29  N   UNL     1     -14.394  -2.583  -0.761  0.00  0.00    -0.285 N 
ATOM     30  C   UNL     1     -13.094  -2.698  -1.101  0.00  0.00    +0.310 C 
ATOM     31  O   UNL     1     -12.449  -3.720  -0.972  0.00  0.00    -0.252 OA
ATOM     32  H   UNL     1     -14.960  -3.275  -0.384  0.00  0.00    +0.151 HD
ENDBRANCH  20  21
ENDBRANCH   7  20
TORSDOF 3
