REMARK  Name = ZINC12716786
REMARK  13 active torsions:
REMARK  status: ('A' for Active; 'I' for Inactive)
REMARK    1  A    between atoms: C_1  and  O_2
REMARK    2  A    between atoms: O_2  and  C_3
REMARK    3  A    between atoms: C_6  and  C_11
REMARK    4  A    between atoms: C_8  and  O_9
REMARK    5  A    between atoms: O_9  and  C_10
REMARK    6  A    between atoms: C_11  and  C_13
REMARK    7  A    between atoms: C_11  and  N_21
REMARK    8  A    between atoms: N_15  and  C_16
REMARK    9  A    between atoms: N_21  and  C_22
REMARK   10  A    between atoms: C_22  and  C_23
REMARK   11  A    between atoms: C_28  and  C_30
REMARK   12  A    between atoms: C_31  and  N_38
REMARK   13  A    between atoms: C_32  and  C_35
REMARK                            x       y       z     vdW  Elec       q    Type
REMARK                         _______ _______ _______ _____ _____    ______ ____
ROOT
ATOM      1  N   UNL     1       3.557  -2.758  -4.600  0.00  0.00    -0.274 N 
ATOM      2  C   UNL     1       4.538  -2.498  -3.714  0.00  0.00    +0.258 C 
ATOM      3  O   UNL     1       4.268  -2.325  -2.540  0.00  0.00    -0.269 OA
ENDROOT
BRANCH   2   4
ATOM      4  C   UNL     1       5.930  -2.422  -4.163  0.00  0.00    +0.115 A 
ATOM      5  C   UNL     1       7.043  -3.135  -3.716  0.00  0.00    +0.076 A 
ATOM      6  C   UNL     1       8.221  -2.798  -4.380  0.00  0.00    +0.155 A 
ATOM      7  N   UNL     1       8.193  -1.884  -5.326  0.00  0.00    -0.203 NA
ATOM      8  S   UNL     1       6.653  -1.401  -5.431  0.00  0.00    +0.019 S 
BRANCH   6   9
ATOM      9  C   UNL     1       9.489  -3.461  -4.025  0.00  0.00    +0.262 C 
ATOM     10  O   UNL     1       9.528  -4.238  -3.090  0.00  0.00    -0.269 OA
ATOM     11  N   UNL     1      10.605  -3.207  -4.737  0.00  0.00    -0.324 N 
ATOM     12  H   UNL     1      10.574  -2.587  -5.482  0.00  0.00    +0.145 HD
ATOM     13  H   UNL     1      11.439  -3.643  -4.503  0.00  0.00    +0.145 HD
ENDBRANCH   6   9
BRANCH   5  14
ATOM     14  N   UNL     1       6.983  -4.087  -2.706  0.00  0.00    -0.355 N 
ATOM     15  H   UNL     1       6.125  -4.434  -2.418  0.00  0.00    +0.142 HD
ATOM     16  H   UNL     1       7.800  -4.404  -2.290  0.00  0.00    +0.142 HD
ENDBRANCH   5  14
ENDBRANCH   2   4
BRANCH   1  17
ATOM     17  C   UNL     1       2.154  -2.651  -4.193  0.00  0.00    +0.193 C 
BRANCH  17  21
ATOM     18  C   UNL     1       0.358   0.703  -6.145  0.00  0.00    +0.162 A 
ATOM     19  C   UNL     1       1.104  -0.209  -6.874  0.00  0.00    +0.050 A 
ATOM     20  C   UNL     1       1.684  -1.292  -6.240  0.00  0.00    +0.010 A 
ATOM     21  C   UNL     1       1.521  -1.469  -4.879  0.00  0.00    -0.015 A 
ATOM     22  C   UNL     1       0.777  -0.563  -4.146  0.00  0.00    +0.055 A 
ATOM     23  C   UNL     1       0.199   0.528  -4.774  0.00  0.00    +0.162 A 
BRANCH  18  25
ATOM     24  C   UNL     1      -0.006   1.885  -8.177  0.00  0.00    +0.277 C 
ATOM     25  O   UNL     1      -0.212   1.769  -6.767  0.00  0.00    -0.491 OA
ENDBRANCH  18  25
BRANCH  23  26
ATOM     26  O   UNL     1      -0.528   1.424  -4.053  0.00  0.00    -0.491 OA
ATOM     27  C   UNL     1      -0.649   1.181  -2.650  0.00  0.00    +0.277 C 
ENDBRANCH  23  26
ENDBRANCH  17  21
BRANCH  17  28
ATOM     28  C   UNL     1       1.421  -3.909  -4.581  0.00  0.00    +0.238 C 
ATOM     29  O   UNL     1       2.007  -4.798  -5.162  0.00  0.00    -0.273 OA
ATOM     30  N   UNL     1       0.114  -4.047  -4.283  0.00  0.00    -0.311 N 
ATOM     31  H   UNL     1      -0.355  -3.336  -3.819  0.00  0.00    +0.149 HD
BRANCH  30  32
ATOM     32  C   UNL     1      -0.599  -5.270  -4.661  0.00  0.00    +0.073 C 
ATOM     33  C   UNL     1      -1.163  -5.133  -6.090  0.00  0.00    +0.022 C 
ATOM     34  C   UNL     1      -2.530  -5.858  -6.030  0.00  0.00    +0.002 C 
ATOM     35  C   UNL     1      -3.061  -5.471  -4.628  0.00  0.00    +0.002 C 
ATOM     36  C   UNL     1      -1.806  -5.485  -3.731  0.00  0.00    +0.022 C 
ENDBRANCH  30  32
ENDBRANCH  17  28
ENDBRANCH   1  17
BRANCH   1  37
ATOM     37  C   UNL     1       3.894  -3.149  -5.972  0.00  0.00    +0.183 C 
BRANCH  37  38
ATOM     38  C   UNL     1       4.812  -4.343  -5.943  0.00  0.00    +0.122 A 
ATOM     39  C   UNL     1       4.426  -5.632  -5.935  0.00  0.00    +0.046 A 
ATOM     40  C   UNL     1       5.605  -6.412  -5.906  0.00  0.00    +0.041 A 
ATOM     41  C   UNL     1       6.641  -5.554  -5.898  0.00  0.00    +0.195 A 
ATOM     42  O   UNL     1       6.155  -4.302  -5.926  0.00  0.00    -0.466 OA
ENDBRANCH  37  38
ENDBRANCH   1  37
TORSDOF 11
