REMARK  Name = ZINC20542371
REMARK  2 active torsions:
REMARK  status: ('A' for Active; 'I' for Inactive)
REMARK    1  A    between atoms: C_6  and  N_7
REMARK    2  A    between atoms: C_13  and  C_16
REMARK                            x       y       z     vdW  Elec       q    Type
REMARK                         _______ _______ _______ _____ _____    ______ ____
ROOT
ATOM      1  N   UNL     1      -3.368  -1.286   0.028  0.00  0.00    -0.269 N 
ATOM      2  C   UNL     1      -2.331  -0.425   0.024  0.00  0.00    +0.310 C 
ATOM      3  O   UNL     1      -2.536   0.774   0.041  0.00  0.00    -0.252 OA
ATOM      4  N   UNL     1      -1.067  -0.892   0.002  0.00  0.00    -0.248 N 
ATOM      5  C   UNL     1       0.002  -0.004  -0.002  0.00  0.00    +0.166 A 
ATOM      6  N   UNL     1       1.295  -0.265  -0.022  0.00  0.00    -0.229 NA
ATOM      7  C   UNL     1       2.187   0.707  -0.022  0.00  0.00    +0.054 A 
ATOM      8  C   UNL     1       1.747   1.988  -0.001  0.00  0.00    +0.072 A 
ATOM      9  S   UNL     1      -0.021   1.732   0.019  0.00  0.00    -0.060 S 
ATOM     10  H   UNL     1      -3.186  -2.366  -0.064  0.00  0.00    +0.156 HD
ATOM     11  H   UNL     1      -0.882  -1.976  -0.013  0.00  0.00    +0.158 HD
ENDROOT
BRANCH   1  17
ATOM     12  C   UNL     1      -5.627  -1.539   0.846  0.00  0.00    +0.024 A 
ATOM     13  C   UNL     1      -6.916  -1.059   0.968  0.00  0.00    +0.017 A 
ATOM     14  C   UNL     1      -7.264   0.148   0.387  0.00  0.00    +0.018 A 
ATOM     15  C   UNL     1      -6.321   0.879  -0.312  0.00  0.00    +0.017 A 
ATOM     16  C   UNL     1      -5.029   0.407  -0.433  0.00  0.00    +0.024 A 
ATOM     17  C   UNL     1      -4.677  -0.804   0.149  0.00  0.00    +0.035 A 
ATOM     18 BR   UNL     1      -9.032   0.798   0.551  0.00  0.00    -0.050 Br
ENDBRANCH   1  17
BRANCH   7  19
ATOM     19  C   UNL     1       3.662   0.398  -0.045  0.00  0.00    +0.038 C 
ATOM     20  C   UNL     1       4.615   1.534  -0.423  0.00  0.00    +0.010 C 
ATOM     21  C   UNL     1       4.361   0.388  -1.406  0.00  0.00    +0.010 C 
ENDBRANCH   7  19
TORSDOF 2
