REMARK  Name = ZINC02181027
REMARK  8 active torsions:
REMARK  status: ('A' for Active; 'I' for Inactive)
REMARK    1  A    between atoms: C_1  and  C_2
REMARK    2  A    between atoms: C_2  and  O_3
REMARK    3  A    between atoms: O_3  and  C_4
REMARK    4  A    between atoms: N_16  and  N_30
REMARK    5  A    between atoms: C_17  and  S_19
REMARK    6  A    between atoms: S_19  and  C_20
REMARK    7  A    between atoms: C_20  and  C_21
REMARK    8  A    between atoms: C_21  and  C_23
REMARK                            x       y       z     vdW  Elec       q    Type
REMARK                         _______ _______ _______ _____ _____    ______ ____
ROOT
ATOM      1  C   UNL     1      11.492   8.874  -1.121  0.00  0.00    +0.403 C 
ATOM      2  O   UNL     1      11.763  10.046  -1.294  0.00  0.00    -0.226 OA
ATOM      3  N   UNL     1      10.492   8.529  -0.287  0.00  0.00    -0.262 N 
ATOM      4  C   UNL     1       9.708   9.548   0.429  0.00  0.00    +0.116 C 
ATOM      5  C   UNL     1       8.255   9.502  -0.044  0.00  0.00    +0.056 C 
ATOM      6  C   UNL     1       7.768   8.055  -0.034  0.00  0.00    -0.020 A 
ATOM      7  C   UNL     1       8.641   7.028  -0.045  0.00  0.00    +0.013 A 
ATOM      8  S   UNL     1       7.639   5.567  -0.041  0.00  0.00    -0.072 S 
ATOM      9  C   UNL     1       6.042   6.341  -0.022  0.00  0.00    +0.117 A 
ATOM     10  C   UNL     1       6.344   7.713  -0.019  0.00  0.00    +0.077 A 
ATOM     11  C   UNL     1       5.220   8.598  -0.004  0.00  0.00    +0.280 A 
ATOM     12  O   UNL     1       5.384   9.806   0.001  0.00  0.00    -0.265 OA
ATOM     13  N   UNL     1       3.978   8.079   0.006  0.00  0.00    -0.209 N 
ATOM     14  C   UNL     1       3.775   6.729   0.001  0.00  0.00    +0.190 A 
ATOM     15  N   UNL     1       4.792   5.892  -0.007  0.00  0.00    -0.215 NA
ATOM     16  C   UNL     1      10.139   7.115  -0.056  0.00  0.00    +0.153 C 
ENDROOT
BRANCH  13  17
ATOM     17  N   UNL     1       2.901   8.918   0.021  0.00  0.00    -0.293 N 
ATOM     18  H   UNL     1       2.037   8.398   0.028  0.00  0.00    +0.163 HD
ATOM     19  H   UNL     1       2.947   9.552   0.806  0.00  0.00    +0.163 HD
ENDBRANCH  13  17
BRANCH   1  20
ATOM     20  O   UNL     1      12.192   7.920  -1.764  0.00  0.00    -0.451 OA
BRANCH  20  22
ATOM     21  C   UNL     1      13.932   7.148  -3.283  0.00  0.00    +0.048 C 
ATOM     22  C   UNL     1      13.255   8.364  -2.647  0.00  0.00    +0.230 C 
ENDBRANCH  20  22
ENDBRANCH   1  20
BRANCH  14  23
ATOM     23  S   UNL     1       2.130   6.098   0.013  0.00  0.00    -0.078 S 
BRANCH  23  24
ATOM     24  C   UNL     1       2.474   4.321   0.001  0.00  0.00    +0.157 C 
BRANCH  24  25
ATOM     25  C   UNL     1       1.176   3.557   0.009  0.00  0.00    +0.173 C 
ATOM     26  O   UNL     1       0.121   4.155   0.022  0.00  0.00    -0.291 OA
BRANCH  25  27
ATOM     27  C   UNL     1       1.187   2.086   0.002  0.00  0.00    +0.018 A 
ATOM     28  C   UNL     1      -0.017   1.374   0.010  0.00  0.00    +0.013 A 
ATOM     29  C   UNL     1       0.002  -0.004   0.002  0.00  0.00    +0.020 A 
ATOM     30  C   UNL     1       1.209  -0.684  -0.013  0.00  0.00    +0.041 A 
ATOM     31  C   UNL     1       2.406   0.015  -0.021  0.00  0.00    +0.020 A 
ATOM     32  C   UNL     1       2.402   1.393  -0.013  0.00  0.00    +0.013 A 
ATOM     33 CL   UNL     1       1.223  -2.420  -0.022  0.00  0.00    -0.084 Cl
ENDBRANCH  25  27
ENDBRANCH  24  25
ENDBRANCH  23  24
ENDBRANCH  14  23
TORSDOF 7
