REMARK  Name = ZINC04191355
REMARK  8 active torsions:
REMARK  status: ('A' for Active; 'I' for Inactive)
REMARK    1  A    between atoms: C_1  and  C_2
REMARK    2  A    between atoms: C_2  and  C_4
REMARK    3  A    between atoms: C_7  and  C_10
REMARK    4  A    between atoms: C_10  and  N_12
REMARK    5  A    between atoms: N_14  and  C_26
REMARK    6  A    between atoms: C_18  and  S_22
REMARK    7  A    between atoms: S_22  and  N_25
REMARK    8  A    between atoms: C_26  and  C_27
REMARK                            x       y       z     vdW  Elec       q    Type
REMARK                         _______ _______ _______ _____ _____    ______ ____
ROOT
ATOM      1  N   UNL     1      -0.028  -2.168  -6.129  0.00  0.00    -0.152 NA
ATOM      2  C   UNL     1      -0.031  -2.826  -7.284  0.00  0.00    +0.168 A 
ATOM      3  N   UNL     1      -0.051  -2.317  -8.545  0.00  0.00    -0.310 N 
ATOM      4  C   UNL     1      -0.050  -3.167  -9.635  0.00  0.00    +0.059 A 
ATOM      5  C   UNL     1      -0.068  -2.834 -10.999  0.00  0.00    +0.029 A 
ATOM      6  C   UNL     1      -0.064  -3.815 -11.962  0.00  0.00    +0.030 A 
ATOM      7  C   UNL     1      -0.043  -5.157 -11.620  0.00  0.00    +0.106 A 
ATOM      8  C   UNL     1      -0.024  -5.513 -10.284  0.00  0.00    +0.045 A 
ATOM      9  C   UNL     1      -0.028  -4.533  -9.319  0.00  0.00    +0.041 A 
ATOM     10  S   UNL     1      -0.003  -4.541  -7.544  0.00  0.00    -0.052 S 
ENDROOT
BRANCH   7  11
ATOM     11  S   UNL     1      -0.039  -6.395 -12.873  0.00  0.00    +0.056 S 
ATOM     12  O   UNL     1      -0.568  -7.574 -12.281  0.00  0.00    -0.153 OA
ATOM     13  O   UNL     1      -0.610  -5.803 -14.032  0.00  0.00    -0.153 OA
BRANCH  11  14
ATOM     14  N   UNL     1       1.544  -6.718 -13.238  0.00  0.00    -0.204 NA
ATOM     15  H   UNL     1       1.801  -7.603 -13.541  0.00  0.00    +0.144 HD
ATOM     16  H   UNL     1       2.214  -6.022 -13.148  0.00  0.00    +0.144 HD
ENDBRANCH  11  14
ENDBRANCH   7  11
BRANCH   1  17
ATOM     17  C   UNL     1      -0.008  -2.842  -4.976  0.00  0.00    +0.269 C 
ATOM     18  O   UNL     1       0.008  -4.061  -4.982  0.00  0.00    -0.268 OA
BRANCH  17  22
ATOM     19  C   UNL     1      -0.000  -0.734  -1.278  0.00  0.00    +0.017 A 
ATOM     20  C   UNL     1      -0.027  -0.029  -2.485  0.00  0.00    +0.012 A 
ATOM     21  C   UNL     1      -0.024  -0.713  -3.681  0.00  0.00    +0.014 A 
ATOM     22  C   UNL     1      -0.005  -2.108  -3.688  0.00  0.00    +0.039 A 
ATOM     23  C   UNL     1       0.017  -2.813  -2.484  0.00  0.00    +0.014 A 
ATOM     24  C   UNL     1       0.019  -2.132  -1.286  0.00  0.00    +0.012 A 
BRANCH  19  26
ATOM     25  C   UNL     1      -0.018   1.503   0.010  0.00  0.00    +0.091 C 
ATOM     26  C   UNL     1       0.002  -0.004   0.002  0.00  0.00    +0.160 C 
ATOM     27  O   UNL     1       0.020  -0.616   1.049  0.00  0.00    -0.292 OA
ENDBRANCH  19  26
ENDBRANCH  17  22
ENDBRANCH   1  17
BRANCH   3  28
ATOM     28  C   UNL     1      -0.072  -0.867  -8.748  0.00  0.00    +0.212 C 
BRANCH  28  29
ATOM     29  C   UNL     1       1.308  -0.362  -8.830  0.00  0.00    -0.084 C 
ATOM     30  C   UNL     1       2.409   0.041  -8.896  0.00  0.00    +0.005 C 
ENDBRANCH  28  29
ENDBRANCH   3  28
TORSDOF 7
