REMARK  Name = ZINC15080955
REMARK  9 active torsions:
REMARK  status: ('A' for Active; 'I' for Inactive)
REMARK    1  A    between atoms: C_1  and  C_2
REMARK    2  A    between atoms: C_7  and  N_8
REMARK    3  A    between atoms: C_9  and  C_11
REMARK    4  A    between atoms: C_13  and  C_27
REMARK    5  A    between atoms: C_21  and  O_22
REMARK    6  A    between atoms: C_24  and  C_25
REMARK    7  A    between atoms: C_24  and  O_26
REMARK    8  A    between atoms: C_30  and  O_33
REMARK    9  A    between atoms: O_33  and  C_34
REMARK                            x       y       z     vdW  Elec       q    Type
REMARK                         _______ _______ _______ _____ _____    ______ ____
ROOT
ATOM      1  C   UNL     1      -5.370  -2.256   0.605  0.00  0.00    +0.119 C 
ATOM      2  C   UNL     1      -4.156  -2.670  -0.236  0.00  0.00    +0.071 C 
ATOM      3  C   UNL     1      -4.449  -2.353  -1.682  0.00  0.00    +0.044 A 
ATOM      4  C   UNL     1      -5.685  -2.103  -2.171  0.00  0.00    +0.046 A 
ATOM      5  N   UNL     1      -5.578  -1.855  -3.506  0.00  0.00    -0.278 N 
ATOM      6  H   UNL     1      -6.333  -1.638  -4.125  0.00  0.00    +0.189 HD
ATOM      7  N   UNL     1      -4.225  -1.957  -3.862  0.00  0.00    -0.136 NA
ATOM      8  C   UNL     1      -3.528  -2.263  -2.746  0.00  0.00    +0.235 A 
ATOM      9  C   UNL     1      -6.942  -2.111  -1.336  0.00  0.00    +0.090 C 
ATOM     10  C   UNL     1      -6.643  -2.836  -0.018  0.00  0.00    +0.081 C 
ATOM     11  C   UNL     1      -6.445  -4.328  -0.290  0.00  0.00    +0.042 C 
ENDROOT
BRANCH   2  12
ATOM     12  C   UNL     1      -2.940  -1.903   0.215  0.00  0.00    -0.039 A 
ATOM     13  C   UNL     1      -2.736  -0.610  -0.228  0.00  0.00    +0.008 A 
ATOM     14  C   UNL     1      -1.622   0.096   0.185  0.00  0.00    +0.046 A 
ATOM     15  C   UNL     1      -0.708  -0.495   1.045  0.00  0.00    +0.120 A 
ATOM     16  C   UNL     1      -0.912  -1.796   1.484  0.00  0.00    +0.046 A 
ATOM     17  C   UNL     1      -2.031  -2.494   1.073  0.00  0.00    +0.008 A 
BRANCH  15  18
ATOM     18  O   UNL     1       0.389   0.196   1.452  0.00  0.00    -0.495 OA
ATOM     19  C   UNL     1       1.337  -0.507   2.258  0.00  0.00    +0.277 C 
ENDBRANCH  15  18
ENDBRANCH   2  12
BRANCH   1  21
ATOM     20  N   UNL     1      -5.527  -0.110   1.825  0.00  0.00    -0.285 N 
ATOM     21  C   UNL     1      -5.466  -0.753   0.642  0.00  0.00    +0.224 C 
ATOM     22  O   UNL     1      -5.490  -0.121  -0.393  0.00  0.00    -0.275 OA
ATOM     23  H   UNL     1      -5.432  -0.608   2.652  0.00  0.00    +0.155 HD
BRANCH  20  30
ATOM     24  C   UNL     1      -4.829   1.288   4.203  0.00  0.00    +0.045 C 
ATOM     25  C   UNL     1      -5.399   1.996   3.000  0.00  0.00    -0.029 A 
ATOM     26  C   UNL     1      -5.592   3.363   3.029  0.00  0.00    +0.005 A 
ATOM     27  C   UNL     1      -6.120   4.012   1.929  0.00  0.00    +0.000 A 
ATOM     28  C   UNL     1      -6.452   3.295   0.793  0.00  0.00    +0.002 A 
ATOM     29  C   UNL     1      -6.256   1.929   0.756  0.00  0.00    +0.023 A 
ATOM     30  C   UNL     1      -5.726   1.274   1.860  0.00  0.00    +0.036 A 
ENDBRANCH  20  30
ENDBRANCH   1  21
BRANCH   8  32
ATOM     31  H   UNL     1      -1.915  -2.306  -3.576  0.00  0.00    +0.294 HD
ATOM     32  O   UNL     1      -2.324  -2.430  -2.672  0.00  0.00    -0.491 OA
ENDBRANCH   8  32
BRANCH  10  33
ATOM     33  O   UNL     1      -7.738  -2.656   0.883  0.00  0.00    -0.388 OA
ATOM     34  H   UNL     1      -8.579  -3.000   0.553  0.00  0.00    +0.210 HD
ENDBRANCH  10  33
TORSDOF 6
