REMARK  Name = ZINC60364016
REMARK  9 active torsions:
REMARK  status: ('A' for Active; 'I' for Inactive)
REMARK    1  A    between atoms: C_1  and  C_2
REMARK    2  A    between atoms: C_2  and  C_3
REMARK    3  A    between atoms: C_2  and  C_4
REMARK    4  A    between atoms: C_2  and  C_5
REMARK    5  A    between atoms: C_12  and  C_14
REMARK    6  A    between atoms: N_16  and  C_17
REMARK    7  A    between atoms: C_17  and  C_18
REMARK    8  A    between atoms: N_20  and  C_21
REMARK    9  A    between atoms: C_24  and  N_27
REMARK                            x       y       z     vdW  Elec       q    Type
REMARK                         _______ _______ _______ _____ _____    ______ ____
ROOT
ATOM      1  C   UNL     1       6.008  -0.730  -4.547  0.00  0.00    +0.251 C 
ATOM      2  O   UNL     1       6.936  -0.481  -3.802  0.00  0.00    -0.270 OA
ATOM      3  N   UNL     1       6.246  -1.082  -5.826  0.00  0.00    -0.302 N 
ATOM      4  H   UNL     1       5.506  -1.280  -6.421  0.00  0.00    +0.150 HD
ENDROOT
BRANCH   1  11
ATOM      5  C   UNL     1       0.721  -0.495  -1.254  0.00  0.00    -0.001 C 
ATOM      6  C   UNL     1      -0.026  -0.001  -2.495  0.00  0.00    +0.009 C 
ATOM      7  C   UNL     1       0.535  -0.722  -3.729  0.00  0.00    +0.043 C 
ATOM      8  C   UNL     1       2.032  -0.648  -3.681  0.00  0.00    -0.006 A 
ATOM      9  C   UNL     1       2.799  -0.313  -2.604  0.00  0.00    -0.036 A 
ATOM     10  C   UNL     1       4.173  -0.310  -2.794  0.00  0.00    +0.024 A 
ATOM     11  C   UNL     1       4.629  -0.647  -4.055  0.00  0.00    +0.074 A 
ATOM     12  S   UNL     1       3.104  -0.957  -4.924  0.00  0.00    -0.088 S 
ATOM     13  C   UNL     1       2.154   0.038  -1.266  0.00  0.00    +0.040 C 
BRANCH   5  15
ATOM     14  C   UNL     1      -0.024   1.532   0.003  0.00  0.00    +0.011 C 
ATOM     15  C   UNL     1       0.004   0.002   0.003  0.00  0.00    -0.035 C 
ATOM     16  C   UNL     1       0.748  -0.494   1.245  0.00  0.00    +0.011 C 
ATOM     17  C   UNL     1      -1.428  -0.535   0.019  0.00  0.00    +0.011 C 
ENDBRANCH   5  15
ENDBRANCH   1  11
BRANCH   3  18
ATOM     18  C   UNL     1       7.623  -1.164  -6.319  0.00  0.00    +0.200 C 
BRANCH  18  19
ATOM     19  C   UNL     1       7.615  -1.574  -7.769  0.00  0.00    +0.234 C 
ATOM     20  O   UNL     1       6.561  -1.778  -8.335  0.00  0.00    -0.274 OA
ATOM     21  N   UNL     1       8.777  -1.715  -8.436  0.00  0.00    -0.284 N 
ATOM     22  H   UNL     1       9.615  -1.488  -8.004  0.00  0.00    +0.155 HD
BRANCH  21  23
ATOM     23  C   UNL     1       8.775  -2.189  -9.754  0.00  0.00    +0.034 A 
ATOM     24  C   UNL     1       9.807  -3.004 -10.200  0.00  0.00    +0.025 A 
ATOM     25  C   UNL     1       9.805  -3.472 -11.499  0.00  0.00    +0.029 A 
ATOM     26  C   UNL     1       8.770  -3.127 -12.359  0.00  0.00    +0.067 A 
ATOM     27  C   UNL     1       7.738  -2.312 -11.913  0.00  0.00    +0.029 A 
ATOM     28  C   UNL     1       7.737  -1.850 -10.612  0.00  0.00    +0.025 A 
BRANCH  26  29
ATOM     29  N   UNL     1       8.768  -3.603 -13.679  0.00  0.00    -0.220 N 
ATOM     30  C   UNL     1       7.843  -3.352 -14.626  0.00  0.00    +0.225 A 
ATOM     31  N   UNL     1       8.203  -3.977 -15.718  0.00  0.00    -0.222 NA
ATOM     32  C   UNL     1       9.344  -4.632 -15.510  0.00  0.00    +0.245 A 
ATOM     33  N   UNL     1       9.733  -4.429 -14.278  0.00  0.00    -0.154 NA
ENDBRANCH  26  29
ENDBRANCH  21  23
ENDBRANCH  18  19
ENDBRANCH   3  18
TORSDOF 6
