REMARK  Name = ZINC13398400
REMARK  6 active torsions:
REMARK  status: ('A' for Active; 'I' for Inactive)
REMARK    1  A    between atoms: C_3  and  C_13
REMARK    2  A    between atoms: C_5  and  N_7
REMARK    3  A    between atoms: N_15  and  C_16
REMARK    4  A    between atoms: C_19  and  S_22
REMARK    5  A    between atoms: S_22  and  N_25
REMARK    6  A    between atoms: C_29  and  C_32
REMARK                            x       y       z     vdW  Elec       q    Type
REMARK                         _______ _______ _______ _____ _____    ______ ____
ROOT
ATOM      1  C   UNL     1      -2.398   2.656   3.656  0.00  0.00    +0.034 A 
ATOM      2  C   UNL     1      -2.741   1.489   2.987  0.00  0.00    +0.025 A 
ATOM      3  C   UNL     1      -2.044   1.112   1.855  0.00  0.00    +0.030 A 
ATOM      4  C   UNL     1      -1.005   1.896   1.389  0.00  0.00    +0.106 A 
ATOM      5  C   UNL     1      -0.657   3.057   2.056  0.00  0.00    +0.030 A 
ATOM      6  C   UNL     1      -1.354   3.442   3.184  0.00  0.00    +0.025 A 
ENDROOT
BRANCH   1   9
ATOM      7  C   UNL     1      -3.594   2.104   5.636  0.00  0.00    +0.248 C 
ATOM      8  O   UNL     1      -3.344   0.929   5.446  0.00  0.00    -0.270 OA
ATOM      9  N   UNL     1      -3.102   3.041   4.801  0.00  0.00    -0.282 N 
ATOM     10  H   UNL     1      -3.236   3.982   4.995  0.00  0.00    +0.155 HD
BRANCH   7  13
ATOM     11  C   UNL     1      -5.512   4.224   8.073  0.00  0.00    +0.003 A 
ATOM     12  C   UNL     1      -4.721   3.853   7.005  0.00  0.00    +0.013 A 
ATOM     13  C   UNL     1      -4.437   2.504   6.782  0.00  0.00    +0.039 A 
ATOM     14  C   UNL     1      -4.948   1.536   7.647  0.00  0.00    +0.036 A 
ATOM     15  C   UNL     1      -5.737   1.920   8.720  0.00  0.00    +0.037 A 
ATOM     16  C   UNL     1      -6.018   3.264   8.930  0.00  0.00    +0.023 A 
BRANCH  15  17
ATOM     17  N   UNL     1      -6.252   0.953   9.591  0.00  0.00    -0.271 N 
ATOM     18  C   UNL     1      -7.192   1.237  10.681  0.00  0.00    +0.114 C 
ATOM     19  C   UNL     1      -7.132   0.003  11.609  0.00  0.00    +0.029 C 
ATOM     20  C   UNL     1      -6.675  -1.105  10.632  0.00  0.00    +0.098 C 
ATOM     21  C   UNL     1      -5.953  -0.357   9.533  0.00  0.00    +0.220 C 
ATOM     22  O   UNL     1      -5.210  -0.864   8.719  0.00  0.00    -0.275 OA
ENDBRANCH  15  17
ENDBRANCH   7  13
ENDBRANCH   1   9
BRANCH   4  23
ATOM     23  S   UNL     1      -0.118   1.413  -0.055  0.00  0.00    +0.061 S 
ATOM     24  O   UNL     1      -0.279   0.006  -0.177  0.00  0.00    -0.153 OA
ATOM     25  O   UNL     1       1.159   2.029   0.027  0.00  0.00    -0.153 OA
BRANCH  23  26
ATOM     26  N   UNL     1      -0.889   2.092  -1.354  0.00  0.00    -0.176 NA
ATOM     27  C   UNL     1      -1.963   1.369  -2.049  0.00  0.00    +0.109 C 
ATOM     28  C   UNL     1      -3.204   2.273  -2.104  0.00  0.00    +0.018 C 
ATOM     29  C   UNL     1      -2.826   3.609  -2.749  0.00  0.00    +0.017 C 
ATOM     30  C   UNL     1      -1.761   4.305  -1.899  0.00  0.00    +0.118 C 
ATOM     31  C   UNL     1      -0.508   3.426  -1.837  0.00  0.00    +0.124 C 
BRANCH  30  32
ATOM     32  C   UNL     1      -1.413   5.634  -2.517  0.00  0.00    +0.360 C 
ATOM     33  O   UNL     1      -0.280   5.857  -2.872  0.00  0.00    -0.246 OA
ATOM     34  O   UNL     1      -2.362   6.571  -2.673  0.00  0.00    -0.246 OA
ENDBRANCH  30  32
ENDBRANCH  23  26
ENDBRANCH   4  23
TORSDOF 6
