REMARK  Name = ZINC13079358
REMARK  6 active torsions:
REMARK  status: ('A' for Active; 'I' for Inactive)
REMARK    1  A    between atoms: C_6  and  C_7
REMARK    2  A    between atoms: C_10  and  C_12
REMARK    3  A    between atoms: N_14  and  N_15
REMARK    4  A    between atoms: N_15  and  S_16
REMARK    5  A    between atoms: S_16  and  C_19
REMARK    6  A    between atoms: C_23  and  C_25
REMARK                            x       y       z     vdW  Elec       q    Type
REMARK                         _______ _______ _______ _____ _____    ______ ____
ROOT
ATOM      1  C   UNL     1      -3.226   5.246  -3.041  0.00  0.00    +0.265 C 
ATOM      2  O   UNL     1      -4.064   6.117  -2.895  0.00  0.00    -0.268 OA
ATOM      3  N   UNL     1      -2.052   5.323  -2.383  0.00  0.00    -0.227 N 
ATOM      4  H   UNL     1      -1.385   4.629  -2.499  0.00  0.00    +0.171 HD
ENDROOT
BRANCH   1   8
ATOM      5  C   UNL     1      -3.551   1.880  -5.444  0.00  0.00    +0.020 A 
ATOM      6  C   UNL     1      -4.653   2.720  -5.456  0.00  0.00    +0.017 A 
ATOM      7  C   UNL     1      -4.628   3.849  -4.686  0.00  0.00    +0.021 A 
ATOM      8  C   UNL     1      -3.494   4.115  -3.931  0.00  0.00    +0.076 A 
ATOM      9  S   UNL     1      -2.450   2.719  -4.318  0.00  0.00    -0.084 S 
BRANCH   5  15
ATOM     10  C   UNL     1      -4.340   0.116  -7.016  0.00  0.00    +0.012 A 
ATOM     11  C   UNL     1      -4.138  -1.064  -7.700  0.00  0.00    +0.039 A 
ATOM     12  C   UNL     1      -2.949  -1.760  -7.548  0.00  0.00    +0.123 A 
ATOM     13  C   UNL     1      -1.956  -1.274  -6.713  0.00  0.00    +0.039 A 
ATOM     14  C   UNL     1      -2.146  -0.092  -6.027  0.00  0.00    +0.012 A 
ATOM     15  C   UNL     1      -3.341   0.614  -6.176  0.00  0.00    -0.011 A 
ATOM     16  F   UNL     1      -2.758  -2.919  -8.217  0.00  0.00    -0.205 F 
ENDBRANCH   5  15
ENDBRANCH   1   8
BRANCH   3  17
ATOM     17  N   UNL     1      -1.796   6.405  -1.531  0.00  0.00    -0.108 NA
ATOM     18  H   UNL     1      -1.869   7.313  -1.865  0.00  0.00    +0.172 HD
BRANCH  17  19
ATOM     19  S   UNL     1      -1.368   6.135   0.045  0.00  0.00    +0.074 S 
ATOM     20  O   UNL     1      -2.374   5.299   0.601  0.00  0.00    -0.152 OA
ATOM     21  O   UNL     1      -1.039   7.401   0.600  0.00  0.00    -0.152 OA
BRANCH  19  22
ATOM     22  C   UNL     1       0.119   5.191   0.027  0.00  0.00    +0.108 A 
ATOM     23  C   UNL     1       1.345   5.835   0.020  0.00  0.00    +0.031 A 
ATOM     24  C   UNL     1       2.518   5.103   0.005  0.00  0.00    +0.041 A 
ATOM     25  C   UNL     1       2.474   3.721  -0.002  0.00  0.00    +0.138 A 
ATOM     26  C   UNL     1       1.238   3.065   0.007  0.00  0.00    +0.100 A 
ATOM     27  C   UNL     1       0.059   3.814   0.016  0.00  0.00    +0.046 A 
ATOM     28  F   UNL     1       3.620   3.006  -0.015  0.00  0.00    -0.205 F 
BRANCH  26  29
ATOM     29  C   UNL     1       1.181   1.591  -0.001  0.00  0.00    +0.389 C 
ATOM     30  O   UNL     1       2.209   0.943  -0.014  0.00  0.00    -0.240 OA
ATOM     31  O   UNL     1      -0.011   0.963   0.007  0.00  0.00    -0.240 OA
ENDBRANCH  26  29
ENDBRANCH  19  22
ENDBRANCH  17  19
ENDBRANCH   3  17
TORSDOF 6
