REMARK  Name = ZINC39266348
REMARK  8 active torsions:
REMARK  status: ('A' for Active; 'I' for Inactive)
REMARK    1  A    between atoms: C_4  and  C_7
REMARK    2  A    between atoms: C_7  and  C_8
REMARK    3  A    between atoms: C_7  and  N_14
REMARK    4  A    between atoms: C_15  and  C_17
REMARK    5  A    between atoms: N_22  and  C_23
REMARK    6  A    between atoms: C_23  and  C_24
REMARK    7  A    between atoms: C_28  and  O_30
REMARK    8  A    between atoms: O_30  and  C_31
REMARK                            x       y       z     vdW  Elec       q    Type
REMARK                         _______ _______ _______ _____ _____    ______ ____
ROOT
ATOM      1  C   UNL     1       3.948  -3.029  -3.191  0.00  0.00    +0.020 C 
ATOM      2  C   UNL     1       5.082  -4.044  -2.902  0.00  0.00    -0.008 C 
ATOM      3  C   UNL     1       5.237  -4.783  -4.251  0.00  0.00    -0.020 C 
ATOM      4  C   UNL     1       4.650  -3.825  -5.304  0.00  0.00    -0.077 C 
ATOM      5  N   UNL     1       4.215  -2.604  -4.588  0.00  0.00    +0.390 N 
ATOM      6  H   UNL     1       4.949  -1.912  -4.607  0.00  0.00    -0.080 HD
ENDROOT
BRANCH   1   8
ATOM      7  N   UNL     1       3.869  -2.037  -0.926  0.00  0.00    -0.306 N 
ATOM      8  C   UNL     1       4.034  -1.854  -2.251  0.00  0.00    +0.200 C 
ATOM      9  O   UNL     1       4.252  -0.744  -2.688  0.00  0.00    -0.278 OA
ATOM     10  H   UNL     1       3.695  -2.925  -0.577  0.00  0.00    +0.150 HD
BRANCH   7  11
ATOM     11  C   UNL     1       3.953  -0.894  -0.013  0.00  0.00    +0.133 C 
BRANCH  11  15
ATOM     12  C   UNL     1       0.151   1.044   0.193  0.00  0.00    +0.000 A 
ATOM     13  C   UNL     1       1.310   1.796   0.164  0.00  0.00    +0.000 A 
ATOM     14  C   UNL     1       2.540   1.169   0.097  0.00  0.00    +0.006 A 
ATOM     15  C   UNL     1       2.611  -0.211   0.060  0.00  0.00    -0.023 A 
ATOM     16  C   UNL     1       1.453  -0.964   0.091  0.00  0.00    +0.006 A 
ATOM     17  C   UNL     1       0.222  -0.336   0.156  0.00  0.00    +0.000 A 
ENDBRANCH  11  15
BRANCH  11  18
ATOM     18  C   UNL     1       4.347  -1.376   1.359  0.00  0.00    -0.023 A 
ATOM     19  C   UNL     1       3.819  -2.553   1.857  0.00  0.00    +0.006 A 
ATOM     20  C   UNL     1       4.180  -2.994   3.116  0.00  0.00    +0.000 A 
ATOM     21  C   UNL     1       5.070  -2.260   3.877  0.00  0.00    +0.000 A 
ATOM     22  C   UNL     1       5.599  -1.084   3.379  0.00  0.00    +0.000 A 
ATOM     23  C   UNL     1       5.240  -0.644   2.119  0.00  0.00    +0.006 A 
ENDBRANCH  11  18
ENDBRANCH   7  11
ENDBRANCH   1   8
BRANCH   5  24
ATOM     24  C   UNL     1       2.992  -2.064  -5.196  0.00  0.00    -0.042 C 
BRANCH  24  25
ATOM     25  C   UNL     1       3.308  -1.526  -6.568  0.00  0.00    -0.060 A 
ATOM     26  C   UNL     1       3.695  -0.207  -6.720  0.00  0.00    +0.002 A 
ATOM     27  C   UNL     1       3.986   0.290  -7.976  0.00  0.00    +0.004 A 
ATOM     28  C   UNL     1       3.891  -0.529  -9.084  0.00  0.00    +0.046 A 
ATOM     29  C   UNL     1       3.502  -1.853  -8.935  0.00  0.00    +0.129 A 
ATOM     30  C   UNL     1       3.216  -2.351  -7.671  0.00  0.00    +0.048 A 
BRANCH  29  31
ATOM     31  O   UNL     1       3.407  -2.662 -10.023  0.00  0.00    -0.456 OA
BRANCH  31  32
ATOM     32  C   UNL     1       2.172  -3.094 -10.390  0.00  0.00    +0.128 A 
ATOM     33  C   UNL     1       1.045  -2.606  -9.745  0.00  0.00    +0.046 A 
ATOM     34  C   UNL     1      -0.209  -3.047 -10.121  0.00  0.00    +0.004 A 
ATOM     35  C   UNL     1      -0.341  -3.975 -11.138  0.00  0.00    +0.000 A 
ATOM     36  C   UNL     1       0.781  -4.463 -11.781  0.00  0.00    +0.004 A 
ATOM     37  C   UNL     1       2.037  -4.020 -11.414  0.00  0.00    +0.046 A 
ENDBRANCH  31  32
ENDBRANCH  29  31
ENDBRANCH  24  25
ENDBRANCH   5  24
TORSDOF 8
