REMARK  Name = ZINC29373749
REMARK  10 active torsions:
REMARK  status: ('A' for Active; 'I' for Inactive)
REMARK    1  A    between atoms: C_1  and  C_2
REMARK    2  A    between atoms: C_2  and  N_3
REMARK    3  A    between atoms: N_6  and  C_9
REMARK    4  A    between atoms: C_12  and  N_16
REMARK    5  A    between atoms: C_13  and  C_15
REMARK    6  A    between atoms: C_17  and  C_19
REMARK    7  A    between atoms: C_19  and  N_20
REMARK    8  A    between atoms: C_25  and  C_32
REMARK    9  A    between atoms: C_28  and  C_30
REMARK   10  A    between atoms: C_28  and  C_31
REMARK                            x       y       z     vdW  Elec       q    Type
REMARK                         _______ _______ _______ _____ _____    ______ ____
ROOT
ATOM      1  N   UNL     1      -3.296   5.336  -5.930  0.00  0.00    -0.284 N 
ATOM      2  C   UNL     1      -3.634   4.460  -6.897  0.00  0.00    +0.235 C 
ATOM      3  O   UNL     1      -3.490   3.270  -6.715  0.00  0.00    -0.274 OA
ATOM      4  H   UNL     1      -3.490   6.410  -6.067  0.00  0.00    +0.155 HD
ENDROOT
BRANCH   1   8
ATOM      5  C   UNL     1      -1.512   3.972  -2.415  0.00  0.00    +0.030 A 
ATOM      6  C   UNL     1      -2.468   3.194  -3.056  0.00  0.00    +0.025 A 
ATOM      7  C   UNL     1      -3.058   3.646  -4.219  0.00  0.00    +0.025 A 
ATOM      8  C   UNL     1      -2.696   4.877  -4.748  0.00  0.00    +0.036 A 
ATOM      9  C   UNL     1      -1.742   5.655  -4.107  0.00  0.00    -0.028 A 
ATOM     10  C   UNL     1      -1.155   5.206  -2.941  0.00  0.00    +0.028 A 
ATOM     11  C   UNL     1      -1.351   6.993  -4.681  0.00  0.00    +0.046 C 
BRANCH   5  15
ATOM     12  N   UNL     1      -0.883   2.666   1.482  0.00  0.00    +0.382 N 
ATOM     13  C   UNL     1      -0.706   1.697   0.391  0.00  0.00    -0.060 C 
ATOM     14  C   UNL     1      -1.440   2.196  -0.855  0.00  0.00    +0.086 C 
ATOM     15  N   UNL     1      -0.914   3.515  -1.235  0.00  0.00    -0.333 N 
ATOM     16  C   UNL     1      -1.092   4.484  -0.145  0.00  0.00    +0.086 C 
ATOM     17  C   UNL     1      -0.358   3.985   1.102  0.00  0.00    -0.060 C 
ATOM     18  H   UNL     1      -1.962   2.772   1.671  0.00  0.00    -0.082 HD
BRANCH  12  20
ATOM     19  C   UNL     1      -0.239   3.312   3.755  0.00  0.00    -0.017 C 
ATOM     20  C   UNL     1      -0.255   2.185   2.720  0.00  0.00    -0.082 C 
ENDBRANCH  12  20
ENDBRANCH   5  15
ENDBRANCH   1   8
BRANCH   2  21
ATOM     21  C   UNL     1      -4.190   4.961  -8.205  0.00  0.00    +0.214 C 
BRANCH  21  22
ATOM     22  N   UNL     1      -4.476   3.822  -9.082  0.00  0.00    -0.215 N 
ATOM     23  C   UNL     1      -3.591   3.298  -9.956  0.00  0.00    +0.247 C 
ATOM     24  O   UNL     1      -2.453   3.664 -10.157  0.00  0.00    -0.273 OA
ATOM     25  C   UNL     1      -4.318   2.156 -10.629  0.00  0.00    +0.113 C 
ATOM     26  C   UNL     1      -3.614   0.833 -10.351  0.00  0.00    +0.038 C 
ATOM     27  C   UNL     1      -4.388  -0.308 -11.016  0.00  0.00    -0.011 C 
ATOM     28  C   UNL     1      -4.466  -0.059 -12.523  0.00  0.00    +0.009 C 
ATOM     29  C   UNL     1      -5.194   1.261 -12.787  0.00  0.00    -0.032 C 
ATOM     30  C   UNL     1      -4.423   2.408 -12.129  0.00  0.00    +0.041 C 
ATOM     31  C   UNL     1      -6.605   1.191 -12.200  0.00  0.00    +0.011 C 
ATOM     32  C   UNL     1      -5.280   1.503 -14.296  0.00  0.00    +0.011 C 
ATOM     33  C   UNL     1      -3.668  -1.633 -10.754  0.00  0.00    +0.007 C 
ATOM     34  N   UNL     1      -5.651   2.169 -10.012  0.00  0.00    -0.285 N 
ATOM     35  C   UNL     1      -5.648   3.178  -9.120  0.00  0.00    +0.310 C 
ATOM     36  O   UNL     1      -6.603   3.470  -8.427  0.00  0.00    -0.252 OA
ATOM     37  H   UNL     1      -6.407   1.431 -10.320  0.00  0.00    +0.151 HD
ENDBRANCH  21  22
ENDBRANCH   2  21
TORSDOF 5
