REMARK  Name = ZINC05649579
REMARK  2 active torsions:
REMARK  status: ('A' for Active; 'I' for Inactive)
REMARK    1  A    between atoms: C_6  and  C_7
REMARK    2  A    between atoms: C_10  and  C_12
REMARK                            x       y       z     vdW  Elec       q    Type
REMARK                         _______ _______ _______ _____ _____    ______ ____
ROOT
ATOM      1  C   UNL     1       0.058   0.005  -0.486  0.00  0.00    +0.136 A 
ATOM      2  C   UNL     1       1.331  -0.422  -0.177  0.00  0.00    +0.050 A 
ATOM      3  C   UNL     1       2.101   0.721   0.050  0.00  0.00    +0.050 A 
ATOM      4  C   UNL     1       1.265   1.809  -0.129  0.00  0.00    +0.130 A 
ATOM      5  O   UNL     1       0.038   1.350  -0.452  0.00  0.00    -0.455 OA
ENDROOT
BRANCH   4   6
ATOM      6  C   UNL     1       1.632   3.165   0.003  0.00  0.00    +0.066 C 
ATOM      7  C   UNL     1       0.682   4.141  -0.086  0.00  0.00    +0.082 C 
ATOM      8  C   UNL     1      -0.791   4.030  -0.100  0.00  0.00    +0.276 C 
ATOM      9  O   UNL     1      -1.355   2.949  -0.025  0.00  0.00    -0.267 OA
ATOM     10  N   UNL     1      -1.462   5.157  -0.192  0.00  0.00    -0.155 NA
ATOM     11  C   UNL     1      -0.864   6.334  -0.280  0.00  0.00    +0.149 C 
ATOM     12  S   UNL     1       0.872   5.914  -0.226  0.00  0.00    -0.052 S 
ATOM     13  N   UNL     1      -1.436   7.575  -0.386  0.00  0.00    -0.339 N 
ATOM     14  H   UNL     1      -0.876   8.365  -0.442  0.00  0.00    +0.144 HD
ATOM     15  H   UNL     1      -2.402   7.664  -0.404  0.00  0.00    +0.144 HD
ENDBRANCH   4   6
BRANCH   1  21
ATOM     16  C   UNL     1      -0.935  -2.255  -0.809  0.00  0.00    +0.012 A 
ATOM     17  C   UNL     1      -2.014  -3.064  -1.099  0.00  0.00    +0.016 A 
ATOM     18  C   UNL     1      -3.245  -2.502  -1.393  0.00  0.00    +0.018 A 
ATOM     19  C   UNL     1      -3.404  -1.127  -1.393  0.00  0.00    +0.016 A 
ATOM     20  C   UNL     1      -2.335  -0.306  -1.099  0.00  0.00    +0.012 A 
ATOM     21  C   UNL     1      -1.090  -0.866  -0.801  0.00  0.00    +0.017 A 
ATOM     22 BR   UNL     1      -4.717  -3.619  -1.797  0.00  0.00    -0.050 Br
ENDBRANCH   1  21
TORSDOF 2
