REMARK  Name = ZINC48488365
REMARK  5 active torsions:
REMARK  status: ('A' for Active; 'I' for Inactive)
REMARK    1  A    between atoms: C_1  and  C_2
REMARK    2  A    between atoms: C_6  and  C_21
REMARK    3  A    between atoms: C_7  and  N_8
REMARK    4  A    between atoms: N_11  and  C_12
REMARK    5  A    between atoms: C_18  and  C_20
REMARK                            x       y       z     vdW  Elec       q    Type
REMARK                         _______ _______ _______ _____ _____    ______ ____
ROOT
ATOM      1  N   UNL     1      -0.198  -0.036   2.420  0.00  0.00    -0.269 N 
ATOM      2  C   UNL     1      -0.388  -0.725   3.562  0.00  0.00    +0.304 C 
ATOM      3  O   UNL     1      -0.554  -1.929   3.525  0.00  0.00    -0.253 OA
ATOM      4  N   UNL     1      -0.393  -0.080   4.746  0.00  0.00    -0.296 N 
ATOM      5  H   UNL     1      -0.118   0.931   2.444  0.00  0.00    +0.156 HD
ATOM      6  H   UNL     1      -0.260   0.880   4.775  0.00  0.00    +0.151 HD
ENDROOT
BRANCH   1  13
ATOM      7  C   UNL     1       1.703  -2.138   2.174  0.00  0.00    +0.046 C 
ATOM      8  C   UNL     1       0.797  -1.747   1.036  0.00  0.00    -0.028 A 
ATOM      9  C   UNL     1       0.872  -2.418  -0.169  0.00  0.00    +0.020 A 
ATOM     10  C   UNL     1       0.040  -2.059  -1.215  0.00  0.00    +0.018 A 
ATOM     11  C   UNL     1      -0.867  -1.026  -1.058  0.00  0.00    +0.020 A 
ATOM     12  C   UNL     1      -0.946  -0.351   0.145  0.00  0.00    -0.028 A 
ATOM     13  C   UNL     1      -0.117  -0.714   1.198  0.00  0.00    +0.041 A 
ATOM     14  C   UNL     1      -1.933   0.774   0.315  0.00  0.00    +0.046 C 
ATOM     15 BR   UNL     1       0.145  -2.980  -2.863  0.00  0.00    -0.050 Br
ENDBRANCH   1  13
BRANCH   4  16
ATOM     16  C   UNL     1      -0.599  -0.830   5.987  0.00  0.00    +0.077 C 
ATOM     17  C   UNL     1      -2.099  -0.998   6.239  0.00  0.00    +0.022 C 
ATOM     18  C   UNL     1      -2.314  -1.781   7.536  0.00  0.00    +0.002 C 
ATOM     19  C   UNL     1      -1.684  -1.018   8.703  0.00  0.00    +0.000 C 
ATOM     20  C   UNL     1      -0.184  -0.850   8.451  0.00  0.00    +0.005 C 
ATOM     21  C   UNL     1       0.031  -0.067   7.154  0.00  0.00    +0.006 C 
ATOM     22  C   UNL     1       1.531   0.101   6.903  0.00  0.00    +0.009 C 
ENDBRANCH   4  16
TORSDOF 2
