REMARK  Name = ZINC66859927
REMARK  3 active torsions:
REMARK  status: ('A' for Active; 'I' for Inactive)
REMARK    1  A    between atoms: C_10  and  C_11
REMARK    2  A    between atoms: C_10  and  O_23
REMARK    3  A    between atoms: C_11  and  N_12
REMARK                            x       y       z     vdW  Elec       q    Type
REMARK                         _______ _______ _______ _____ _____    ______ ____
ROOT
ATOM      1  C   UNL     1       4.689   0.049   0.901  0.00  0.00    +0.142 C 
ENDROOT
BRANCH   1   2
ATOM      2  N   UNL     1       5.959  -0.679   0.968  0.00  0.00    -0.325 N 
ATOM      3  C   UNL     1       6.944  -0.271   1.849  0.00  0.00    +0.131 A 
ATOM      4  C   UNL     1       8.169  -0.951   1.925  0.00  0.00    +0.058 A 
ATOM      5  C   UNL     1       8.755  -2.106   1.248  0.00  0.00    +0.032 A 
ATOM      6  C   UNL     1       9.984  -2.276   1.763  0.00  0.00    +0.085 A 
ATOM      7  N   UNL     1      10.225  -1.319   2.714  0.00  0.00    -0.346 N 
ATOM      8  H   UNL     1      11.045  -1.237   3.225  0.00  0.00    +0.167 HD
ATOM      9  C   UNL     1       9.139  -0.496   2.837  0.00  0.00    +0.143 A 
ATOM     10  N   UNL     1       8.854   0.563   3.594  0.00  0.00    -0.218 NA
ATOM     11  C   UNL     1       7.692   1.170   3.490  0.00  0.00    +0.225 A 
ATOM     12  N   UNL     1       6.756   0.780   2.643  0.00  0.00    -0.220 NA
ATOM     13  H   UNL     1       6.109  -1.447   0.395  0.00  0.00    +0.148 HD
ENDBRANCH   1   2
BRANCH   1  23
ATOM     14  C   UNL     1       0.009   1.424  -0.051  0.00  0.00    +0.000 A 
ATOM     15  C   UNL     1       1.211   2.108  -0.069  0.00  0.00    +0.000 A 
ATOM     16  C   UNL     1       2.398   1.407  -0.063  0.00  0.00    +0.007 A 
ATOM     17  C   UNL     1       2.398   0.018  -0.037  0.00  0.00    -0.011 A 
ATOM     18  C   UNL     1       1.202  -0.663  -0.014  0.00  0.00    -0.041 A 
ATOM     19  C   UNL     1       0.007   0.045  -0.024  0.00  0.00    +0.004 A 
ATOM     20  C   UNL     1       1.126  -2.167   0.031  0.00  0.00    +0.035 C 
ATOM     21  C   UNL     1       2.456  -2.785  -0.392  0.00  0.00    +0.008 C 
ATOM     22  C   UNL     1       3.576  -2.131   0.425  0.00  0.00    +0.041 C 
ATOM     23  C   UNL     1       3.731  -0.684  -0.040  0.00  0.00    +0.107 C 
BRANCH  23  24
ATOM     24  O   UNL     1       4.268  -0.670  -1.364  0.00  0.00    -0.382 OA
ATOM     25  H   UNL     1       4.410   0.217  -1.721  0.00  0.00    +0.211 HD
ENDBRANCH  23  24
ENDBRANCH   1  23
TORSDOF 3
