REMARK  Name = ZINC14275800
REMARK  9 active torsions:
REMARK  status: ('A' for Active; 'I' for Inactive)
REMARK    1  A    between atoms: C_1  and  C_2
REMARK    2  A    between atoms: C_7  and  N_8
REMARK    3  A    between atoms: N_8  and  C_9
REMARK    4  A    between atoms: C_9  and  N_11
REMARK    5  A    between atoms: C_12  and  C_14
REMARK    6  A    between atoms: N_23  and  C_25
REMARK    7  A    between atoms: C_28  and  C_31
REMARK    8  A    between atoms: C_31  and  C_32
REMARK    9  A    between atoms: C_31  and  C_33
REMARK                            x       y       z     vdW  Elec       q    Type
REMARK                         _______ _______ _______ _____ _____    ______ ____
ROOT
ATOM      1  C   UNL     1      -4.346   5.970   9.339  0.00  0.00    +0.046 C 
ATOM      2  C   UNL     1      -4.246   4.919   8.263  0.00  0.00    -0.027 A 
ATOM      3  C   UNL     1      -3.586   5.210   7.113  0.00  0.00    +0.037 A 
ATOM      4  C   UNL     1      -3.488   4.236   6.103  0.00  0.00    +0.114 A 
ATOM      5  C   UNL     1      -4.109   2.921   6.322  0.00  0.00    +0.115 A 
ATOM      6  C   UNL     1      -4.778   2.680   7.534  0.00  0.00    +0.055 A 
ATOM      7  C   UNL     1      -4.838   3.667   8.475  0.00  0.00    +0.038 A 
ATOM      8  N   UNL     1      -3.852   2.239   5.217  0.00  0.00    -0.147 NA
ATOM      9  N   UNL     1      -3.177   2.986   4.414  0.00  0.00    -0.149 N 
ATOM     10  N   UNL     1      -2.942   4.155   4.900  0.00  0.00    -0.147 NA
ENDROOT
BRANCH   9  11
ATOM     11  C   UNL     1      -2.741   2.570   3.150  0.00  0.00    +0.086 A 
ATOM     12  C   UNL     1      -3.031   1.288   2.701  0.00  0.00    +0.030 A 
ATOM     13  C   UNL     1      -2.599   0.881   1.454  0.00  0.00    +0.006 A 
ATOM     14  C   UNL     1      -1.879   1.748   0.653  0.00  0.00    -0.045 A 
ATOM     15  C   UNL     1      -1.583   3.023   1.099  0.00  0.00    +0.006 A 
ATOM     16  C   UNL     1      -2.017   3.438   2.344  0.00  0.00    +0.030 A 
BRANCH  14  17
ATOM     17  C   UNL     1      -1.410   1.301  -0.708  0.00  0.00    +0.013 C 
ATOM     18  C   UNL     1       0.117   1.377  -0.771  0.00  0.00    +0.012 C 
ATOM     19  C   UNL     1      -2.011   2.212  -1.780  0.00  0.00    +0.012 C 
ENDBRANCH  14  17
ENDBRANCH   9  11
BRANCH   7  20
ATOM     20  N   UNL     1      -5.506   3.422   9.679  0.00  0.00    -0.296 N 
ATOM     21  H   UNL     1      -6.117   4.084  10.038  0.00  0.00    +0.154 HD
BRANCH  20  22
ATOM     22  C   UNL     1      -5.301   2.266  10.341  0.00  0.00    +0.141 C 
ATOM     23  S   UNL     1      -4.119   1.159   9.784  0.00  0.00    -0.018 S 
BRANCH  22  24
ATOM     24  N   UNL     1      -6.025   1.982  11.442  0.00  0.00    -0.264 N 
ATOM     25  C   UNL     1      -5.819   0.826  12.103  0.00  0.00    +0.251 C 
ATOM     26  O   UNL     1      -4.980   0.040  11.708  0.00  0.00    -0.270 OA
ATOM     27  H   UNL     1      -6.694   2.609  11.757  0.00  0.00    +0.157 HD
BRANCH  25  28
ATOM     28  C   UNL     1      -6.612   0.514  13.309  0.00  0.00    +0.055 A 
ATOM     29  C   UNL     1      -7.577   1.415  13.766  0.00  0.00    +0.016 A 
ATOM     30  C   UNL     1      -8.314   1.118  14.892  0.00  0.00    +0.021 A 
ATOM     31  C   UNL     1      -8.101  -0.071  15.571  0.00  0.00    +0.042 A 
ATOM     32  C   UNL     1      -7.147  -0.969  15.124  0.00  0.00    +0.040 A 
ATOM     33  C   UNL     1      -6.405  -0.687  13.994  0.00  0.00    +0.054 A 
ATOM     34 CL   UNL     1      -5.214  -1.817  13.430  0.00  0.00    -0.083 Cl
ATOM     35 CL   UNL     1      -9.035  -0.437  16.988  0.00  0.00    -0.083 Cl
ENDBRANCH  25  28
ENDBRANCH  22  24
ENDBRANCH  20  22
ENDBRANCH   7  20
TORSDOF 6
