REMARK  Name = ZINC49546823
REMARK  9 active torsions:
REMARK  status: ('A' for Active; 'I' for Inactive)
REMARK    1  A    between atoms: C_1  and  O_2
REMARK    2  A    between atoms: O_2  and  C_3
REMARK    3  A    between atoms: C_6  and  C_13
REMARK    4  A    between atoms: C_7  and  O_11
REMARK    5  A    between atoms: C_8  and  O_9
REMARK    6  A    between atoms: O_9  and  C_10
REMARK    7  A    between atoms: O_11  and  C_12
REMARK    8  A    between atoms: N_21  and  C_27
REMARK    9  A    between atoms: C_23  and  C_24
REMARK                            x       y       z     vdW  Elec       q    Type
REMARK                         _______ _______ _______ _____ _____    ______ ____
ROOT
ATOM      1  C   UNL     1      -4.943  -2.660   0.127  0.00  0.00    +0.080 C 
ATOM      2  C   UNL     1      -5.681  -2.370   1.437  0.00  0.00    +0.110 C 
ATOM      3  C   UNL     1      -6.205  -0.963   1.475  0.00  0.00    +0.218 C 
ATOM      4  O   UNL     1      -6.195  -0.360   2.527  0.00  0.00    -0.275 OA
ATOM      5  N   UNL     1      -6.686  -0.349   0.371  0.00  0.00    -0.283 N 
ATOM      6  C   UNL     1      -6.559  -1.015  -0.855  0.00  0.00    +0.070 A 
ATOM      7  C   UNL     1      -5.753  -2.102  -1.017  0.00  0.00    +0.054 A 
ATOM      8  N   UNL     1      -5.836  -2.527  -2.308  0.00  0.00    -0.317 N 
ATOM      9  C   UNL     1      -6.684  -1.744  -3.007  0.00  0.00    +0.108 A 
ATOM     10  C   UNL     1      -7.183  -0.760  -2.148  0.00  0.00    +0.102 A 
ATOM     11  H   UNL     1      -7.106   0.524   0.425  0.00  0.00    +0.155 HD
ENDROOT
BRANCH   8  12
ATOM     12  C   UNL     1      -5.139  -3.623  -2.836  0.00  0.00    +0.046 A 
ATOM     13  C   UNL     1      -3.753  -3.671  -2.753  0.00  0.00    +0.027 A 
ATOM     14  C   UNL     1      -3.069  -4.752  -3.273  0.00  0.00    +0.022 A 
ATOM     15  C   UNL     1      -3.763  -5.786  -3.877  0.00  0.00    +0.041 A 
ATOM     16  C   UNL     1      -5.143  -5.740  -3.961  0.00  0.00    +0.022 A 
ATOM     17  C   UNL     1      -5.833  -4.664  -3.437  0.00  0.00    +0.027 A 
ATOM     18 CL   UNL     1      -2.899  -7.143  -4.531  0.00  0.00    -0.084 Cl
ENDBRANCH   8  12
BRANCH   1  22
ATOM     19  C   UNL     1      -1.093  -0.794   0.203  0.00  0.00    +0.165 A 
ATOM     20  C   UNL     1      -2.210  -0.074  -0.192  0.00  0.00    +0.050 A 
ATOM     21  C   UNL     1      -3.452  -0.680  -0.216  0.00  0.00    +0.012 A 
ATOM     22  C   UNL     1      -3.586  -2.005   0.154  0.00  0.00    +0.007 A 
ATOM     23  C   UNL     1      -2.474  -2.732   0.550  0.00  0.00    +0.169 A 
ATOM     24  C   UNL     1      -1.222  -2.128   0.569  0.00  0.00    +0.204 A 
BRANCH  19  26
ATOM     25  C   UNL     1       0.187   1.176  -0.163  0.00  0.00    +0.277 C 
ATOM     26  O   UNL     1       0.129  -0.197   0.226  0.00  0.00    -0.491 OA
ENDBRANCH  19  26
BRANCH  24  27
ATOM     27  O   UNL     1      -0.127  -2.840   0.952  0.00  0.00    -0.488 OA
ATOM     28  C   UNL     1       0.200  -2.829   2.343  0.00  0.00    +0.277 C 
ENDBRANCH  24  27
BRANCH  23  29
ATOM     29  O   UNL     1      -2.607  -4.036   0.914  0.00  0.00    -0.491 OA
ATOM     30  C   UNL     1      -2.333  -5.020  -0.085  0.00  0.00    +0.277 C 
ENDBRANCH  23  29
ENDBRANCH   1  22
BRANCH  10  31
ATOM     31  C   UNL     1      -8.135   0.305  -2.476  0.00  0.00    +0.390 C 
ATOM     32  O   UNL     1      -8.580   0.399  -3.613  0.00  0.00    -0.240 OA
ATOM     33  O   UNL     1      -8.485   1.101  -1.614  0.00  0.00    -0.240 OA
ENDBRANCH  10  31
TORSDOF 6
