REMARK  Name = ZINC33063269
REMARK  3 active torsions:
REMARK  status: ('A' for Active; 'I' for Inactive)
REMARK    1  A    between atoms: C_8  and  C_14
REMARK    2  A    between atoms: C_17  and  C_20
REMARK    3  A    between atoms: N_25  and  C_28
REMARK                            x       y       z     vdW  Elec       q    Type
REMARK                         _______ _______ _______ _____ _____    ______ ____
ROOT
ATOM      1  C   UNL     1       2.325   4.316  -1.907  0.00  0.00    -0.011 A 
ATOM      2  C   UNL     1       3.052   5.267  -2.601  0.00  0.00    +0.007 A 
ATOM      3  C   UNL     1       3.175   5.180  -3.972  0.00  0.00    +0.013 A 
ATOM      4  C   UNL     1       2.556   4.136  -4.661  0.00  0.00    +0.037 A 
ATOM      5  C   UNL     1       1.820   3.182  -3.955  0.00  0.00    +0.013 A 
ATOM      6  C   UNL     1       1.709   3.278  -2.583  0.00  0.00    +0.007 A 
ENDROOT
BRANCH   1  14
ATOM      7  C   UNL     1       3.767  -0.157   0.375  0.00  0.00    +0.002 A 
ATOM      8  C   UNL     1       5.094   0.225   0.314  0.00  0.00    +0.002 A 
ATOM      9  C   UNL     1       5.420   1.563   0.180  0.00  0.00    +0.030 A 
ATOM     10  C   UNL     1       4.422   2.512   0.109  0.00  0.00    +0.126 A 
ATOM     11  C   UNL     1       3.087   2.141   0.184  0.00  0.00    +0.055 A 
ATOM     12  C   UNL     1       2.766   0.790   0.311  0.00  0.00    +0.025 A 
ATOM     13  N   UNL     1       2.055   3.076   0.160  0.00  0.00    -0.322 N 
ATOM     14  C   UNL     1       2.199   4.414  -0.408  0.00  0.00    +0.191 C 
ATOM     15  N   UNL     1       3.413   5.040   0.154  0.00  0.00    -0.166 NA
ATOM     16  S   UNL     1       4.842   4.217  -0.098  0.00  0.00    +0.062 S 
ATOM     17  O   UNL     1       5.714   4.562   0.969  0.00  0.00    -0.153 OA
ATOM     18  O   UNL     1       5.188   4.396  -1.464  0.00  0.00    -0.153 OA
ATOM     19  H   UNL     1       1.095   2.764   0.597  0.00  0.00    +0.148 HD
ATOM     20  H   UNL     1       3.369   6.064   0.553  0.00  0.00    +0.150 HD
ENDBRANCH   1  14
BRANCH   4  21
ATOM     21  C   UNL     1       2.679   4.040  -6.131  0.00  0.00    +0.247 C 
ATOM     22  O   UNL     1       1.717   3.720  -6.801  0.00  0.00    -0.270 OA
ATOM     23  N   UNL     1       3.857   4.308  -6.728  0.00  0.00    -0.295 N 
ATOM     24  C   UNL     1       5.063   4.577  -5.930  0.00  0.00    +0.127 C 
ATOM     25  C   UNL     1       6.192   3.667  -6.439  0.00  0.00    +0.124 C 
ATOM     26  N   UNL     1       6.351   3.856  -7.887  0.00  0.00    -0.327 N 
ATOM     27  C   UNL     1       5.141   3.448  -8.614  0.00  0.00    +0.124 C 
ATOM     28  C   UNL     1       3.970   4.344  -8.194  0.00  0.00    +0.127 C 
BRANCH  26  29
ATOM     29  C   UNL     1       7.473   3.172  -8.361  0.00  0.00    +0.030 A 
ATOM     30  C   UNL     1       7.342   2.245  -9.387  0.00  0.00    +0.024 A 
ATOM     31  C   UNL     1       8.454   1.575  -9.858  0.00  0.00    +0.022 A 
ATOM     32  C   UNL     1       9.697   1.819  -9.300  0.00  0.00    +0.041 A 
ATOM     33  C   UNL     1       9.831   2.738  -8.275  0.00  0.00    +0.022 A 
ATOM     34  C   UNL     1       8.722   3.415  -7.804  0.00  0.00    +0.024 A 
ATOM     35 CL   UNL     1      11.092   0.970  -9.890  0.00  0.00    -0.084 Cl
ENDBRANCH  26  29
ENDBRANCH   4  21
TORSDOF 3
