REMARK  Name = ZINC11278175
REMARK  7 active torsions:
REMARK  status: ('A' for Active; 'I' for Inactive)
REMARK    1  A    between atoms: C_1  and  C_2
REMARK    2  A    between atoms: C_4  and  C_33
REMARK    3  A    between atoms: C_5  and  N_9
REMARK    4  A    between atoms: C_13  and  S_15
REMARK    5  A    between atoms: S_15  and  C_16
REMARK    6  A    between atoms: C_16  and  C_17
REMARK    7  A    between atoms: C_21  and  C_30
REMARK                            x       y       z     vdW  Elec       q    Type
REMARK                         _______ _______ _______ _____ _____    ______ ____
ROOT
ATOM      1  C   UNL     1       1.315   2.761   4.103  0.00  0.00    +0.172 C 
ENDROOT
BRANCH   1   2
ATOM      2  C   UNL     1       1.591   1.411   4.713  0.00  0.00    +0.230 C 
ATOM      3  O   UNL     1       2.466   0.706   4.256  0.00  0.00    -0.274 OA
ATOM      4  N   UNL     1       0.865   0.987   5.766  0.00  0.00    -0.264 N 
ATOM      5  C   UNL     1      -0.283   1.765   6.264  0.00  0.00    +0.168 C 
ATOM      6  C   UNL     1      -1.410   0.774   6.588  0.00  0.00    +0.276 C 
ATOM      7  O   UNL     1      -0.934  -0.165   7.555  0.00  0.00    -0.476 OA
ATOM      8  C   UNL     1       0.259  -0.770   7.316  0.00  0.00    +0.143 A 
ATOM      9  C   UNL     1       1.173  -0.216   6.425  0.00  0.00    +0.078 A 
ATOM     10  C   UNL     1       2.391  -0.839   6.198  0.00  0.00    +0.027 A 
ATOM     11  C   UNL     1       2.692  -2.021   6.851  0.00  0.00    +0.002 A 
ATOM     12  C   UNL     1       1.782  -2.577   7.730  0.00  0.00    +0.004 A 
ATOM     13  C   UNL     1       0.569  -1.957   7.964  0.00  0.00    +0.047 A 
BRANCH   6  14
ATOM     14  C   UNL     1      -2.593   1.520   7.148  0.00  0.00    +0.253 C 
ATOM     15  O   UNL     1      -2.943   1.329   8.293  0.00  0.00    -0.272 OA
ATOM     16  N   UNL     1      -3.263   2.399   6.376  0.00  0.00    -0.326 N 
ATOM     17  H   UNL     1      -2.982   2.551   5.460  0.00  0.00    +0.145 HD
ATOM     18  H   UNL     1      -4.024   2.879   6.736  0.00  0.00    +0.145 HD
ENDBRANCH   6  14
ENDBRANCH   1   2
BRANCH   1  19
ATOM     19  S   UNL     1       2.554   3.110   2.825  0.00  0.00    -0.088 S 
BRANCH  19  24
ATOM     20  N   UNL     1       1.769   8.257   0.273  0.00  0.00    -0.291 N 
ATOM     21  C   UNL     1       1.760   7.082   1.016  0.00  0.00    +0.187 A 
ATOM     22  N   UNL     1       0.928   6.701   1.966  0.00  0.00    -0.125 NA
ATOM     23  N   UNL     1       1.102   5.482   2.580  0.00  0.00    -0.133 NA
ATOM     24  C   UNL     1       2.101   4.700   2.216  0.00  0.00    +0.160 A 
ATOM     25  S   UNL     1       2.875   5.689   0.945  0.00  0.00    -0.024 S 
ATOM     26  H   UNL     1       2.494   8.433  -0.347  0.00  0.00    +0.154 HD
BRANCH  20  31
ATOM     27  C   UNL     1      -2.430  12.024   0.867  0.00  0.00    +0.044 C 
ATOM     28  C   UNL     1      -1.315  11.023   0.709  0.00  0.00    -0.049 A 
ATOM     29  C   UNL     1      -0.017  11.381   1.025  0.00  0.00    +0.008 A 
ATOM     30  C   UNL     1       1.008  10.466   0.882  0.00  0.00    -0.028 A 
ATOM     31  C   UNL     1       0.734   9.185   0.420  0.00  0.00    +0.054 A 
ATOM     32  C   UNL     1      -0.571   8.830   0.098  0.00  0.00    +0.063 A 
ATOM     33  C   UNL     1      -1.592   9.749   0.249  0.00  0.00    +0.025 A 
ATOM     34 CL   UNL     1      -0.918   7.233  -0.486  0.00  0.00    -0.082 Cl
ATOM     35  C   UNL     1       2.422  10.858   1.227  0.00  0.00    +0.046 C 
ENDBRANCH  20  31
ENDBRANCH  19  24
ENDBRANCH   1  19
TORSDOF 5
