REMARK  Name = ZINC10021522
REMARK  6 active torsions:
REMARK  status: ('A' for Active; 'I' for Inactive)
REMARK    1  A    between atoms: C_3  and  N_18
REMARK    2  A    between atoms: C_5  and  S_7
REMARK    3  A    between atoms: S_7  and  N_10
REMARK    4  A    between atoms: C_19  and  C_21
REMARK    5  A    between atoms: C_21  and  N_22
REMARK    6  A    between atoms: C_23  and  C_25
REMARK                            x       y       z     vdW  Elec       q    Type
REMARK                         _______ _______ _______ _____ _____    ______ ____
ROOT
ATOM      1  C   UNL     1       4.242   5.947   3.945  0.00  0.00    +0.004 A 
ATOM      2  C   UNL     1       3.964   7.266   4.244  0.00  0.00    +0.023 A 
ATOM      3  C   UNL     1       2.710   7.791   3.960  0.00  0.00    +0.035 A 
ATOM      4  C   UNL     1       1.739   6.986   3.377  0.00  0.00    +0.052 A 
ATOM      5  C   UNL     1       2.024   5.668   3.081  0.00  0.00    +0.114 A 
ATOM      6  C   UNL     1       3.273   5.147   3.369  0.00  0.00    +0.029 A 
ENDROOT
BRANCH   3   7
ATOM      7  N   UNL     1       2.424   9.127   4.262  0.00  0.00    -0.284 N 
ATOM      8  C   UNL     1       1.179   9.482   4.638  0.00  0.00    +0.234 C 
ATOM      9  O   UNL     1       0.331   8.631   4.806  0.00  0.00    -0.274 OA
ATOM     10  H   UNL     1       3.122   9.798   4.201  0.00  0.00    +0.155 HD
BRANCH   8  11
ATOM     11  C   UNL     1       0.841  10.935   4.848  0.00  0.00    +0.200 C 
BRANCH  11  12
ATOM     12  N   UNL     1      -0.563  11.057   5.249  0.00  0.00    -0.300 N 
ATOM     13  C   UNL     1      -1.091  12.273   5.493  0.00  0.00    +0.280 C 
ATOM     14  O   UNL     1      -0.402  13.269   5.380  0.00  0.00    -0.267 OA
ATOM     15  H   UNL     1      -1.112  10.262   5.339  0.00  0.00    +0.150 HD
BRANCH  13  16
ATOM     16  C   UNL     1      -2.496  12.394   5.894  0.00  0.00    +0.191 A 
ATOM     17  C   UNL     1      -3.152  13.559   6.175  0.00  0.00    +0.056 A 
ATOM     18  C   UNL     1      -4.469  13.210   6.510  0.00  0.00    +0.058 A 
ATOM     19  C   UNL     1      -4.556  11.862   6.427  0.00  0.00    +0.171 A 
ATOM     20  O   UNL     1      -3.365  11.375   6.056  0.00  0.00    -0.444 OA
ATOM     21 BR   UNL     1      -6.106  10.835   6.777  0.00  0.00    -0.008 Br
ENDBRANCH  13  16
ENDBRANCH  11  12
ENDBRANCH   8  11
ENDBRANCH   3   7
BRANCH   5  22
ATOM     22  S   UNL     1       0.794   4.646   2.342  0.00  0.00    +0.100 S 
ATOM     23  O   UNL     1      -0.464   5.216   2.679  0.00  0.00    -0.146 OA
ATOM     24  O   UNL     1       1.133   3.304   2.664  0.00  0.00    -0.146 OA
BRANCH  22  25
ATOM     25  N   UNL     1       0.956   4.794   0.700  0.00  0.00    -0.118 NA
ATOM     26  C   UNL     1       0.167   4.141  -0.089  0.00  0.00    +0.117 C 
ATOM     27  C   UNL     1      -0.890   3.255   0.445  0.00  0.00    +0.073 C 
ATOM     28  C   UNL     1      -0.490   1.782   0.628  0.00  0.00    +0.008 C 
ATOM     29  C   UNL     1       0.366   1.313  -0.576  0.00  0.00    +0.002 C 
ATOM     30  C   UNL     1      -0.139   1.861  -1.883  0.00  0.00    +0.019 C 
ATOM     31  C   UNL     1       0.705   3.105  -2.184  0.00  0.00    +0.102 C 
ATOM     32  N   UNL     1       0.281   4.247  -1.484  0.00  0.00    -0.331 N 
ATOM     33  H   UNL     1       0.077   5.075  -1.946  0.00  0.00    +0.147 HD
ENDBRANCH  22  25
ENDBRANCH   5  22
TORSDOF 6
