REMARK  Name = ZINC20058658
REMARK  7 active torsions:
REMARK  status: ('A' for Active; 'I' for Inactive)
REMARK    1  A    between atoms: C_1  and  C_2
REMARK    2  A    between atoms: C_5  and  C_8
REMARK    3  A    between atoms: N_10  and  C_11
REMARK    4  A    between atoms: C_11  and  N_13
REMARK    5  A    between atoms: N_13  and  C_14
REMARK    6  A    between atoms: C_17  and  C_20
REMARK    7  A    between atoms: N_22  and  C_23
REMARK                            x       y       z     vdW  Elec       q    Type
REMARK                         _______ _______ _______ _____ _____    ______ ____
ROOT
ATOM      1  C   UNL     1       3.571  -6.202  -0.009  0.00  0.00    +0.033 A 
ATOM      2  C   UNL     1       2.335  -6.842  -0.022  0.00  0.00    +0.024 A 
ATOM      3  C   UNL     1       2.269  -8.216   0.021  0.00  0.00    +0.015 A 
ATOM      4  C   UNL     1       3.445  -8.969   0.087  0.00  0.00    +0.037 A 
ATOM      5  C   UNL     1       4.685  -8.323   0.105  0.00  0.00    +0.015 A 
ATOM      6  C   UNL     1       4.744  -6.949   0.057  0.00  0.00    +0.024 A 
ENDROOT
BRANCH   4   7
ATOM      7  C   UNL     1       3.378 -10.442   0.140  0.00  0.00    +0.244 C 
ATOM      8  O   UNL     1       4.402 -11.095   0.198  0.00  0.00    -0.270 OA
ATOM      9  N   UNL     1       2.182 -11.063   0.122  0.00  0.00    -0.308 N 
ATOM     10  H   UNL     1       1.256 -10.472   0.070  0.00  0.00    +0.149 HD
BRANCH   9  11
ATOM     11  C   UNL     1       2.116 -12.526   0.174  0.00  0.00    +0.073 C 
ATOM     12  C   UNL     1       2.266 -13.093  -1.239  0.00  0.00    +0.022 C 
ATOM     13  C   UNL     1       2.196 -14.621  -1.185  0.00  0.00    +0.002 C 
ATOM     14  C   UNL     1       0.848 -15.050  -0.604  0.00  0.00    +0.000 C 
ATOM     15  C   UNL     1       0.697 -14.482   0.809  0.00  0.00    +0.002 C 
ATOM     16  C   UNL     1       0.767 -12.955   0.755  0.00  0.00    +0.022 C 
ENDBRANCH   9  11
ENDBRANCH   4   7
BRANCH   1  17
ATOM     17  N   UNL     1       3.635  -4.811  -0.058  0.00  0.00    -0.297 N 
ATOM     18  H   UNL     1       4.346  -4.270   0.584  0.00  0.00    +0.154 HD
BRANCH  17  19
ATOM     19  C   UNL     1       2.824  -4.128  -0.890  0.00  0.00    +0.141 C 
ATOM     20  S   UNL     1       1.819  -4.972  -1.990  0.00  0.00    -0.018 S 
BRANCH  19  23
ATOM     21  C   UNL     1       1.995  -2.098  -1.691  0.00  0.00    +0.250 C 
ATOM     22  O   UNL     1       1.282  -2.697  -2.471  0.00  0.00    -0.270 OA
ATOM     23  N   UNL     1       2.805  -2.781  -0.858  0.00  0.00    -0.264 N 
ATOM     24  H   UNL     1       3.451  -2.239  -0.151  0.00  0.00    +0.157 HD
BRANCH  21  29
ATOM     25  C   UNL     1       1.914   3.654  -1.550  0.00  0.00    +0.044 C 
ATOM     26  C   UNL     1       1.935   2.148  -1.587  0.00  0.00    -0.050 A 
ATOM     27  C   UNL     1       1.122   1.469  -2.477  0.00  0.00    +0.004 A 
ATOM     28  C   UNL     1       1.137   0.090  -2.516  0.00  0.00    +0.013 A 
ATOM     29  C   UNL     1       1.975  -0.621  -1.655  0.00  0.00    +0.037 A 
ATOM     30  C   UNL     1       2.793   0.071  -0.759  0.00  0.00    +0.013 A 
ATOM     31  C   UNL     1       2.768   1.450  -0.731  0.00  0.00    +0.004 A 
ENDBRANCH  21  29
ENDBRANCH  19  23
ENDBRANCH  17  19
ENDBRANCH   1  17
TORSDOF 6
