REMARK  Name = ZINC39490907
REMARK  14 active torsions:
REMARK  status: ('A' for Active; 'I' for Inactive)
REMARK    1  A    between atoms: C_1  and  C_2
REMARK    2  A    between atoms: C_2  and  C_3
REMARK    3  A    between atoms: C_2  and  S_4
REMARK    4  A    between atoms: S_4  and  C_7
REMARK    5  A    between atoms: C_7  and  C_34
REMARK    6  A    between atoms: N_9  and  S_28
REMARK    7  A    between atoms: N_12  and  C_13
REMARK    8  A    between atoms: C_13  and  C_14
REMARK    9  A    between atoms: C_14  and  C_22
REMARK   10  A    between atoms: N_17  and  S_20
REMARK   11  A    between atoms: S_20  and  C_21
REMARK   12  A    between atoms: S_28  and  C_31
REMARK   13  A    between atoms: C_31  and  C_32
REMARK   14  A    between atoms: C_31  and  C_33
REMARK                            x       y       z     vdW  Elec       q    Type
REMARK                         _______ _______ _______ _____ _____    ______ ____
ROOT
ATOM      1  C   UNL     1      -1.706  -2.026   5.887  0.00  0.00    +0.171 C 
ATOM      2  C   UNL     1      -1.694  -1.395   7.293  0.00  0.00    +0.185 C 
ATOM      3  N   UNL     1      -0.446  -1.891   7.892  0.00  0.00    -0.156 N 
ATOM      4  C   UNL     1       0.182  -2.679   7.009  0.00  0.00    +0.326 C 
ATOM      5  O   UNL     1       1.243  -3.225   7.245  0.00  0.00    -0.251 OA
ATOM      6  N   UNL     1      -0.464  -2.811   5.843  0.00  0.00    -0.258 N 
ATOM      7  C   UNL     1      -2.923  -2.936   5.714  0.00  0.00    +0.059 C 
ENDROOT
BRANCH   1   8
ATOM      8  S   UNL     1      -1.690  -0.737   4.611  0.00  0.00    -0.006 S 
ATOM      9  O   UNL     1      -1.871  -1.356   3.344  0.00  0.00    -0.172 OA
ATOM     10  O   UNL     1      -0.553   0.089   4.820  0.00  0.00    -0.172 OA
BRANCH   8  12
ATOM     11  C   UNL     1      -3.065   0.796   6.412  0.00  0.00    +0.031 C 
ATOM     12  C   UNL     1      -3.178   0.227   4.996  0.00  0.00    +0.127 C 
ATOM     13  C   UNL     1      -3.316   1.375   3.994  0.00  0.00    +0.031 C 
ENDBRANCH   8  12
ENDBRANCH   1   8
BRANCH   3  14
ATOM     14  S   UNL     1       0.096  -1.534   9.415  0.00  0.00    +0.051 S 
ATOM     15  O   UNL     1       1.508  -1.678   9.340  0.00  0.00    -0.155 OA
ATOM     16  O   UNL     1      -0.489  -0.276   9.722  0.00  0.00    -0.155 OA
BRANCH  14  17
ATOM     17  C   UNL     1      -0.609  -2.826  10.476  0.00  0.00    +0.145 C 
ATOM     18  C   UNL     1      -0.116  -4.196  10.007  0.00  0.00    +0.033 C 
ATOM     19  C   UNL     1      -0.169  -2.593  11.923  0.00  0.00    +0.033 C 
ENDBRANCH  14  17
ENDBRANCH   3  14
BRANCH   6  20
ATOM     20  C   UNL     1      -0.005  -3.610   4.704  0.00  0.00    +0.118 C 
BRANCH  20  21
ATOM     21  C   UNL     1       1.158  -2.894   4.013  0.00  0.00    -0.008 C 
ATOM     22  C   UNL     1       0.643  -1.624   3.331  0.00  0.00    +0.025 C 
ATOM     23  C   UNL     1      -0.374  -2.006   2.253  0.00  0.00    +0.097 C 
ATOM     24  N   UNL     1       0.263  -2.889   1.268  0.00  0.00    -0.250 NA
ATOM     25  C   UNL     1       0.724  -4.136   1.891  0.00  0.00    +0.097 C 
ATOM     26  C   UNL     1       1.773  -3.817   2.958  0.00  0.00    +0.025 C 
BRANCH  21  27
ATOM     27  C   UNL     1       2.219  -2.524   5.051  0.00  0.00    -0.003 C 
ATOM     28  C   UNL     1       2.616  -1.057   4.874  0.00  0.00    +0.004 C 
ATOM     29  C   UNL     1       3.677  -0.687   5.912  0.00  0.00    +0.000 C 
ATOM     30  C   UNL     1       4.909  -1.574   5.721  0.00  0.00    +0.000 C 
ATOM     31  C   UNL     1       4.512  -3.042   5.898  0.00  0.00    +0.000 C 
ATOM     32  C   UNL     1       3.451  -3.412   4.860  0.00  0.00    +0.004 C 
ENDBRANCH  21  27
BRANCH  24  33
ATOM     33  S   UNL     1      -0.825  -3.220  -0.082  0.00  0.00    -0.081 S 
ATOM     34  C   UNL     1       0.080  -4.428  -1.089  0.00  0.00    +0.103 C 
ENDBRANCH  24  33
ENDBRANCH  20  21
ENDBRANCH   6  20
TORSDOF 8
