REMARK  Name = ZINC08693968
REMARK  5 active torsions:
REMARK  status: ('A' for Active; 'I' for Inactive)
REMARK    1  A    between atoms: C_3  and  N_17
REMARK    2  A    between atoms: C_5  and  S_7
REMARK    3  A    between atoms: S_7  and  N_10
REMARK    4  A    between atoms: C_18  and  C_20
REMARK    5  A    between atoms: C_21  and  C_22
REMARK                            x       y       z     vdW  Elec       q    Type
REMARK                         _______ _______ _______ _____ _____    ______ ____
ROOT
ATOM      1  C   UNL     1      -6.086  -4.837   0.213  0.00  0.00    +0.004 A 
ATOM      2  C   UNL     1      -4.881  -4.168   0.113  0.00  0.00    +0.023 A 
ATOM      3  C   UNL     1      -3.691  -4.883   0.105  0.00  0.00    +0.036 A 
ATOM      4  C   UNL     1      -3.715  -6.269   0.192  0.00  0.00    +0.052 A 
ATOM      5  C   UNL     1      -4.923  -6.931   0.297  0.00  0.00    +0.110 A 
ATOM      6  C   UNL     1      -6.107  -6.217   0.305  0.00  0.00    +0.029 A 
ENDROOT
BRANCH   3   7
ATOM      7  N   UNL     1      -2.470  -4.209   0.004  0.00  0.00    -0.282 N 
ATOM      8  C   UNL     1      -2.384  -3.075  -0.719  0.00  0.00    +0.241 C 
ATOM      9  O   UNL     1      -3.343  -2.688  -1.361  0.00  0.00    -0.270 OA
ATOM     10  H   UNL     1      -1.684  -4.558   0.454  0.00  0.00    +0.155 HD
BRANCH   8  11
ATOM     11  C   UNL     1      -1.138  -2.308  -0.731  0.00  0.00    +0.068 C 
ATOM     12  C   UNL     1      -1.052  -1.172  -1.454  0.00  0.00    +0.014 C 
BRANCH  12  13
ATOM     13  C   UNL     1       0.200  -0.401  -1.466  0.00  0.00    -0.006 A 
ATOM     14  C   UNL     1       1.304  -0.841  -0.729  0.00  0.00    +0.011 A 
ATOM     15  C   UNL     1       2.474  -0.114  -0.745  0.00  0.00    +0.020 A 
ATOM     16  C   UNL     1       2.559   1.053  -1.488  0.00  0.00    +0.042 A 
ATOM     17  C   UNL     1       1.472   1.496  -2.221  0.00  0.00    +0.040 A 
ATOM     18  C   UNL     1       0.293   0.778  -2.215  0.00  0.00    +0.049 A 
ATOM     19 CL   UNL     1      -1.068   1.331  -3.140  0.00  0.00    -0.083 Cl
ATOM     20 CL   UNL     1       4.038   1.962  -1.502  0.00  0.00    -0.083 Cl
ENDBRANCH  12  13
ENDBRANCH   8  11
ENDBRANCH   3   7
BRANCH   5  21
ATOM     21  S   UNL     1      -4.955  -8.689   0.415  0.00  0.00    +0.073 S 
ATOM     22  O   UNL     1      -3.693  -9.085   0.935  0.00  0.00    -0.150 OA
ATOM     23  O   UNL     1      -6.181  -9.032   1.047  0.00  0.00    -0.150 OA
BRANCH  21  24
ATOM     24  N   UNL     1      -5.037  -9.282  -1.129  0.00  0.00    -0.205 N 
ATOM     25  C   UNL     1      -3.995  -9.082  -1.996  0.00  0.00    +0.088 C 
ATOM     26  C   UNL     1      -1.832  -8.215  -2.523  0.00  0.00    +0.113 C 
ATOM     27  C   UNL     1      -2.240  -7.172  -3.566  0.00  0.00    +0.021 C 
ATOM     28  C   UNL     1      -2.941  -7.832  -4.741  0.00  0.00    +0.002 C 
ATOM     29  C   UNL     1      -4.277  -8.454  -4.370  0.00  0.00    +0.007 C 
ATOM     30  C   UNL     1      -4.073  -9.631  -3.404  0.00  0.00    +0.070 C 
ATOM     31  H   UNL     1      -5.823  -9.771  -1.420  0.00  0.00    +0.175 HD
ATOM     32  N   UNL     1      -2.961  -8.412  -1.538  0.00  0.00    -0.375 N 
ATOM     33  H   UNL     1      -2.923  -8.048  -0.579  0.00  0.00    +0.161 HD
ENDBRANCH  21  24
ENDBRANCH   5  21
TORSDOF 5
