REMARK  Name = ZINC49263305
REMARK  3 active torsions:
REMARK  status: ('A' for Active; 'I' for Inactive)
REMARK    1  A    between atoms: C_1  and  C_2
REMARK    2  A    between atoms: C_7  and  N_10
REMARK    3  A    between atoms: N_13  and  C_14
REMARK                            x       y       z     vdW  Elec       q    Type
REMARK                         _______ _______ _______ _____ _____    ______ ____
ROOT
ATOM      1  N   UNL     1       1.460  -2.519   2.430  0.00  0.00    -0.296 N 
ATOM      2  C   UNL     1       1.204  -3.753   2.910  0.00  0.00    +0.304 C 
ATOM      3  O   UNL     1       0.383  -4.461   2.360  0.00  0.00    -0.253 OA
ATOM      4  N   UNL     1       1.859  -4.201   3.999  0.00  0.00    -0.268 N 
ATOM      5  H   UNL     1       2.115  -1.954   2.869  0.00  0.00    +0.151 HD
ATOM      6  H   UNL     1       2.571  -3.670   4.390  0.00  0.00    +0.156 HD
ENDROOT
BRANCH   4   7
ATOM      7  C   UNL     1       1.510  -5.433   4.568  0.00  0.00    +0.049 A 
ATOM      8  C   UNL     1       0.234  -5.948   4.384  0.00  0.00    +0.027 A 
ATOM      9  C   UNL     1      -0.107  -7.163   4.945  0.00  0.00    +0.040 A 
ATOM     10  C   UNL     1       0.823  -7.868   5.691  0.00  0.00    +0.125 A 
ATOM     11  C   UNL     1       2.096  -7.357   5.876  0.00  0.00    +0.055 A 
ATOM     12  C   UNL     1       2.443  -6.144   5.312  0.00  0.00    +0.042 A 
ATOM     13 BR   UNL     1       4.185  -5.450   5.558  0.00  0.00    -0.048 Br
ATOM     14  F   UNL     1       0.486  -9.056   6.240  0.00  0.00    -0.205 F 
ENDBRANCH   4   7
BRANCH   1  20
ATOM     15  C   UNL     1      -0.059   1.536   0.044  0.00  0.00    +0.007 C 
ATOM     16  C   UNL     1      -0.027   0.006   0.027  0.00  0.00    -0.012 C 
ATOM     17  C   UNL     1       0.694  -0.474  -1.235  0.00  0.00    +0.003 C 
ATOM     18  C   UNL     1       0.726  -2.003  -1.252  0.00  0.00    +0.002 C 
ATOM     19  C   UNL     1       1.469  -2.512  -0.016  0.00  0.00    +0.022 C 
ATOM     20  C   UNL     1       0.748  -2.032   1.246  0.00  0.00    +0.075 C 
ATOM     21  C   UNL     1       0.716  -0.502   1.264  0.00  0.00    +0.025 C 
ENDBRANCH   1  20
TORSDOF 2
