REMARK  Name = ZINC38687909
REMARK  8 active torsions:
REMARK  status: ('A' for Active; 'I' for Inactive)
REMARK    1  A    between atoms: C_1  and  O_2
REMARK    2  A    between atoms: O_2  and  C_3
REMARK    3  A    between atoms: C_6  and  C_10
REMARK    4  A    between atoms: C_10  and  O_12
REMARK    5  A    between atoms: O_12  and  C_13
REMARK    6  A    between atoms: C_20  and  N_33
REMARK    7  A    between atoms: C_21  and  C_31
REMARK    8  A    between atoms: C_22  and  C_24
REMARK                            x       y       z     vdW  Elec       q    Type
REMARK                         _______ _______ _______ _____ _____    ______ ____
ROOT
ATOM      1  C   UNL     1       3.199  -4.301  -5.525  0.00  0.00    +0.135 A 
ATOM      2  C   UNL     1       3.787  -3.413  -6.414  0.00  0.00    +0.047 A 
ATOM      3  C   UNL     1       4.457  -3.889  -7.524  0.00  0.00    +0.012 A 
ATOM      4  C   UNL     1       4.546  -5.251  -7.753  0.00  0.00    +0.008 A 
ATOM      5  C   UNL     1       3.960  -6.143  -6.868  0.00  0.00    +0.138 A 
ATOM      6  C   UNL     1       3.291  -5.665  -5.749  0.00  0.00    +0.093 A 
ATOM      7  O   UNL     1       4.036  -7.481  -7.077  0.00  0.00    -0.441 OA
ATOM      8  C   UNL     1       4.975  -7.979  -7.897  0.00  0.00    +0.199 C 
ATOM      9  C   UNL     1       5.604  -7.210  -8.818  0.00  0.00    +0.098 C 
ATOM     10  C   UNL     1       5.280  -5.750  -8.969  0.00  0.00    +0.098 C 
ENDROOT
BRANCH  10  11
ATOM     11  C   UNL     1       4.417  -5.555 -10.189  0.00  0.00    -0.035 A 
ATOM     12  C   UNL     1       3.179  -6.165 -10.265  0.00  0.00    +0.005 A 
ATOM     13  C   UNL     1       2.387  -5.986 -11.383  0.00  0.00    +0.015 A 
ATOM     14  C   UNL     1       2.833  -5.196 -12.427  0.00  0.00    +0.018 A 
ATOM     15  C   UNL     1       4.072  -4.585 -12.351  0.00  0.00    +0.015 A 
ATOM     16  C   UNL     1       4.861  -4.761 -11.230  0.00  0.00    +0.005 A 
ATOM     17 BR   UNL     1       1.750  -4.951 -13.957  0.00  0.00    -0.050 Br
ENDBRANCH  10  11
BRANCH   8  18
ATOM     18  N   UNL     1       5.308  -9.307  -7.800  0.00  0.00    -0.328 N 
ATOM     19  H   UNL     1       4.867  -9.871  -7.145  0.00  0.00    +0.145 HD
ATOM     20  H   UNL     1       5.984  -9.682  -8.385  0.00  0.00    +0.145 HD
ENDBRANCH   8  18
BRANCH   9  21
ATOM     21  C   UNL     1       6.598  -7.800  -9.663  0.00  0.00    +0.101 C 
ATOM     22  N   UNL     1       7.387  -8.268 -10.334  0.00  0.00    -0.191 NA
ENDBRANCH   9  21
BRANCH   1  23
ATOM     23  O   UNL     1       2.539  -3.834  -4.433  0.00  0.00    -0.422 OA
BRANCH  23  24
ATOM     24  C   UNL     1       3.162  -3.903  -3.239  0.00  0.00    +0.344 C 
ATOM     25  O   UNL     1       4.242  -4.452  -3.148  0.00  0.00    -0.245 OA
BRANCH  24  29
ATOM     26  C   UNL     1       1.352  -2.198   0.203  0.00  0.00    +0.138 A 
ATOM     27  C   UNL     1       2.587  -2.827   0.308  0.00  0.00    +0.048 A 
ATOM     28  C   UNL     1       3.177  -3.381  -0.806  0.00  0.00    +0.018 A 
ATOM     29  C   UNL     1       2.532  -3.311  -2.044  0.00  0.00    +0.061 A 
ATOM     30  C   UNL     1       1.290  -2.678  -2.147  0.00  0.00    +0.038 A 
ATOM     31  C   UNL     1       0.704  -2.131  -1.026  0.00  0.00    +0.083 A 
ATOM     32 CL   UNL     1      -0.841  -1.350  -1.151  0.00  0.00    -0.080 Cl
BRANCH  26  34
ATOM     33  C   UNL     1       1.493  -1.758   2.533  0.00  0.00    +0.277 C 
ATOM     34  O   UNL     1       0.774  -1.653   1.303  0.00  0.00    -0.494 OA
ENDBRANCH  26  34
ENDBRANCH  24  29
ENDBRANCH  23  24
ENDBRANCH   1  23
TORSDOF 7
