REMARK  Name = ZINC63704771
REMARK  4 active torsions:
REMARK  status: ('A' for Active; 'I' for Inactive)
REMARK    1  A    between atoms: C_6  and  C_7
REMARK    2  A    between atoms: N_9  and  C_10
REMARK    3  A    between atoms: C_21  and  C_26
REMARK    4  A    between atoms: N_28  and  C_29
REMARK                            x       y       z     vdW  Elec       q    Type
REMARK                         _______ _______ _______ _____ _____    ______ ____
ROOT
ATOM      1  C   UNL     1      -0.017   1.394   0.010  0.00  0.00    +0.014 A 
ATOM      2  C   UNL     1       1.152   2.103   0.002  0.00  0.00    +0.016 A 
ATOM      3  C   UNL     1       2.368   1.423  -0.013  0.00  0.00    +0.065 A 
ATOM      4  C   UNL     1       2.400   0.025  -0.021  0.00  0.00    +0.062 A 
ATOM      5  C   UNL     1       1.213  -0.693  -0.013  0.00  0.00    +0.040 A 
ATOM      6  C   UNL     1       0.002  -0.004   0.002  0.00  0.00    +0.039 A 
ATOM      7  N   UNL     1       3.634  -0.657  -0.037  0.00  0.00    -0.284 N 
ATOM      8  C   UNL     1       4.770   0.066  -0.045  0.00  0.00    +0.142 A 
ATOM      9  N   UNL     1       4.772   1.388  -0.037  0.00  0.00    -0.193 NA
ATOM     10  C   UNL     1       3.661   2.134  -0.022  0.00  0.00    +0.281 A 
ATOM     11  O   UNL     1       3.715   3.351  -0.016  0.00  0.00    -0.265 OA
ATOM     12  C   UNL     1       6.068  -0.755  -0.063  0.00  0.00    +0.205 C 
ATOM     13  S   UNL     1       5.387  -2.459  -0.065  0.00  0.00    -0.079 S 
ATOM     14  C   UNL     1       3.662  -2.025  -0.045  0.00  0.00    +0.128 C 
ATOM     15  S   UNL     1       2.323  -3.091  -0.037  0.00  0.00    -0.025 S 
ENDROOT
BRANCH   6  16
ATOM     16  C   UNL     1      -1.272  -0.757   0.011  0.00  0.00    +0.244 C 
ATOM     17  O   UNL     1      -1.260  -1.972   0.004  0.00  0.00    -0.270 OA
ATOM     18  N   UNL     1      -2.446  -0.095   0.026  0.00  0.00    -0.308 N 
ATOM     19  H   UNL     1      -2.456   0.875   0.031  0.00  0.00    +0.149 HD
BRANCH  18  20
ATOM     20  C   UNL     1      -3.708  -0.840   0.035  0.00  0.00    +0.073 C 
ATOM     21  C   UNL     1      -4.097  -1.200  -1.401  0.00  0.00    +0.022 C 
ATOM     22  C   UNL     1      -5.414  -1.978  -1.392  0.00  0.00    +0.002 C 
ATOM     23  C   UNL     1      -6.512  -1.115  -0.766  0.00  0.00    +0.000 C 
ATOM     24  C   UNL     1      -6.123  -0.755   0.669  0.00  0.00    +0.002 C 
ATOM     25  C   UNL     1      -4.805   0.023   0.660  0.00  0.00    +0.022 C 
ENDBRANCH  18  20
ENDBRANCH   6  16
BRANCH  12  26
ATOM     26  C   UNL     1       6.867  -0.484  -1.312  0.00  0.00    +0.234 C 
ATOM     27  O   UNL     1       6.300  -0.181  -2.340  0.00  0.00    -0.274 OA
ATOM     28  N   UNL     1       8.211  -0.579  -1.285  0.00  0.00    -0.311 N 
ATOM     29  H   UNL     1       8.664  -0.822  -0.463  0.00  0.00    +0.149 HD
BRANCH  28  30
ATOM     30  C   UNL     1       8.987  -0.316  -2.499  0.00  0.00    +0.073 C 
ATOM     31  C   UNL     1       9.130  -1.611  -3.326  0.00  0.00    +0.022 C 
ATOM     32  C   UNL     1      10.563  -1.535  -3.907  0.00  0.00    +0.002 C 
ATOM     33  C   UNL     1      11.372  -0.914  -2.741  0.00  0.00    +0.002 C 
ATOM     34  C   UNL     1      10.413   0.127  -2.127  0.00  0.00    +0.022 C 
ENDBRANCH  28  30
ENDBRANCH  12  26
TORSDOF 4
