REMARK  Name = ZINC36221249
REMARK  8 active torsions:
REMARK  status: ('A' for Active; 'I' for Inactive)
REMARK    1  A    between atoms: C_4  and  C_7
REMARK    2  A    between atoms: C_7  and  N_8
REMARK    3  A    between atoms: C_9  and  C_11
REMARK    4  A    between atoms: C_13  and  C_26
REMARK    5  A    between atoms: N_18  and  C_19
REMARK    6  A    between atoms: C_19  and  C_20
REMARK    7  A    between atoms: C_30  and  N_32
REMARK    8  A    between atoms: C_33  and  C_35
REMARK                            x       y       z     vdW  Elec       q    Type
REMARK                         _______ _______ _______ _____ _____    ______ ____
ROOT
ATOM      1  C   UNL     1       5.807  -2.143   3.338  0.00  0.00    +0.210 C 
ATOM      2  C   UNL     1       5.032  -3.427   3.720  0.00  0.00    +0.238 C 
ATOM      3  O   UNL     1       5.964  -4.462   3.349  0.00  0.00    -0.440 OA
ATOM      4  C   UNL     1       7.204  -3.946   3.409  0.00  0.00    +0.405 C 
ATOM      5  O   UNL     1       8.211  -4.622   3.477  0.00  0.00    -0.226 OA
ATOM      6  N   UNL     1       7.212  -2.595   3.388  0.00  0.00    -0.248 N 
ENDROOT
BRANCH   2   7
ATOM      7  C   UNL     1       3.756  -3.541   2.927  0.00  0.00    -0.003 A 
ATOM      8  C   UNL     1       3.775  -4.113   1.667  0.00  0.00    +0.007 A 
ATOM      9  C   UNL     1       2.606  -4.220   0.936  0.00  0.00    +0.002 A 
ATOM     10  C   UNL     1       1.416  -3.755   1.462  0.00  0.00    +0.023 A 
ATOM     11  C   UNL     1       1.394  -3.180   2.725  0.00  0.00    +0.034 A 
ATOM     12  C   UNL     1       2.569  -3.080   3.460  0.00  0.00    +0.030 A 
BRANCH  11  13
ATOM     13  N   UNL     1       0.191  -2.709   3.260  0.00  0.00    -0.281 N 
ATOM     14  C   UNL     1      -0.967  -3.333   2.968  0.00  0.00    +0.251 C 
ATOM     15  O   UNL     1      -0.956  -4.361   2.319  0.00  0.00    -0.270 OA
ATOM     16  H   UNL     1       0.190  -1.933   3.842  0.00  0.00    +0.155 HD
BRANCH  14  17
ATOM     17  C   UNL     1      -2.249  -2.769   3.436  0.00  0.00    +0.072 A 
ATOM     18  C   UNL     1      -2.265  -1.585   4.177  0.00  0.00    +0.016 A 
ATOM     19  C   UNL     1      -3.466  -1.063   4.610  0.00  0.00    +0.001 A 
ATOM     20  C   UNL     1      -4.654  -1.709   4.313  0.00  0.00    +0.003 A 
ATOM     21  C   UNL     1      -4.648  -2.881   3.581  0.00  0.00    +0.039 A 
ATOM     22  C   UNL     1      -3.452  -3.414   3.134  0.00  0.00    +0.135 A 
ATOM     23  F   UNL     1      -3.447  -4.556   2.413  0.00  0.00    -0.205 F 
ENDBRANCH  14  17
ENDBRANCH  11  13
ENDBRANCH   2   7
BRANCH   1  25
ATOM     24  N   UNL     1       4.328  -0.950   1.755  0.00  0.00    -0.310 N 
ATOM     25  C   UNL     1       5.439  -1.688   1.950  0.00  0.00    +0.238 C 
ATOM     26  O   UNL     1       6.143  -1.984   1.008  0.00  0.00    -0.274 OA
ATOM     27  H   UNL     1       3.765  -0.713   2.509  0.00  0.00    +0.149 HD
BRANCH  24  28
ATOM     28  C   UNL     1       3.970  -0.507   0.406  0.00  0.00    +0.139 C 
BRANCH  28  32
ATOM     29  C   UNL     1       0.355   1.764   0.563  0.00  0.00    +0.000 A 
ATOM     30  C   UNL     1       1.576   2.398   0.698  0.00  0.00    +0.000 A 
ATOM     31  C   UNL     1       2.746   1.663   0.648  0.00  0.00    +0.005 A 
ATOM     32  C   UNL     1       2.694   0.294   0.462  0.00  0.00    -0.030 A 
ATOM     33  C   UNL     1       1.473  -0.340   0.327  0.00  0.00    +0.005 A 
ATOM     34  C   UNL     1       0.304   0.396   0.376  0.00  0.00    +0.000 A 
ENDBRANCH  28  32
ENDBRANCH  24  28
ENDBRANCH   1  25
BRANCH   6  35
ATOM     35  C   UNL     1       8.396  -1.732   3.410  0.00  0.00    +0.147 C 
BRANCH  35  36
ATOM     36  C   UNL     1       8.759  -1.414   4.837  0.00  0.00    -0.030 A 
ATOM     37  C   UNL     1       8.217  -0.303   5.457  0.00  0.00    +0.005 A 
ATOM     38  C   UNL     1       8.550  -0.011   6.766  0.00  0.00    +0.000 A 
ATOM     39  C   UNL     1       9.425  -0.830   7.456  0.00  0.00    +0.000 A 
ATOM     40  C   UNL     1       9.966  -1.941   6.837  0.00  0.00    +0.000 A 
ATOM     41  C   UNL     1       9.630  -2.235   5.529  0.00  0.00    +0.005 A 
ENDBRANCH  35  36
ENDBRANCH   6  35
TORSDOF 8
