REMARK  Name = ZINC49504293
REMARK  5 active torsions:
REMARK  status: ('A' for Active; 'I' for Inactive)
REMARK    1  A    between atoms: C_3  and  C_6
REMARK    2  A    between atoms: C_16  and  N_18
REMARK    3  A    between atoms: C_19  and  C_21
REMARK    4  A    between atoms: N_23  and  C_24
REMARK    5  A    between atoms: C_24  and  C_25
REMARK                            x       y       z     vdW  Elec       q    Type
REMARK                         _______ _______ _______ _____ _____    ______ ____
ROOT
ATOM      1  N   UNL     1       3.675  -4.725   0.383  0.00  0.00    -0.278 N 
ATOM      2  C   UNL     1       2.424  -5.145   0.656  0.00  0.00    +0.303 C 
ATOM      3  O   UNL     1       1.556  -4.337   0.919  0.00  0.00    -0.265 OA
ATOM      4  H   UNL     1       4.383  -5.373   0.240  0.00  0.00    +0.155 HD
ENDROOT
BRANCH   1  15
ATOM      5  C   UNL     1       5.877   1.144  -0.615  0.00  0.00    +0.257 C 
ATOM      6  O   UNL     1       6.637   0.334  -1.115  0.00  0.00    -0.269 OA
ATOM      7  N   UNL     1       4.795   0.721   0.068  0.00  0.00    -0.267 N 
ATOM      8  C   UNL     1       3.903   1.685   0.725  0.00  0.00    +0.114 C 
ATOM      9  C   UNL     1       3.585   1.150   2.127  0.00  0.00    +0.024 C 
ATOM     10  C   UNL     1       2.828  -0.171   1.992  0.00  0.00    +0.038 C 
ATOM     11  C   UNL     1       3.567  -1.111   1.076  0.00  0.00    -0.024 A 
ATOM     12  C   UNL     1       4.499  -0.647   0.158  0.00  0.00    +0.040 A 
ATOM     13  C   UNL     1       5.158  -1.538  -0.682  0.00  0.00    +0.025 A 
ATOM     14  C   UNL     1       4.886  -2.888  -0.610  0.00  0.00    +0.025 A 
ATOM     15  C   UNL     1       3.952  -3.357   0.305  0.00  0.00    +0.034 A 
ATOM     16  C   UNL     1       3.300  -2.466   1.153  0.00  0.00    +0.028 A 
BRANCH   5  19
ATOM     17  C   UNL     1       7.219   4.590  -1.264  0.00  0.00    +0.008 A 
ATOM     18  C   UNL     1       7.265   3.217  -1.257  0.00  0.00    +0.021 A 
ATOM     19  C   UNL     1       6.140   2.579  -0.756  0.00  0.00    +0.074 A 
ATOM     20  S   UNL     1       5.095   3.960  -0.331  0.00  0.00    -0.092 S 
ATOM     21  C   UNL     1       6.111   5.215  -0.795  0.00  0.00    +0.046 A 
ENDBRANCH   5  19
ENDBRANCH   1  15
BRANCH   2  22
ATOM     22  C   UNL     1       2.104  -6.604   0.635  0.00  0.00    +0.299 C 
ATOM     23  O   UNL     1       2.971  -7.411   0.372  0.00  0.00    -0.265 OA
ATOM     24  N   UNL     1       0.853  -7.023   0.909  0.00  0.00    -0.305 N 
ATOM     25  H   UNL     1       0.160  -6.378   1.119  0.00  0.00    +0.149 HD
BRANCH  24  26
ATOM     26  C   UNL     1       0.539  -8.454   0.888  0.00  0.00    +0.138 C 
BRANCH  26  27
ATOM     27  C   UNL     1      -0.938  -8.658   1.230  0.00  0.00    +0.164 C 
ATOM     28  C   UNL     1      -1.297 -10.164   1.265  0.00  0.00    +0.196 C 
ATOM     29  O   UNL     1      -2.706 -10.171   0.957  0.00  0.00    -0.346 OA
ATOM     30  C   UNL     1      -3.001  -8.939   0.286  0.00  0.00    +0.171 C 
ATOM     31  O   UNL     1      -1.789  -8.176   0.162  0.00  0.00    -0.342 OA
ATOM     32  C   UNL     1      -4.021  -8.142   1.101  0.00  0.00    +0.065 C 
ATOM     33  C   UNL     1      -5.314  -8.951   1.229  0.00  0.00    +0.005 C 
ATOM     34  C   UNL     1      -5.877  -9.237  -0.164  0.00  0.00    +0.000 C 
ATOM     35  C   UNL     1      -4.856 -10.039  -0.973  0.00  0.00    +0.005 C 
ATOM     36  C   UNL     1      -3.563  -9.232  -1.105  0.00  0.00    +0.065 C 
ENDBRANCH  26  27
ENDBRANCH  24  26
ENDBRANCH   2  22
TORSDOF 5
