REMARK  Name = ZINC36351168
REMARK  8 active torsions:
REMARK  status: ('A' for Active; 'I' for Inactive)
REMARK    1  A    between atoms: C_1  and  C_2
REMARK    2  A    between atoms: C_2  and  O_3
REMARK    3  A    between atoms: O_3  and  C_4
REMARK    4  A    between atoms: C_4  and  C_6
REMARK    5  A    between atoms: C_8  and  O_35
REMARK    6  A    between atoms: C_10  and  C_28
REMARK    7  A    between atoms: C_11  and  C_21
REMARK    8  A    between atoms: C_15  and  C_20
REMARK                            x       y       z     vdW  Elec       q    Type
REMARK                         _______ _______ _______ _____ _____    ______ ____
ROOT
ATOM      1  C   UNL     1       0.662  -2.063   3.512  0.00  0.00    +0.197 C 
ATOM      2  C   UNL     1      -0.371  -2.821   4.402  0.00  0.00    +0.176 C 
ATOM      3  C   UNL     1       0.081  -4.254   4.301  0.00  0.00    +0.132 C 
ATOM      4  C   UNL     1       0.633  -4.258   2.823  0.00  0.00    +0.148 C 
ATOM      5  N   UNL     1       1.510  -3.120   2.862  0.00  0.00    -0.275 NA
ATOM      6  N   UNL     1       0.915  -5.656   2.716  0.00  0.00    -0.268 N 
ATOM      7  C   UNL     1       1.882  -6.434   2.164  0.00  0.00    +0.082 C 
ATOM      8  C   UNL     1       1.708  -7.766   2.031  0.00  0.00    -0.036 C 
ATOM      9  C   UNL     1       0.521  -8.373   2.478  0.00  0.00    +0.008 C 
ATOM     10  C   UNL     1      -0.401  -7.633   3.148  0.00  0.00    +0.042 C 
ATOM     11  C   UNL     1      -0.155  -6.261   3.380  0.00  0.00    +0.101 C 
ATOM     12  N   UNL     1      -0.747  -5.422   4.241  0.00  0.00    -0.358 N 
ATOM     13  C   UNL     1       2.789  -8.605   1.402  0.00  0.00    +0.045 C 
ATOM     14  H   UNL     1       1.784  -2.842   1.932  0.00  0.00    +0.125 HD
ATOM     15  H   UNL     1      -1.573  -5.574   4.727  0.00  0.00    +0.162 HD
ENDROOT
BRANCH   4  16
ATOM     16  C   UNL     1      -0.524  -3.945   1.908  0.00  0.00    -0.006 A 
ATOM     17  C   UNL     1      -0.291  -3.646   0.579  0.00  0.00    +0.008 A 
ATOM     18  C   UNL     1      -1.351  -3.359  -0.261  0.00  0.00    +0.020 A 
ATOM     19  C   UNL     1      -2.645  -3.371   0.230  0.00  0.00    +0.041 A 
ATOM     20  C   UNL     1      -2.877  -3.671   1.561  0.00  0.00    +0.020 A 
ATOM     21  C   UNL     1      -1.816  -3.963   2.398  0.00  0.00    +0.008 A 
ATOM     22 CL   UNL     1      -3.977  -3.010  -0.823  0.00  0.00    -0.084 Cl
ENDBRANCH   4  16
BRANCH   3  23
ATOM     23  C   UNL     1       1.229  -4.493   5.247  0.00  0.00    -0.016 A 
ATOM     24  C   UNL     1       1.241  -5.620   6.048  0.00  0.00    +0.007 A 
ATOM     25  C   UNL     1       2.294  -5.840   6.917  0.00  0.00    +0.020 A 
ATOM     26  C   UNL     1       3.336  -4.932   6.984  0.00  0.00    +0.041 A 
ATOM     27  C   UNL     1       3.324  -3.805   6.182  0.00  0.00    +0.020 A 
ATOM     28  C   UNL     1       2.273  -3.589   5.310  0.00  0.00    +0.007 A 
ATOM     29 CL   UNL     1       4.659  -5.207   8.074  0.00  0.00    -0.084 Cl
ENDBRANCH   3  23
BRANCH   1  30
ATOM     30  C   UNL     1      -0.054  -1.255   2.461  0.00  0.00    +0.327 C 
ATOM     31  O   UNL     1       0.245  -1.377   1.297  0.00  0.00    -0.249 OA
BRANCH  30  32
ATOM     32  O   UNL     1      -1.025  -0.400   2.818  0.00  0.00    -0.464 OA
BRANCH  32  34
ATOM     33  C   UNL     1      -2.850   1.116   2.354  0.00  0.00    +0.048 C 
ATOM     34  C   UNL     1      -1.710   0.281   1.765  0.00  0.00    +0.229 C 
ENDBRANCH  32  34
ENDBRANCH  30  32
ENDBRANCH   1  30
BRANCH   2  35
ATOM     35  O   UNL     1      -0.305  -2.361   5.754  0.00  0.00    -0.387 OA
ATOM     36  H   UNL     1      -0.515  -1.423   5.861  0.00  0.00    +0.210 HD
ENDBRANCH   2  35
TORSDOF 6
