REMARK  Name = ZINC39683639
REMARK  9 active torsions:
REMARK  status: ('A' for Active; 'I' for Inactive)
REMARK    1  A    between atoms: C_1  and  C_2
REMARK    2  A    between atoms: C_2  and  C_3
REMARK    3  A    between atoms: C_3  and  C_4
REMARK    4  A    between atoms: C_4  and  C_6
REMARK    5  A    between atoms: C_4  and  C_7
REMARK    6  A    between atoms: C_11  and  C_20
REMARK    7  A    between atoms: N_22  and  C_23
REMARK    8  A    between atoms: C_23  and  C_24
REMARK    9  A    between atoms: C_24  and  C_25
REMARK                            x       y       z     vdW  Elec       q    Type
REMARK                         _______ _______ _______ _____ _____    ______ ____
ROOT
ATOM      1  C   UNL     1      -2.738  -2.510  -0.422  0.00  0.00    +0.218 C 
ATOM      2  O   UNL     1      -3.692  -1.802  -0.670  0.00  0.00    -0.275 OA
ATOM      3  N   UNL     1      -2.911  -3.834  -0.242  0.00  0.00    -0.300 N 
ATOM      4  C   UNL     1      -1.899  -4.833   0.177  0.00  0.00    +0.121 C 
ATOM      5  C   UNL     1      -2.657  -5.777   1.137  0.00  0.00    +0.100 C 
ATOM      6  C   UNL     1      -4.136  -5.635   0.741  0.00  0.00    -0.004 C 
ATOM      7  C   UNL     1      -4.157  -4.620  -0.411  0.00  0.00    +0.115 C 
ATOM      8  C   UNL     1      -4.690  -6.978   0.274  0.00  0.00    -0.010 C 
ATOM      9  C   UNL     1      -6.176  -6.823  -0.059  0.00  0.00    -0.082 C 
ATOM     10  N   UNL     1      -6.901  -6.361   1.131  0.00  0.00    +0.379 N 
ATOM     11  C   UNL     1      -6.426  -5.027   1.519  0.00  0.00    -0.082 C 
ATOM     12  C   UNL     1      -4.949  -5.105   1.919  0.00  0.00    -0.010 C 
ATOM     13  H   UNL     1      -7.888  -6.318   0.927  0.00  0.00    -0.086 HD
ATOM     14  H   UNL     1      -6.744  -7.006   1.891  0.00  0.00    -0.086 HD
ENDROOT
BRANCH   5  15
ATOM     15  C   UNL     1      -2.450  -5.348   2.567  0.00  0.00    +0.218 C 
ATOM     16  O   UNL     1      -2.191  -4.190   2.821  0.00  0.00    -0.275 OA
ATOM     17  N   UNL     1      -2.554  -6.249   3.563  0.00  0.00    -0.315 N 
ATOM     18  H   UNL     1      -2.761  -7.175   3.360  0.00  0.00    +0.149 HD
BRANCH  17  19
ATOM     19  C   UNL     1      -2.353  -5.832   4.953  0.00  0.00    +0.109 C 
BRANCH  19  20
ATOM     20  C   UNL     1      -2.525  -7.038   5.878  0.00  0.00    +0.055 C 
BRANCH  20  21
ATOM     21  C   UNL     1      -2.318  -6.609   7.308  0.00  0.00    -0.032 A 
ATOM     22  C   UNL     1      -1.075  -6.744   7.897  0.00  0.00    +0.005 A 
ATOM     23  C   UNL     1      -0.885  -6.349   9.208  0.00  0.00    +0.000 A 
ATOM     24  C   UNL     1      -1.938  -5.819   9.930  0.00  0.00    +0.001 A 
ATOM     25  C   UNL     1      -3.181  -5.684   9.342  0.00  0.00    +0.015 A 
ATOM     26  C   UNL     1      -3.370  -6.073   8.028  0.00  0.00    +0.021 A 
ATOM     27 BR   UNL     1      -5.069  -5.881   7.220  0.00  0.00    -0.050 Br
ENDBRANCH  20  21
ENDBRANCH  19  20
ENDBRANCH  17  19
ENDBRANCH   5  15
BRANCH   1  28
ATOM     28  C   UNL     1      -1.361  -1.908  -0.316  0.00  0.00    +0.072 C 
ATOM     29  C   UNL     1      -1.462  -0.506   0.287  0.00  0.00    +0.017 C 
BRANCH  28  30
ATOM     30  C   UNL     1      -0.734  -1.820  -1.709  0.00  0.00    +0.012 C 
BRANCH  30  32
ATOM     31  C   UNL     1       1.336  -1.238  -2.981  0.00  0.00    +0.004 C 
ATOM     32  C   UNL     1       0.709  -1.326  -1.588  0.00  0.00    -0.003 C 
ENDBRANCH  30  32
ENDBRANCH  28  30
ENDBRANCH   1  28
TORSDOF 7
