REMARK  Name = ZINC20167907
REMARK  11 active torsions:
REMARK  status: ('A' for Active; 'I' for Inactive)
REMARK    1  A    between atoms: C_1  and  C_2
REMARK    2  A    between atoms: C_2  and  O_3
REMARK    3  A    between atoms: O_3  and  C_4
REMARK    4  A    between atoms: C_4  and  C_6
REMARK    5  A    between atoms: C_7  and  N_37
REMARK    6  A    between atoms: C_9  and  C_10
REMARK    7  A    between atoms: C_18  and  C_32
REMARK    8  A    between atoms: C_20  and  C_25
REMARK    9  A    between atoms: C_32  and  O_34
REMARK   10  A    between atoms: O_34  and  C_35
REMARK   11  A    between atoms: C_35  and  C_36
REMARK                            x       y       z     vdW  Elec       q    Type
REMARK                         _______ _______ _______ _____ _____    ______ ____
ROOT
ATOM      1  C   UNL     1      -0.729   3.472   0.576  0.00  0.00    +0.155 A 
ATOM      2  C   UNL     1      -1.307   2.351   0.024  0.00  0.00    +0.065 A 
ATOM      3  C   UNL     1      -0.218   1.532  -0.538  0.00  0.00    +0.024 A 
ATOM      4  C   UNL     1      -0.336   0.344  -1.233  0.00  0.00    +0.019 C 
ATOM      5  C   UNL     1       1.017   2.250  -0.208  0.00  0.00    +0.079 A 
ATOM      6  C   UNL     1       2.314   1.832  -0.444  0.00  0.00    +0.118 C 
ATOM      7  S   UNL     1       3.629   2.865   0.133  0.00  0.00    -0.099 S 
ATOM      8  C   UNL     1       2.888   4.523   0.113  0.00  0.00    +0.170 C 
ATOM      9  C   UNL     1       1.497   4.462   0.687  0.00  0.00    +0.250 C 
ATOM     10  O   UNL     1       1.124   5.338   1.438  0.00  0.00    -0.271 OA
ATOM     11  N   UNL     1       0.658   3.452   0.382  0.00  0.00    -0.270 N 
ENDROOT
BRANCH   4  12
ATOM     12  C   UNL     1      -1.657  -0.133  -1.649  0.00  0.00    -0.024 A 
ATOM     13  C   UNL     1      -1.992  -1.488  -1.515  0.00  0.00    +0.011 A 
ATOM     14  C   UNL     1      -3.237  -1.927  -1.903  0.00  0.00    +0.039 A 
ATOM     15  C   UNL     1      -4.157  -1.036  -2.437  0.00  0.00    +0.123 A 
ATOM     16  C   UNL     1      -3.832   0.306  -2.577  0.00  0.00    +0.039 A 
ATOM     17  C   UNL     1      -2.592   0.762  -2.188  0.00  0.00    +0.011 A 
ATOM     18  F   UNL     1      -5.375  -1.476  -2.821  0.00  0.00    -0.205 F 
ENDBRANCH   4  12
BRANCH   8  19
ATOM     19  C   UNL     1       2.823   5.027  -1.306  0.00  0.00    -0.025 A 
ATOM     20  C   UNL     1       2.107   4.323  -2.256  0.00  0.00    +0.008 A 
ATOM     21  C   UNL     1       2.043   4.786  -3.557  0.00  0.00    +0.038 A 
ATOM     22  C   UNL     1       2.704   5.950  -3.910  0.00  0.00    +0.123 A 
ATOM     23  C   UNL     1       3.426   6.651  -2.958  0.00  0.00    +0.038 A 
ATOM     24  C   UNL     1       3.484   6.189  -1.657  0.00  0.00    +0.008 A 
ATOM     25  F   UNL     1       2.646   6.401  -5.182  0.00  0.00    -0.205 F 
ENDBRANCH   8  19
BRANCH   2  26
ATOM     26  N   UNL     1      -2.656   2.049   0.003  0.00  0.00    -0.356 N 
ATOM     27  H   UNL     1      -3.004   1.119  -0.469  0.00  0.00    +0.142 HD
ATOM     28  H   UNL     1      -3.381   2.739   0.459  0.00  0.00    +0.142 HD
ENDBRANCH   2  26
BRANCH   1  29
ATOM     29  C   UNL     1      -1.435   4.500   1.239  0.00  0.00    +0.358 C 
ATOM     30  O   UNL     1      -1.123   5.663   1.064  0.00  0.00    -0.243 OA
BRANCH  29  31
ATOM     31  O   UNL     1      -2.457   4.192   2.066  0.00  0.00    -0.460 OA
BRANCH  31  33
ATOM     32  C   UNL     1      -4.247   4.741   3.594  0.00  0.00    +0.048 C 
ATOM     33  C   UNL     1      -3.127   5.281   2.703  0.00  0.00    +0.229 C 
ENDBRANCH  31  33
ENDBRANCH  29  31
ENDBRANCH   1  29
BRANCH   6  34
ATOM     34  C   UNL     1       2.580   0.621  -1.123  0.00  0.00    +0.348 C 
ATOM     35  O   UNL     1       2.795  -0.397  -0.490  0.00  0.00    -0.244 OA
BRANCH  34  36
ATOM     36  O   UNL     1       2.595   0.593  -2.473  0.00  0.00    -0.461 OA
BRANCH  36  37
ATOM     37  C   UNL     1       2.871  -0.665  -3.093  0.00  0.00    +0.229 C 
ATOM     38  C   UNL     1       2.846  -0.500  -4.614  0.00  0.00    +0.048 C 
ENDBRANCH  36  37
ENDBRANCH  34  36
ENDBRANCH   6  34
TORSDOF 9
