REMARK  Name = ZINC37581870
REMARK  6 active torsions:
REMARK  status: ('A' for Active; 'I' for Inactive)
REMARK    1  A    between atoms: C_4  and  S_11
REMARK    2  A    between atoms: C_5  and  C_7
REMARK    3  A    between atoms: C_8  and  C_9
REMARK    4  A    between atoms: C_9  and  N_10
REMARK    5  A    between atoms: S_11  and  N_14
REMARK    6  A    between atoms: N_14  and  C_15
REMARK                            x       y       z     vdW  Elec       q    Type
REMARK                         _______ _______ _______ _____ _____    ______ ____
ROOT
ATOM      1  C   UNL     1      -0.017   1.375   0.010  0.00  0.00    +0.001 A 
ATOM      2  C   UNL     1       1.170   2.086   0.002  0.00  0.00    +0.002 A 
ATOM      3  C   UNL     1       2.382   1.420  -0.013  0.00  0.00    +0.030 A 
ATOM      4  C   UNL     1       2.415   0.041  -0.021  0.00  0.00    +0.126 A 
ATOM      5  C   UNL     1       1.222  -0.682  -0.013  0.00  0.00    +0.051 A 
ATOM      6  C   UNL     1       0.002  -0.004   0.002  0.00  0.00    +0.019 A 
ENDROOT
BRANCH   4   7
ATOM      7  S   UNL     1       3.960  -0.806  -0.042  0.00  0.00    +0.094 S 
ATOM      8  O   UNL     1       3.875  -1.781  -1.072  0.00  0.00    -0.148 OA
ATOM      9  O   UNL     1       4.971   0.193  -0.020  0.00  0.00    -0.148 OA
BRANCH   7  10
ATOM     10  N   UNL     1       4.083  -1.635   1.386  0.00  0.00    -0.078 NA
BRANCH  10  11
ATOM     11  C   UNL     1       5.212  -2.403   1.650  0.00  0.00    +0.163 A 
ATOM     12  C   UNL     1       5.306  -3.101   2.849  0.00  0.00    +0.048 A 
ATOM     13  C   UNL     1       6.435  -3.861   3.099  0.00  0.00    +0.025 A 
ATOM     14  C   UNL     1       7.436  -3.897   2.136  0.00  0.00    +0.059 A 
ATOM     15  C   UNL     1       7.276  -3.178   0.967  0.00  0.00    +0.133 A 
ATOM     16  N   UNL     1       6.186  -2.466   0.755  0.00  0.00    -0.236 NA
ATOM     17 CL   UNL     1       8.873  -4.835   2.399  0.00  0.00    -0.082 Cl
ENDBRANCH  10  11
ENDBRANCH   7  10
ENDBRANCH   4   7
BRANCH   5  18
ATOM     18  C   UNL     1       1.248  -2.114  -0.022  0.00  0.00    -0.066 C 
ATOM     19  C   UNL     1       1.270  -3.288  -0.029  0.00  0.00    -0.117 C 
BRANCH  19  20
ATOM     20  C   UNL     1       1.297  -4.760  -0.037  0.00  0.00    +0.005 C 
BRANCH  20  21
ATOM     21  N   UNL     1      -0.078  -5.275  -0.026  0.00  0.00    +0.385 N 
ATOM     22  H   UNL     1      -0.552  -4.952   0.804  0.00  0.00    -0.089 HD
ATOM     23  H   UNL     1      -0.569  -4.943  -0.843  0.00  0.00    -0.089 HD
ATOM     24  H   UNL     1      -0.060  -6.284  -0.032  0.00  0.00    -0.089 HD
ENDBRANCH  20  21
ENDBRANCH  19  20
ENDBRANCH   5  18
TORSDOF 6
