REMARK  Name = ZINC35337733
REMARK  10 active torsions:
REMARK  status: ('A' for Active; 'I' for Inactive)
REMARK    1  A    between atoms: C_1  and  C_2
REMARK    2  A    between atoms: C_3  and  C_32
REMARK    3  A    between atoms: C_4  and  C_13
REMARK    4  A    between atoms: C_16  and  N_19
REMARK    5  A    between atoms: C_20  and  C_22
REMARK    6  A    between atoms: C_25  and  O_30
REMARK    7  A    between atoms: C_27  and  O_28
REMARK    8  A    between atoms: O_28  and  C_29
REMARK    9  A    between atoms: O_30  and  C_31
REMARK   10  A    between atoms: N_34  and  C_35
REMARK                            x       y       z     vdW  Elec       q    Type
REMARK                         _______ _______ _______ _____ _____    ______ ____
ROOT
ATOM      1  C   UNL     1      -1.300  -2.644  -1.509  0.00  0.00    -0.022 A 
ATOM      2  C   UNL     1      -0.254  -2.454  -2.393  0.00  0.00    +0.007 A 
ATOM      3  C   UNL     1      -0.383  -2.842  -3.712  0.00  0.00    +0.023 A 
ATOM      4  C   UNL     1      -1.566  -3.423  -4.150  0.00  0.00    +0.034 A 
ATOM      5  C   UNL     1      -2.615  -3.613  -3.260  0.00  0.00    +0.023 A 
ATOM      6  C   UNL     1      -2.477  -3.228  -1.941  0.00  0.00    +0.007 A 
ENDROOT
BRANCH   1  10
ATOM      7  C   UNL     1      -0.550   1.600   0.052  0.00  0.00    +0.064 C 
ATOM      8  C   UNL     1      -0.319   0.112   0.011  0.00  0.00    +0.025 C 
ATOM      9  C   UNL     1      -1.386  -0.734   0.044  0.00  0.00    +0.058 C 
ATOM     10  C   UNL     1      -1.155  -2.220  -0.070  0.00  0.00    +0.142 C 
ATOM     11  N   UNL     1       0.207  -2.527   0.403  0.00  0.00    -0.300 N 
ATOM     12  C   UNL     1       0.407  -3.759   1.159  0.00  0.00    +0.109 C 
ATOM     13  C   UNL     1       1.696  -4.479   0.794  0.00  0.00    +0.030 C 
ATOM     14  C   UNL     1       2.894  -3.611   1.206  0.00  0.00    +0.078 C 
ATOM     15  S   UNL     1       2.896  -2.142   0.134  0.00  0.00    -0.092 S 
ATOM     16  C   UNL     1       1.206  -1.636   0.149  0.00  0.00    +0.135 C 
ATOM     17  N   UNL     1       0.923  -0.357  -0.064  0.00  0.00    -0.341 N 
ATOM     18  H   UNL     1       1.644   0.256  -0.276  0.00  0.00    +0.167 HD
BRANCH   9  19
ATOM     19  C   UNL     1      -2.691  -0.226   0.185  0.00  0.00    +0.244 C 
ATOM     20  O   UNL     1      -2.871   0.976   0.277  0.00  0.00    -0.270 OA
ATOM     21  N   UNL     1      -3.742  -1.069   0.217  0.00  0.00    -0.315 N 
ATOM     22  C   UNL     1      -5.101  -0.541   0.363  0.00  0.00    +0.128 C 
ATOM     23  H   UNL     1      -3.599  -2.026   0.144  0.00  0.00    +0.149 HD
ENDBRANCH   9  19
ENDBRANCH   1  10
BRANCH   4  24
ATOM     24  N   UNL     1      -1.701  -3.817  -5.486  0.00  0.00    -0.281 N 
ATOM     25  C   UNL     1      -2.901  -3.739  -6.093  0.00  0.00    +0.252 C 
ATOM     26  O   UNL     1      -3.845  -3.238  -5.513  0.00  0.00    -0.270 OA
ATOM     27  H   UNL     1      -0.930  -4.145  -5.975  0.00  0.00    +0.155 HD
BRANCH  25  28
ATOM     28  C   UNL     1      -3.070  -4.261  -7.460  0.00  0.00    +0.079 A 
ATOM     29  C   UNL     1      -1.988  -4.843  -8.128  0.00  0.00    +0.020 A 
ATOM     30  C   UNL     1      -2.149  -5.329  -9.405  0.00  0.00    +0.046 A 
ATOM     31  C   UNL     1      -3.387  -5.244 -10.036  0.00  0.00    +0.124 A 
ATOM     32  C   UNL     1      -4.467  -4.669  -9.383  0.00  0.00    +0.092 A 
ATOM     33  C   UNL     1      -4.319  -4.182  -8.095  0.00  0.00    +0.136 A 
BRANCH  33  34
ATOM     34  O   UNL     1      -5.375  -3.624  -7.452  0.00  0.00    -0.494 OA
ATOM     35  C   UNL     1      -6.615  -3.578  -8.162  0.00  0.00    +0.277 C 
ENDBRANCH  33  34
BRANCH  31  36
ATOM     36  O   UNL     1      -3.538  -5.726 -11.295  0.00  0.00    -0.495 OA
ATOM     37  C   UNL     1      -2.385  -6.306 -11.910  0.00  0.00    +0.277 C 
ENDBRANCH  31  36
ENDBRANCH  25  28
ENDBRANCH   4  24
TORSDOF 6
