REMARK  Name = ZINC36072040
REMARK  9 active torsions:
REMARK  status: ('A' for Active; 'I' for Inactive)
REMARK    1  A    between atoms: C_1  and  C_2
REMARK    2  A    between atoms: C_3  and  C_29
REMARK    3  A    between atoms: C_4  and  C_22
REMARK    4  A    between atoms: C_7  and  C_12
REMARK    5  A    between atoms: C_13  and  N_15
REMARK    6  A    between atoms: N_15  and  C_16
REMARK    7  A    between atoms: C_16  and  C_17
REMARK    8  A    between atoms: N_31  and  C_32
REMARK    9  A    between atoms: N_31  and  C_33
REMARK                            x       y       z     vdW  Elec       q    Type
REMARK                         _______ _______ _______ _____ _____    ______ ____
ROOT
ATOM      1  C   UNL     1       0.047   1.889   0.286  0.00  0.00    +0.066 C 
ATOM      2  C   UNL     1       0.053   0.382   0.330  0.00  0.00    +0.051 C 
ATOM      3  C   UNL     1      -1.122  -0.314   0.134  0.00  0.00    +0.060 C 
ATOM      4  C   UNL     1      -1.064  -1.824   0.188  0.00  0.00    +0.148 C 
ATOM      5  N   UNL     1       0.263  -2.442   0.450  0.00  0.00    -0.267 N 
ATOM      6  C   UNL     1       0.549  -3.790   0.540  0.00  0.00    +0.048 C 
ATOM      7  C   UNL     1       1.830  -4.144   0.785  0.00  0.00    +0.072 C 
ATOM      8  S   UNL     1       2.637  -2.558   0.888  0.00  0.00    -0.060 S 
ATOM      9  C   UNL     1       1.306  -1.574   0.616  0.00  0.00    +0.166 C 
ATOM     10  N   UNL     1       1.188  -0.264   0.551  0.00  0.00    -0.230 NA
ENDROOT
BRANCH   4  11
ATOM     11  C   UNL     1      -1.571  -2.355  -1.128  0.00  0.00    -0.022 A 
ATOM     12  C   UNL     1      -0.717  -2.446  -2.212  0.00  0.00    +0.007 A 
ATOM     13  C   UNL     1      -1.181  -2.933  -3.419  0.00  0.00    +0.020 A 
ATOM     14  C   UNL     1      -2.501  -3.329  -3.544  0.00  0.00    +0.041 A 
ATOM     15  C   UNL     1      -3.355  -3.238  -2.459  0.00  0.00    +0.020 A 
ATOM     16  C   UNL     1      -2.888  -2.756  -1.251  0.00  0.00    +0.007 A 
ATOM     17 CL   UNL     1      -3.084  -3.940  -5.060  0.00  0.00    -0.084 Cl
ENDBRANCH   4  11
BRANCH   3  18
ATOM     18  C   UNL     1      -2.330   0.357  -0.107  0.00  0.00    +0.246 C 
ATOM     19  O   UNL     1      -2.737   0.488  -1.248  0.00  0.00    -0.270 OA
ATOM     20  N   UNL     1      -3.041   0.856   0.924  0.00  0.00    -0.304 N 
ATOM     21  C   UNL     1      -4.346   1.475   0.682  0.00  0.00    +0.132 C 
ATOM     22  C   UNL     1      -2.507   0.780   2.286  0.00  0.00    +0.132 C 
ENDBRANCH   3  18
BRANCH   6  23
ATOM     23  C   UNL     1      -0.502  -4.804   0.377  0.00  0.00    +0.091 C 
ATOM     24  C   UNL     1      -0.225  -6.104   0.597  0.00  0.00    +0.239 C 
ATOM     25  O   UNL     1       1.048  -6.490   0.858  0.00  0.00    -0.271 OA
BRANCH  24  26
ATOM     26  N   UNL     1      -1.239  -7.045   0.556  0.00  0.00    -0.305 N 
ATOM     27  H   UNL     1      -2.136  -6.780   0.298  0.00  0.00    +0.149 HD
BRANCH  26  28
ATOM     28  C   UNL     1      -0.959  -8.440   0.904  0.00  0.00    +0.179 C 
BRANCH  28  29
ATOM     29  C   UNL     1      -2.190  -9.275   0.664  0.00  0.00    +0.122 A 
ATOM     30  C   UNL     1      -2.502  -9.904  -0.483  0.00  0.00    +0.046 A 
ATOM     31  C   UNL     1      -3.733 -10.564  -0.267  0.00  0.00    +0.041 A 
ATOM     32  C   UNL     1      -4.100 -10.298   1.000  0.00  0.00    +0.195 A 
ATOM     33  O   UNL     1      -3.159  -9.522   1.560  0.00  0.00    -0.466 OA
ENDBRANCH  28  29
ENDBRANCH  26  28
ENDBRANCH  24  26
ENDBRANCH   6  23
TORSDOF 6
