REMARK  Name = ZINC00747466
REMARK  8 active torsions:
REMARK  status: ('A' for Active; 'I' for Inactive)
REMARK    1  A    between atoms: C_1  and  C_2
REMARK    2  A    between atoms: C_5  and  N_8
REMARK    3  A    between atoms: N_11  and  C_12
REMARK    4  A    between atoms: C_15  and  N_24
REMARK    5  A    between atoms: C_16  and  C_18
REMARK    6  A    between atoms: N_20  and  C_21
REMARK    7  A    between atoms: C_21  and  C_22
REMARK    8  A    between atoms: C_21  and  C_23
REMARK                            x       y       z     vdW  Elec       q    Type
REMARK                         _______ _______ _______ _____ _____    ______ ____
ROOT
ATOM      1  C   UNL     1       3.568   6.121   0.173  0.00  0.00    +0.036 A 
ATOM      2  C   UNL     1       4.796   5.477   0.056  0.00  0.00    +0.025 A 
ATOM      3  C   UNL     1       5.967   6.205   0.057  0.00  0.00    +0.026 A 
ATOM      4  C   UNL     1       5.929   7.588   0.186  0.00  0.00    +0.042 A 
ATOM      5  C   UNL     1       4.695   8.243   0.310  0.00  0.00    +0.059 A 
ATOM      6  C   UNL     1       3.513   7.497   0.303  0.00  0.00    +0.038 A 
ENDROOT
BRANCH   1  10
ATOM      7  N   UNL     1       1.116   3.607  -0.688  0.00  0.00    -0.269 N 
ATOM      8  C   UNL     1       2.285   4.273  -0.608  0.00  0.00    +0.308 C 
ATOM      9  O   UNL     1       3.251   3.882  -1.234  0.00  0.00    -0.252 OA
ATOM     10  N   UNL     1       2.382   5.372   0.166  0.00  0.00    -0.269 N 
ATOM     11  H   UNL     1       0.327   3.956  -0.244  0.00  0.00    +0.156 HD
ATOM     12  H   UNL     1       1.633   5.645   0.717  0.00  0.00    +0.156 HD
BRANCH   7  17
ATOM     13  C   UNL     1       0.806  -1.238  -3.623  0.00  0.00    +0.044 C 
ATOM     14  C   UNL     1       0.888   0.049  -2.844  0.00  0.00    -0.050 A 
ATOM     15  C   UNL     1       0.141   0.206  -1.691  0.00  0.00    +0.005 A 
ATOM     16  C   UNL     1       0.214   1.385  -0.974  0.00  0.00    +0.023 A 
ATOM     17  C   UNL     1       1.040   2.412  -1.412  0.00  0.00    +0.035 A 
ATOM     18  C   UNL     1       1.790   2.250  -2.569  0.00  0.00    +0.023 A 
ATOM     19  C   UNL     1       1.712   1.070  -3.282  0.00  0.00    +0.005 A 
ENDBRANCH   7  17
ENDBRANCH   1  10
BRANCH   4  20
ATOM     20  N   UNL     1       7.112   8.320   0.193  0.00  0.00    -0.329 N 
ATOM     21  C   UNL     1       8.058   7.795   1.209  0.00  0.00    +0.105 C 
ATOM     22  C   UNL     1       9.429   8.336   0.730  0.00  0.00    +0.020 C 
ATOM     23  C   UNL     1       9.322   8.235  -0.808  0.00  0.00    +0.020 C 
ATOM     24  C   UNL     1       7.811   8.209  -1.106  0.00  0.00    +0.105 C 
ENDBRANCH   4  20
BRANCH   5  25
ATOM     25  C   UNL     1       4.645   9.710   0.449  0.00  0.00    +0.246 C 
ATOM     26  O   UNL     1       5.666  10.364   0.359  0.00  0.00    -0.270 OA
ATOM     27  N   UNL     1       3.467  10.326   0.674  0.00  0.00    -0.309 N 
ATOM     28  H   UNL     1       2.653   9.804   0.745  0.00  0.00    +0.149 HD
BRANCH  27  29
ATOM     29  C   UNL     1       3.418  11.783   0.811  0.00  0.00    +0.067 C 
ATOM     30  C   UNL     1       2.020  12.283   0.440  0.00  0.00    +0.027 C 
ATOM     31  C   UNL     1       3.730  12.170   2.258  0.00  0.00    +0.027 C 
ENDBRANCH  27  29
ENDBRANCH   5  25
TORSDOF 5
