REMARK  Name = ZINC13396353
REMARK  5 active torsions:
REMARK  status: ('A' for Active; 'I' for Inactive)
REMARK    1  A    between atoms: C_3  and  S_20
REMARK    2  A    between atoms: C_6  and  N_7
REMARK    3  A    between atoms: C_8  and  C_10
REMARK    4  A    between atoms: S_20  and  N_23
REMARK    5  A    between atoms: C_27  and  C_30
REMARK                            x       y       z     vdW  Elec       q    Type
REMARK                         _______ _______ _______ _____ _____    ______ ____
ROOT
ATOM      1  C   UNL     1       4.695   5.699  -0.104  0.00  0.00    +0.025 A 
ATOM      2  C   UNL     1       5.853   6.446  -0.198  0.00  0.00    +0.030 A 
ATOM      3  C   UNL     1       7.078   5.816  -0.313  0.00  0.00    +0.106 A 
ATOM      4  C   UNL     1       7.149   4.435  -0.328  0.00  0.00    +0.030 A 
ATOM      5  C   UNL     1       5.996   3.681  -0.230  0.00  0.00    +0.025 A 
ATOM      6  C   UNL     1       4.764   4.311  -0.114  0.00  0.00    +0.034 A 
ENDROOT
BRANCH   6   7
ATOM      7  N   UNL     1       3.594   3.551  -0.014  0.00  0.00    -0.281 N 
ATOM      8  C   UNL     1       2.560   4.000   0.724  0.00  0.00    +0.251 C 
ATOM      9  O   UNL     1       2.677   5.017   1.380  0.00  0.00    -0.270 OA
ATOM     10  H   UNL     1       3.528   2.701  -0.476  0.00  0.00    +0.155 HD
BRANCH   8  11
ATOM     11  C   UNL     1       1.285   3.257   0.736  0.00  0.00    +0.078 A 
ATOM     12  C   UNL     1       1.148   2.087  -0.017  0.00  0.00    +0.057 A 
ATOM     13  C   UNL     1      -0.046   1.396  -0.002  0.00  0.00    +0.162 A 
ATOM     14  C   UNL     1      -1.114   1.863   0.754  0.00  0.00    +0.196 A 
ATOM     15  C   UNL     1      -0.983   3.019   1.508  0.00  0.00    +0.197 A 
ATOM     16  C   UNL     1       0.210   3.721   1.501  0.00  0.00    +0.174 A 
ATOM     17  F   UNL     1       0.336   4.850   2.231  0.00  0.00    -0.202 F 
ATOM     18  F   UNL     1      -2.023   3.465   2.246  0.00  0.00    -0.199 F 
ATOM     19  F   UNL     1      -2.282   1.185   0.759  0.00  0.00    -0.199 F 
ATOM     20  F   UNL     1      -0.179   0.266  -0.730  0.00  0.00    -0.202 F 
ENDBRANCH   8  11
ENDBRANCH   6   7
BRANCH   3  21
ATOM     21  S   UNL     1       8.551   6.774  -0.439  0.00  0.00    +0.061 S 
ATOM     22  O   UNL     1       8.267   8.036   0.148  0.00  0.00    -0.153 OA
ATOM     23  O   UNL     1       9.614   5.946   0.012  0.00  0.00    -0.153 OA
BRANCH  21  24
ATOM     24  N   UNL     1       8.818   7.050  -2.050  0.00  0.00    -0.176 NA
ATOM     25  C   UNL     1       8.255   8.236  -2.709  0.00  0.00    +0.109 C 
ATOM     26  C   UNL     1       7.460   7.786  -3.939  0.00  0.00    +0.018 C 
ATOM     27  C   UNL     1       8.358   6.934  -4.838  0.00  0.00    +0.017 C 
ATOM     28  C   UNL     1       8.813   5.688  -4.075  0.00  0.00    +0.118 C 
ATOM     29  C   UNL     1       9.628   6.117  -2.845  0.00  0.00    +0.124 C 
BRANCH  28  30
ATOM     30  C   UNL     1       9.670   4.833  -4.972  0.00  0.00    +0.360 C 
ATOM     31  O   UNL     1      10.811   4.587  -4.662  0.00  0.00    -0.246 OA
ATOM     32  O   UNL     1       9.165   4.345  -6.116  0.00  0.00    -0.246 OA
ENDBRANCH  28  30
ENDBRANCH  21  24
ENDBRANCH   3  21
TORSDOF 5
