REMARK  Name = ZINC19600755
REMARK  7 active torsions:
REMARK  status: ('A' for Active; 'I' for Inactive)
REMARK    1  A    between atoms: C_4  and  O_7
REMARK    2  A    between atoms: O_7  and  C_8
REMARK    3  A    between atoms: C_11  and  C_14
REMARK    4  A    between atoms: N_19  and  C_22
REMARK    5  A    between atoms: C_22  and  C_23
REMARK    6  A    between atoms: N_25  and  C_26
REMARK    7  A    between atoms: C_31  and  C_32
REMARK                            x       y       z     vdW  Elec       q    Type
REMARK                         _______ _______ _______ _____ _____    ______ ____
ROOT
ATOM      1  C   UNL     1       0.281   1.028  -0.094  0.00  0.00    +0.246 C 
ATOM      2  O   UNL     1       0.307  -0.051  -0.655  0.00  0.00    -0.270 OA
ATOM      3  N   UNL     1       1.423   1.573   0.370  0.00  0.00    -0.301 N 
ATOM      4  C   UNL     1       1.426   2.911   0.982  0.00  0.00    +0.089 C 
ATOM      5  C   UNL     1       2.137   2.816   2.342  0.00  0.00    -0.059 C 
ATOM      6  N   UNL     1       3.465   2.216   2.154  0.00  0.00    +0.387 N 
ATOM      7  C   UNL     1       3.361   0.839   1.653  0.00  0.00    -0.059 C 
ATOM      8  C   UNL     1       2.700   0.850   0.271  0.00  0.00    +0.089 C 
ATOM      9  H   UNL     1       3.995   2.809   1.394  0.00  0.00    -0.081 HD
ENDROOT
BRANCH   1  13
ATOM     10  C   UNL     1      -3.404   3.082   0.393  0.00  0.00    +0.128 A 
ATOM     11  C   UNL     1      -3.374   1.692   0.431  0.00  0.00    +0.047 A 
ATOM     12  C   UNL     1      -2.181   1.023   0.274  0.00  0.00    +0.016 A 
ATOM     13  C   UNL     1      -1.000   1.742   0.075  0.00  0.00    +0.037 A 
ATOM     14  C   UNL     1      -1.033   3.138   0.043  0.00  0.00    +0.016 A 
ATOM     15  C   UNL     1      -2.230   3.800   0.195  0.00  0.00    +0.047 A 
BRANCH  10  16
ATOM     16  O   UNL     1      -4.581   3.738   0.549  0.00  0.00    -0.456 OA
BRANCH  16  20
ATOM     17  C   UNL     1      -6.174   3.984   4.346  0.00  0.00    +0.000 A 
ATOM     18  C   UNL     1      -6.891   4.463   3.265  0.00  0.00    +0.004 A 
ATOM     19  C   UNL     1      -6.359   4.382   1.993  0.00  0.00    +0.046 A 
ATOM     20  C   UNL     1      -5.106   3.819   1.800  0.00  0.00    +0.128 A 
ATOM     21  C   UNL     1      -4.391   3.335   2.886  0.00  0.00    +0.046 A 
ATOM     22  C   UNL     1      -4.924   3.423   4.157  0.00  0.00    +0.004 A 
ENDBRANCH  16  20
ENDBRANCH  10  16
ENDBRANCH   1  13
BRANCH   6  23
ATOM     23  C   UNL     1       4.246   2.268   3.397  0.00  0.00    +0.019 C 
BRANCH  23  24
ATOM     24  C   UNL     1       3.530   1.492   4.473  0.00  0.00    +0.201 C 
ATOM     25  O   UNL     1       2.441   1.009   4.248  0.00  0.00    -0.278 OA
ATOM     26  N   UNL     1       4.101   1.336   5.683  0.00  0.00    -0.287 N 
ATOM     27  H   UNL     1       5.052   1.839   5.912  0.00  0.00    +0.155 HD
BRANCH  26  28
ATOM     28  C   UNL     1       3.483   0.534   6.650  0.00  0.00    +0.045 A 
ATOM     29  C   UNL     1       2.761  -0.588   6.265  0.00  0.00    +0.024 A 
ATOM     30  C   UNL     1       2.157  -1.380   7.221  0.00  0.00    +0.002 A 
ATOM     31  C   UNL     1       2.262  -1.051   8.560  0.00  0.00    +0.001 A 
ATOM     32  C   UNL     1       2.975   0.068   8.946  0.00  0.00    +0.014 A 
ATOM     33  C   UNL     1       3.586   0.862   7.995  0.00  0.00    +0.076 A 
BRANCH  33  34
ATOM     34  C   UNL     1       4.363   2.083   8.417  0.00  0.00    +0.419 C 
ATOM     35  F   UNL     1       4.323   2.202   9.810  0.00  0.00    -0.166 F 
ATOM     36  F   UNL     1       5.692   1.958   7.997  0.00  0.00    -0.166 F 
ATOM     37  F   UNL     1       3.795   3.221   7.834  0.00  0.00    -0.166 F 
ENDBRANCH  33  34
ENDBRANCH  26  28
ENDBRANCH  23  24
ENDBRANCH   6  23
TORSDOF 7
