REMARK  Name = ZINC13154799
REMARK  6 active torsions:
REMARK  status: ('A' for Active; 'I' for Inactive)
REMARK    1  A    between atoms: C_1  and  C_2
REMARK    2  A    between atoms: C_2  and  C_22
REMARK    3  A    between atoms: N_3  and  N_4
REMARK    4  A    between atoms: C_5  and  S_7
REMARK    5  A    between atoms: S_7  and  C_8
REMARK    6  A    between atoms: N_13  and  C_16
REMARK                            x       y       z     vdW  Elec       q    Type
REMARK                         _______ _______ _______ _____ _____    ______ ____
ROOT
ATOM      1  N   UNL     1      -0.356  -0.854   2.297  0.00  0.00    -0.259 N 
ATOM      2  C   UNL     1      -0.260  -1.293   3.535  0.00  0.00    +0.146 C 
ATOM      3  N   UNL     1      -0.293  -2.643   3.789  0.00  0.00    -0.338 N 
ATOM      4  H   UNL     1      -0.386  -3.273   3.057  0.00  0.00    +0.144 HD
ATOM      5  H   UNL     1      -0.222  -2.967   4.701  0.00  0.00    +0.144 HD
ATOM      6  H   UNL     1      -0.334   0.100   2.117  0.00  0.00    +0.191 HD
ENDROOT
BRANCH   1   9
ATOM      7  C   UNL     1      -0.551   0.155  -0.269  0.00  0.00    +0.068 C 
ATOM      8  C   UNL     1      -0.587  -1.326   0.010  0.00  0.00    +0.072 C 
ATOM      9  N   UNL     1      -0.491  -1.762   1.239  0.00  0.00    -0.176 NA
BRANCH   8  10
ATOM     10  C   UNL     1      -0.728  -2.275  -1.095  0.00  0.00    +0.035 A 
ATOM     11  C   UNL     1      -0.787  -3.659  -1.055  0.00  0.00    +0.017 A 
ATOM     12  C   UNL     1      -0.924  -4.341  -2.243  0.00  0.00    +0.008 A 
ATOM     13  C   UNL     1      -0.997  -3.643  -3.406  0.00  0.00    +0.046 A 
ATOM     14  S   UNL     1      -0.877  -1.953  -2.845  0.00  0.00    -0.095 S 
ENDBRANCH   8  10
ENDBRANCH   1   9
BRANCH   2  15
ATOM     15  S   UNL     1      -0.090  -0.150   4.865  0.00  0.00    -0.078 S 
BRANCH  15  16
ATOM     16  C   UNL     1       0.002  -1.203   6.339  0.00  0.00    +0.149 C 
ATOM     17  C   UNL     1       0.083  -0.342   7.617  0.00  0.00    +0.120 C 
ATOM     18  C   UNL     1       1.416  -0.728   8.220  0.00  0.00    +0.228 C 
ATOM     19  O   UNL     1       1.878  -0.279   9.247  0.00  0.00    -0.275 OA
ATOM     20  N   UNL     1       2.004  -1.643   7.440  0.00  0.00    -0.209 N 
ATOM     21  C   UNL     1       1.296  -1.987   6.353  0.00  0.00    +0.240 C 
ATOM     22  O   UNL     1       1.636  -2.795   5.516  0.00  0.00    -0.274 OA
BRANCH  20  23
ATOM     23  C   UNL     1       3.257  -2.200   7.735  0.00  0.00    +0.044 A 
ATOM     24  C   UNL     1       3.407  -3.029   8.839  0.00  0.00    +0.024 A 
ATOM     25  C   UNL     1       4.643  -3.575   9.127  0.00  0.00    +0.002 A 
ATOM     26  C   UNL     1       5.729  -3.297   8.318  0.00  0.00    +0.000 A 
ATOM     27  C   UNL     1       5.582  -2.472   7.218  0.00  0.00    +0.002 A 
ATOM     28  C   UNL     1       4.348  -1.927   6.921  0.00  0.00    +0.024 A 
ENDBRANCH  20  23
ENDBRANCH  15  16
ENDBRANCH   2  15
TORSDOF 5
