REMARK  Name = ZINC04222050
REMARK  10 active torsions:
REMARK  status: ('A' for Active; 'I' for Inactive)
REMARK    1  A    between atoms: C_1  and  C_2
REMARK    2  A    between atoms: C_10  and  C_12
REMARK    3  A    between atoms: C_22  and  C_42
REMARK    4  A    between atoms: C_25  and  O_41
REMARK    5  A    between atoms: C_27  and  C_31
REMARK    6  A    between atoms: C_31  and  C_33
REMARK    7  A    between atoms: C_31  and  C_34
REMARK    8  A    between atoms: N_36  and  C_37
REMARK    9  A    between atoms: N_36  and  C_38
REMARK   10  A    between atoms: C_38  and  C_39
REMARK                            x       y       z     vdW  Elec       q    Type
REMARK                         _______ _______ _______ _____ _____    ______ ____
ROOT
ATOM      1  C   UNL     1      -2.061  -3.439  -0.328  0.00  0.00    +0.014 C 
ATOM      2  C   UNL     1      -0.846  -4.062   0.362  0.00  0.00    +0.042 C 
ATOM      3  C   UNL     1       0.391  -3.228   0.061  0.00  0.00    +0.057 A 
ATOM      4  C   UNL     1       1.577  -3.833  -0.211  0.00  0.00    +0.015 A 
ATOM      5  S   UNL     1       2.663  -2.459  -0.481  0.00  0.00    -0.057 S 
ATOM      6  C   UNL     1       1.490  -1.204  -0.211  0.00  0.00    +0.165 A 
ATOM      7  N   UNL     1       0.400  -1.897   0.047  0.00  0.00    -0.229 NA
ATOM      8  N   UNL     1       1.658   0.173  -0.262  0.00  0.00    -0.261 N 
ATOM      9  C   UNL     1       2.868   0.695  -0.547  0.00  0.00    +0.250 C 
ATOM     10  O   UNL     1       3.812  -0.041  -0.760  0.00  0.00    -0.270 OA
ATOM     11  C   UNL     1       1.861  -5.294  -0.268  0.00  0.00    +0.051 C 
ATOM     12  C   UNL     1       0.689  -6.051   0.362  0.00  0.00    -0.022 C 
ATOM     13  C   UNL     1      -0.638  -5.489  -0.160  0.00  0.00    +0.033 C 
ATOM     14  C   UNL     1      -1.768  -6.380   0.388  0.00  0.00    +0.123 C 
ATOM     15  C   UNL     1      -1.769  -6.258   1.913  0.00  0.00    +0.029 C 
ATOM     16  C   UNL     1      -0.431  -6.737   2.478  0.00  0.00    +0.007 C 
ATOM     17  C   UNL     1       0.710  -5.907   1.883  0.00  0.00    +0.008 C 
ATOM     18  C   UNL     1       0.789  -7.532  -0.005  0.00  0.00    +0.012 C 
ATOM     19  H   UNL     1       0.904   0.760  -0.096  0.00  0.00    +0.157 HD
ENDROOT
BRANCH   9  20
ATOM     20  C   UNL     1       3.046   2.159  -0.601  0.00  0.00    +0.041 A 
ATOM     21  C   UNL     1       1.960   3.006  -0.362  0.00  0.00    +0.017 A 
ATOM     22  C   UNL     1       2.130   4.372  -0.407  0.00  0.00    +0.050 A 
ATOM     23  C   UNL     1       3.375   4.912  -0.701  0.00  0.00    +0.166 A 
ATOM     24  C   UNL     1       4.462   4.072  -0.946  0.00  0.00    +0.167 A 
ATOM     25  C   UNL     1       4.299   2.701  -0.896  0.00  0.00    +0.062 A 
ATOM     26  O   UNL     1       5.558   4.843  -1.207  0.00  0.00    -0.453 OA
ATOM     27  C   UNL     1       5.042   6.149  -1.523  0.00  0.00    +0.466 C 
ATOM     28  O   UNL     1       3.793   6.206  -0.810  0.00  0.00    -0.453 OA
ENDBRANCH   9  20
BRANCH  15  29
ATOM     29  C   UNL     1      -2.899  -7.114   2.490  0.00  0.00    +0.078 C 
ATOM     30  C   UNL     1      -4.239  -6.636   1.927  0.00  0.00    +0.017 C 
BRANCH  29  31
ATOM     31  C   UNL     1      -2.910  -6.984   3.992  0.00  0.00    +0.219 C 
ATOM     32  O   UNL     1      -2.324  -6.067   4.526  0.00  0.00    -0.275 OA
ATOM     33  N   UNL     1      -3.573  -7.888   4.741  0.00  0.00    -0.301 N 
ATOM     34  C   UNL     1      -4.361  -8.940   4.093  0.00  0.00    +0.132 C 
BRANCH  33  35
ATOM     35  C   UNL     1      -3.506  -7.818   6.202  0.00  0.00    +0.134 C 
BRANCH  35  36
ATOM     36  C   UNL     1      -4.623  -6.947   6.716  0.00  0.00    -0.016 C 
ATOM     37  C   UNL     1      -5.459  -7.414   7.610  0.00  0.00    +0.005 C 
ENDBRANCH  35  36
ENDBRANCH  33  35
ENDBRANCH  29  31
ENDBRANCH  15  29
BRANCH  14  38
ATOM     38  O   UNL     1      -1.551  -7.743   0.016  0.00  0.00    -0.391 OA
ATOM     39  H   UNL     1      -2.224  -8.353   0.349  0.00  0.00    +0.210 HD
ENDBRANCH  14  38
TORSDOF 6
