REMARK  Name = ZINC04366898
REMARK  9 active torsions:
REMARK  status: ('A' for Active; 'I' for Inactive)
REMARK    1  A    between atoms: C_1  and  C_2
REMARK    2  A    between atoms: C_2  and  C_4
REMARK    3  A    between atoms: C_2  and  N_10
REMARK    4  A    between atoms: C_11  and  C_13
REMARK    5  A    between atoms: C_15  and  N_22
REMARK    6  A    between atoms: C_18  and  N_19
REMARK    7  A    between atoms: N_19  and  C_20
REMARK    8  A    between atoms: N_19  and  C_21
REMARK    9  A    between atoms: N_25  and  C_26
REMARK                            x       y       z     vdW  Elec       q    Type
REMARK                         _______ _______ _______ _____ _____    ______ ____
ROOT
ATOM      1  C   UNL     1       5.838   2.544   0.346  0.00  0.00    +0.059 A 
ATOM      2  C   UNL     1       4.731   1.691   0.341  0.00  0.00    +0.038 A 
ATOM      3  C   UNL     1       3.470   2.201   0.088  0.00  0.00    +0.036 A 
ATOM      4  C   UNL     1       3.302   3.559  -0.166  0.00  0.00    +0.025 A 
ATOM      5  C   UNL     1       4.388   4.409  -0.157  0.00  0.00    +0.025 A 
ATOM      6  C   UNL     1       5.661   3.913   0.095  0.00  0.00    +0.042 A 
ENDROOT
BRANCH   3   7
ATOM      7  N   UNL     1       2.359   1.346   0.081  0.00  0.00    -0.269 N 
ATOM      8  C   UNL     1       1.171   1.782   0.545  0.00  0.00    +0.308 C 
ATOM      9  O   UNL     1       1.040   2.941   0.889  0.00  0.00    -0.252 OA
ATOM     10  N   UNL     1       0.127   0.933   0.626  0.00  0.00    -0.269 N 
ATOM     11  H   UNL     1       2.445   0.441  -0.257  0.00  0.00    +0.156 HD
ATOM     12  H   UNL     1       0.208   0.030   0.282  0.00  0.00    +0.156 HD
BRANCH  10  13
ATOM     13  C   UNL     1      -1.076   1.356   1.203  0.00  0.00    +0.037 A 
ATOM     14  C   UNL     1      -2.285   0.869   0.725  0.00  0.00    +0.023 A 
ATOM     15  C   UNL     1      -3.471   1.285   1.298  0.00  0.00    +0.005 A 
ATOM     16  C   UNL     1      -3.457   2.193   2.341  0.00  0.00    +0.038 A 
ATOM     17  C   UNL     1      -2.253   2.685   2.817  0.00  0.00    +0.125 A 
ATOM     18  C   UNL     1      -1.062   2.268   2.249  0.00  0.00    +0.061 A 
ATOM     19  F   UNL     1      -2.241   3.572   3.835  0.00  0.00    -0.205 F 
ENDBRANCH  10  13
ENDBRANCH   3   7
BRANCH   1  21
ATOM     20  N   UNL     1       7.351   0.693   0.857  0.00  0.00    -0.305 N 
ATOM     21  C   UNL     1       7.185   2.008   0.616  0.00  0.00    +0.246 C 
ATOM     22  O   UNL     1       8.146   2.753   0.620  0.00  0.00    -0.270 OA
ATOM     23  H   UNL     1       6.584   0.099   0.853  0.00  0.00    +0.150 HD
BRANCH  20  25
ATOM     24  C   UNL     1       9.391  -0.144  -0.201  0.00  0.00    +0.033 C 
ATOM     25  C   UNL     1       8.689   0.161   1.124  0.00  0.00    +0.100 C 
BRANCH  25  26
ATOM     26  C   UNL     1       8.574  -1.105   1.934  0.00  0.00    -0.027 A 
ATOM     27  C   UNL     1       7.570  -2.014   1.656  0.00  0.00    +0.005 A 
ATOM     28  C   UNL     1       7.467  -3.178   2.396  0.00  0.00    +0.000 A 
ATOM     29  C   UNL     1       8.362  -3.428   3.419  0.00  0.00    +0.000 A 
ATOM     30  C   UNL     1       9.363  -2.517   3.700  0.00  0.00    +0.000 A 
ATOM     31  C   UNL     1       9.469  -1.355   2.958  0.00  0.00    +0.005 A 
ENDBRANCH  25  26
ENDBRANCH  20  25
ENDBRANCH   1  21
BRANCH   6  32
ATOM     32  N   UNL     1       6.756   4.770   0.098  0.00  0.00    -0.335 N 
ATOM     33  C   UNL     1       6.912   5.430  -1.205  0.00  0.00    +0.129 C 
ATOM     34  C   UNL     1       6.647   5.759   1.179  0.00  0.00    +0.129 C 
ENDBRANCH   6  32
TORSDOF 6
