REMARK  Name = ZINC41551542
REMARK  6 active torsions:
REMARK  status: ('A' for Active; 'I' for Inactive)
REMARK    1  A    between atoms: C_1  and  C_2
REMARK    2  A    between atoms: C_2  and  C_3
REMARK    3  A    between atoms: C_2  and  O_4
REMARK    4  A    between atoms: O_4  and  C_5
REMARK    5  A    between atoms: C_9  and  C_16
REMARK    6  A    between atoms: C_21  and  C_24
REMARK                            x       y       z     vdW  Elec       q    Type
REMARK                         _______ _______ _______ _____ _____    ______ ____
ROOT
ATOM      1  C   UNL     1      -2.678  -0.765  -5.949  0.00  0.00    +0.248 C 
ATOM      2  O   UNL     1      -3.174  -0.871  -7.053  0.00  0.00    -0.270 OA
ATOM      3  N   UNL     1      -1.405  -0.341  -5.821  0.00  0.00    -0.293 N 
ATOM      4  C   UNL     1      -0.557  -0.095  -7.000  0.00  0.00    +0.113 C 
ATOM      5  C   UNL     1      -0.179   1.388  -7.008  0.00  0.00    +0.054 C 
ATOM      6  C   UNL     1       0.254   1.825  -5.640  0.00  0.00    -0.039 C 
ATOM      7  C   UNL     1      -0.025   1.178  -4.533  0.00  0.00    -0.004 C 
ATOM      8  C   UNL     1      -0.809  -0.100  -4.499  0.00  0.00    +0.135 C 
ENDROOT
BRANCH   1  13
ATOM      9  C   UNL     1      -6.565   1.430  -3.341  0.00  0.00    +0.124 A 
ATOM     10  C   UNL     1      -5.840   1.782  -4.478  0.00  0.00    +0.046 A 
ATOM     11  C   UNL     1      -4.842   0.974  -4.939  0.00  0.00    +0.016 A 
ATOM     12  C   UNL     1      -4.543  -0.215  -4.268  0.00  0.00    +0.030 A 
ATOM     13  C   UNL     1      -3.472  -1.104  -4.743  0.00  0.00    +0.054 A 
ATOM     14  C   UNL     1      -3.231  -2.252  -4.041  0.00  0.00    +0.105 A 
ATOM     15  C   UNL     1      -4.007  -2.546  -2.894  0.00  0.00    +0.338 A 
ATOM     16  O   UNL     1      -3.784  -3.571  -2.274  0.00  0.00    -0.245 OA
ATOM     17  O   UNL     1      -4.980  -1.726  -2.472  0.00  0.00    -0.422 OA
ATOM     18  C   UNL     1      -5.271  -0.577  -3.119  0.00  0.00    +0.143 A 
ATOM     19  C   UNL     1      -6.279   0.258  -2.660  0.00  0.00    +0.092 A 
BRANCH   9  20
ATOM     20  O   UNL     1      -7.555   2.243  -2.894  0.00  0.00    -0.489 OA
BRANCH  20  22
ATOM     21  C   UNL     1      -7.377   2.319  -0.485  0.00  0.00    +0.051 C 
ATOM     22  C   UNL     1      -8.211   1.862  -1.683  0.00  0.00    +0.167 C 
ATOM     23  C   UNL     1      -9.592   2.518  -1.623  0.00  0.00    +0.051 C 
ENDBRANCH  20  22
ENDBRANCH   9  20
ENDBRANCH   1  13
BRANCH   6  24
ATOM     24  C   UNL     1       1.047   3.066  -5.532  0.00  0.00    +0.003 A 
ATOM     25  C   UNL     1       2.355   3.223  -5.860  0.00  0.00    +0.091 A 
ATOM     26  N   UNL     1       2.738   4.511  -5.623  0.00  0.00    -0.360 N 
ATOM     27  H   UNL     1       3.628   4.863  -5.780  0.00  0.00    +0.165 HD
ATOM     28  C   UNL     1       1.677   5.239  -5.127  0.00  0.00    +0.047 A 
ATOM     29  C   UNL     1       0.572   4.375  -5.053  0.00  0.00    +0.008 A 
ATOM     30  C   UNL     1      -0.654   4.847  -4.588  0.00  0.00    +0.026 A 
ATOM     31  C   UNL     1      -0.776   6.166  -4.205  0.00  0.00    +0.019 A 
ATOM     32  C   UNL     1       0.315   7.021  -4.282  0.00  0.00    +0.017 A 
ATOM     33  C   UNL     1       1.535   6.565  -4.732  0.00  0.00    +0.027 A 
ATOM     34 BR   UNL     1      -2.437   6.812  -3.573  0.00  0.00    -0.050 Br
ENDBRANCH   6  24
TORSDOF 4
