REMARK  Name = ZINC57352567
REMARK  4 active torsions:
REMARK  status: ('A' for Active; 'I' for Inactive)
REMARK    1  A    between atoms: C_1  and  O_2
REMARK    2  A    between atoms: O_2  and  C_3
REMARK    3  A    between atoms: C_5  and  N_28
REMARK    4  A    between atoms: C_17  and  C_22
REMARK                            x       y       z     vdW  Elec       q    Type
REMARK                         _______ _______ _______ _____ _____    ______ ____
ROOT
ATOM      1  C   UNL     1       0.626  -0.619   1.042  0.00  0.00    +0.123 A 
ATOM      2  C   UNL     1       1.206   0.134   2.058  0.00  0.00    +0.070 A 
ATOM      3  C   UNL     1       1.843  -0.467   3.120  0.00  0.00    +0.055 A 
ATOM      4  C   UNL     1       1.927  -1.881   3.208  0.00  0.00    +0.101 A 
ATOM      5  C   UNL     1       1.326  -2.609   2.159  0.00  0.00    +0.046 A 
ATOM      6  C   UNL     1       0.686  -2.003   1.105  0.00  0.00    +0.063 A 
ATOM      7  S   UNL     1       1.644  -4.292   2.635  0.00  0.00    -0.052 S 
ATOM      8  C   UNL     1       2.526  -3.935   4.148  0.00  0.00    +0.167 A 
ATOM      9  N   UNL     1       2.513  -2.623   4.176  0.00  0.00    -0.223 NA
ATOM     10  N   UNL     1       3.081  -4.818   5.059  0.00  0.00    -0.248 N 
ATOM     11  C   UNL     1       2.986  -6.178   4.847  0.00  0.00    +0.294 A 
ATOM     12  N   UNL     1       3.469  -7.096   5.644  0.00  0.00    -0.195 NA
ATOM     13  C   UNL     1       3.189  -8.320   5.119  0.00  0.00    +0.112 A 
ATOM     14  C   UNL     1       3.456  -9.625   5.530  0.00  0.00    +0.040 A 
ATOM     15  C   UNL     1       3.026 -10.692   4.751  0.00  0.00    -0.016 A 
ATOM     16  C   UNL     1       2.330 -10.457   3.562  0.00  0.00    +0.012 A 
ATOM     17  C   UNL     1       2.065  -9.168   3.154  0.00  0.00    +0.049 A 
ATOM     18  C   UNL     1       2.489  -8.095   3.923  0.00  0.00    +0.157 A 
ATOM     19  O   UNL     1       2.379  -6.752   3.793  0.00  0.00    -0.424 OA
ATOM     20  H   UNL     1       3.536  -4.481   5.846  0.00  0.00    +0.158 HD
ENDROOT
BRANCH  15  21
ATOM     21  C   UNL     1       3.306 -12.084   5.182  0.00  0.00    -0.018 A 
ATOM     22  C   UNL     1       3.995 -12.323   6.369  0.00  0.00    +0.008 A 
ATOM     23  C   UNL     1       4.253 -13.620   6.765  0.00  0.00    +0.001 A 
ATOM     24  C   UNL     1       3.829 -14.681   5.986  0.00  0.00    +0.000 A 
ATOM     25  C   UNL     1       3.145 -14.449   4.806  0.00  0.00    +0.001 A 
ATOM     26  C   UNL     1       2.876 -13.157   4.404  0.00  0.00    +0.008 A 
ENDBRANCH  15  21
BRANCH   3  27
ATOM     27  N   UNL     1       2.415   0.323   4.121  0.00  0.00    -0.356 N 
ATOM     28  H   UNL     1       2.361   1.290   4.065  0.00  0.00    +0.142 HD
ATOM     29  H   UNL     1       2.865  -0.095   4.871  0.00  0.00    +0.142 HD
ENDBRANCH   3  27
BRANCH   1  31
ATOM     30  C   UNL     1      -0.017   1.425   0.010  0.00  0.00    +0.277 C 
ATOM     31  O   UNL     1       0.002  -0.004   0.002  0.00  0.00    -0.495 OA
ENDBRANCH   1  31
TORSDOF 3
