REMARK  Name = ZINC09131709
REMARK  2 active torsions:
REMARK  status: ('A' for Active; 'I' for Inactive)
REMARK    1  A    between atoms: C_6  and  C_7
REMARK    2  A    between atoms: C_17  and  C_19
REMARK                            x       y       z     vdW  Elec       q    Type
REMARK                         _______ _______ _______ _____ _____    ______ ____
ROOT
ATOM      1  C   UNL     1      -0.074   5.593   0.031  0.00  0.00    +0.250 C 
ATOM      2  O   UNL     1       0.971   6.215   0.024  0.00  0.00    -0.270 OA
ATOM      3  N   UNL     1      -1.250   6.251   0.045  0.00  0.00    -0.261 N 
ATOM      4  C   UNL     1      -1.269   7.640   0.052  0.00  0.00    +0.165 A 
ATOM      5  N   UNL     1      -2.301   8.452   0.061  0.00  0.00    -0.229 NA
ATOM      6  C   UNL     1      -2.163   9.786   0.073  0.00  0.00    +0.066 A 
ATOM      7  C   UNL     1      -0.891  10.249   0.061  0.00  0.00    +0.015 A 
ATOM      8  S   UNL     1       0.066   8.750   0.045  0.00  0.00    -0.057 S 
ATOM      9  C   UNL     1      -0.831  11.746   0.064  0.00  0.00    +0.045 C 
ATOM     10  C   UNL     1      -2.251  12.193  -0.351  0.00  0.00    +0.024 C 
ATOM     11  C   UNL     1      -3.105  10.989   0.096  0.00  0.00    +0.124 C 
ATOM     12  H   UNL     1      -2.083   5.755   0.051  0.00  0.00    +0.157 HD
ENDROOT
BRANCH   1  18
ATOM     13  C   UNL     1       1.164   3.432   0.009  0.00  0.00    +0.016 A 
ATOM     14  C   UNL     1       1.177   2.054   0.002  0.00  0.00    +0.039 A 
ATOM     15  C   UNL     1      -0.016   1.347   0.009  0.00  0.00    +0.123 A 
ATOM     16  C   UNL     1      -1.228   2.021   0.019  0.00  0.00    +0.039 A 
ATOM     17  C   UNL     1      -1.252   3.399   0.031  0.00  0.00    +0.016 A 
ATOM     18  C   UNL     1      -0.054   4.116   0.023  0.00  0.00    +0.037 A 
ATOM     19  F   UNL     1       0.002  -0.004   0.002  0.00  0.00    -0.205 F 
ENDBRANCH   1  18
BRANCH  11  20
ATOM     20  C   UNL     1      -3.631  11.213   1.490  0.00  0.00    +0.219 C 
ATOM     21  O   UNL     1      -3.394  12.252   2.069  0.00  0.00    -0.275 OA
ATOM     22  N   UNL     1      -4.366  10.257   2.094  0.00  0.00    -0.329 N 
ATOM     23  H   UNL     1      -4.556   9.426   1.631  0.00  0.00    +0.145 HD
ATOM     24  H   UNL     1      -4.705  10.401   2.991  0.00  0.00    +0.145 HD
ENDBRANCH  11  20
TORSDOF 2
