REMARK  Name = ZINC59821777
REMARK  7 active torsions:
REMARK  status: ('A' for Active; 'I' for Inactive)
REMARK    1  A    between atoms: C_4  and  C_7
REMARK    2  A    between atoms: N_9  and  N_10
REMARK    3  A    between atoms: C_11  and  C_13
REMARK    4  A    between atoms: C_13  and  S_14
REMARK    5  A    between atoms: S_14  and  C_15
REMARK    6  A    between atoms: C_18  and  C_26
REMARK    7  A    between atoms: N_19  and  C_20
REMARK                            x       y       z     vdW  Elec       q    Type
REMARK                         _______ _______ _______ _____ _____    ______ ____
ROOT
ATOM      1  C   UNL     1       7.592  -7.287  -0.111  0.00  0.00    +0.197 A 
ATOM      2  N   UNL     1       8.730  -6.630  -0.113  0.00  0.00    -0.122 NA
ATOM      3  N   UNL     1       9.717  -7.453  -0.129  0.00  0.00    -0.128 NA
ATOM      4  C   UNL     1       9.271  -8.688  -0.138  0.00  0.00    +0.169 A 
ATOM      5  N   UNL     1       7.895  -8.621  -0.121  0.00  0.00    -0.270 N 
ENDROOT
BRANCH   4   6
ATOM      6  C   UNL     1      10.091  -9.918  -0.157  0.00  0.00    +0.020 A 
ATOM      7  C   UNL     1       9.508 -11.144  -0.483  0.00  0.00    +0.012 A 
ATOM      8  C   UNL     1      10.278 -12.288  -0.499  0.00  0.00    +0.016 A 
ATOM      9  C   UNL     1      11.627 -12.222  -0.193  0.00  0.00    +0.018 A 
ATOM     10  C   UNL     1      12.210 -11.010   0.132  0.00  0.00    +0.016 A 
ATOM     11  C   UNL     1      11.452  -9.858   0.146  0.00  0.00    +0.012 A 
ATOM     12 BR   UNL     1      12.675 -13.796  -0.217  0.00  0.00    -0.050 Br
ENDBRANCH   4   6
BRANCH   5  13
ATOM     13  C   UNL     1       6.994  -9.695  -0.118  0.00  0.00    +0.051 A 
ATOM     14  C   UNL     1       6.942 -10.556   0.970  0.00  0.00    +0.026 A 
ATOM     15  C   UNL     1       6.054 -11.614   0.970  0.00  0.00    +0.002 A 
ATOM     16  C   UNL     1       5.216 -11.815  -0.112  0.00  0.00    +0.000 A 
ATOM     17  C   UNL     1       5.265 -10.959  -1.197  0.00  0.00    +0.002 A 
ATOM     18  C   UNL     1       6.147  -9.896  -1.200  0.00  0.00    +0.026 A 
ENDBRANCH   5  13
BRANCH   1  19
ATOM     19  S   UNL     1       5.978  -6.582  -0.091  0.00  0.00    -0.076 S 
BRANCH  19  20
ATOM     20  C   UNL     1       6.280  -4.793  -0.085  0.00  0.00    +0.174 C 
BRANCH  20  22
ATOM     21  N   UNL     1       4.942  -2.713  -0.060  0.00  0.00    -0.233 N 
ATOM     22  C   UNL     1       4.963  -4.061  -0.068  0.00  0.00    +0.239 C 
ATOM     23  O   UNL     1       3.923  -4.684  -0.061  0.00  0.00    -0.273 OA
ATOM     24  H   UNL     1       5.774  -2.215  -0.066  0.00  0.00    +0.173 HD
BRANCH  21  27
ATOM     25  C   UNL     1       3.696  -0.685  -0.037  0.00  0.00    +0.260 C 
ATOM     26  O   UNL     1       4.738  -0.060  -0.044  0.00  0.00    -0.269 OA
ATOM     27  N   UNL     1       3.717  -2.032  -0.045  0.00  0.00    -0.230 N 
ATOM     28  H   UNL     1       2.885  -2.531  -0.039  0.00  0.00    +0.173 HD
BRANCH  25  32
ATOM     29  C   UNL     1      -0.017   1.379   0.010  0.00  0.00    +0.000 A 
ATOM     30  C   UNL     1       1.168   2.094   0.002  0.00  0.00    +0.001 A 
ATOM     31  C   UNL     1       2.377   1.429  -0.013  0.00  0.00    +0.013 A 
ATOM     32  C   UNL     1       2.403   0.034  -0.021  0.00  0.00    +0.038 A 
ATOM     33  C   UNL     1       1.204  -0.681  -0.013  0.00  0.00    +0.013 A 
ATOM     34  C   UNL     1       0.002  -0.004   0.002  0.00  0.00    +0.001 A 
ENDBRANCH  25  32
ENDBRANCH  21  27
ENDBRANCH  20  22
ENDBRANCH  19  20
ENDBRANCH   1  19
TORSDOF 7
