REMARK  Name = ZINC03871342
REMARK  12 active torsions:
REMARK  status: ('A' for Active; 'I' for Inactive)
REMARK    1  A    between atoms: C_1  and  C_2
REMARK    2  A    between atoms: C_7  and  C_27
REMARK    3  A    between atoms: C_10  and  C_26
REMARK    4  A    between atoms: C_12  and  C_15
REMARK    5  A    between atoms: C_15  and  C_17
REMARK    6  A    between atoms: C_15  and  C_18
REMARK    7  A    between atoms: C_18  and  C_20
REMARK    8  A    between atoms: C_29  and  C_31
REMARK    9  A    between atoms: C_31  and  C_32
REMARK   10  A    between atoms: C_39  and  N_43
REMARK   11  A    between atoms: C_40  and  C_41
REMARK   12  A    between atoms: N_43  and  C_44
REMARK                            x       y       z     vdW  Elec       q    Type
REMARK                         _______ _______ _______ _____ _____    ______ ____
ROOT
ATOM      1  C   UNL     1      -0.013   1.086   0.008  0.00  0.00    +0.010 C 
ATOM      2  C   UNL     1      -0.729   1.579   1.267  0.00  0.00    +0.016 C 
ATOM      3  C   UNL     1       0.013   1.074   2.508  0.00  0.00    +0.011 C 
ATOM      4  C   UNL     1      -0.665   1.646   3.758  0.00  0.00    +0.065 C 
ATOM      5  C   UNL     1      -0.655   3.175   3.673  0.00  0.00    +0.173 C 
ATOM      6  C   UNL     1      -1.355   3.762   4.893  0.00  0.00    +0.046 C 
ATOM      7  C   UNL     1      -0.540   3.593   6.164  0.00  0.00    +0.014 C 
ATOM      8  C   UNL     1       0.949   3.843   6.001  0.00  0.00    +0.016 C 
ATOM      9  C   UNL     1       1.499   3.252   4.707  0.00  0.00    +0.135 C 
ATOM     10  O   UNL     1       0.688   3.650   3.603  0.00  0.00    -0.344 OA
ATOM     11  C   UNL     1       1.274   5.335   6.078  0.00  0.00    +0.010 C 
ATOM     12  C   UNL     1      -1.701   5.231   4.646  0.00  0.00    +0.013 C 
ATOM     13  O   UNL     1      -1.352   3.573   2.487  0.00  0.00    -0.344 OA
ATOM     14  C   UNL     1      -0.748   3.110   1.277  0.00  0.00    +0.133 C 
ENDROOT
BRANCH   9  15
ATOM     15  C   UNL     1       2.931   3.754   4.487  0.00  0.00    +0.088 C 
ATOM     16  C   UNL     1       3.807   3.331   5.668  0.00  0.00    +0.018 C 
BRANCH  15  17
ATOM     17  C   UNL     1       3.481   3.162   3.216  0.00  0.00    +0.184 C 
ATOM     18  O   UNL     1       3.039   2.113   2.793  0.00  0.00    -0.290 OA
BRANCH  17  19
ATOM     19  C   UNL     1       4.512   3.828   2.514  0.00  0.00    +0.083 A 
ATOM     20  C   UNL     1       5.105   5.026   2.872  0.00  0.00    +0.030 A 
ATOM     21  C   UNL     1       6.070   5.308   1.903  0.00  0.00    +0.020 A 
ATOM     22  C   UNL     1       6.046   4.307   0.988  0.00  0.00    +0.083 A 
ATOM     23  N   UNL     1       5.108   3.406   1.345  0.00  0.00    -0.358 N 
ATOM     24  H   UNL     1       4.890   2.595   0.860  0.00  0.00    +0.165 HD
ENDBRANCH  17  19
ENDBRANCH  15  17
ENDBRANCH   9  15
BRANCH  14  25
ATOM     25  C   UNL     1      -1.553   3.618   0.079  0.00  0.00    +0.128 C 
BRANCH  25  26
ATOM     26  C   UNL     1      -1.470   5.121   0.019  0.00  0.00    +0.199 A 
ATOM     27  N   UNL     1      -0.557   5.791  -0.622  0.00  0.00    -0.212 NA
ATOM     28  C   UNL     1      -0.794   7.116  -0.462  0.00  0.00    +0.125 A 
ATOM     29  C   UNL     1      -1.933   7.226   0.344  0.00  0.00    +0.156 A 
ATOM     30  O   UNL     1      -2.323   5.961   0.622  0.00  0.00    -0.440 OA
ATOM     31  C   UNL     1      -2.423   8.479   0.690  0.00  0.00    +0.050 A 
ATOM     32  C   UNL     1      -1.794   9.621   0.244  0.00  0.00    +0.027 A 
ATOM     33  C   UNL     1      -0.660   9.538  -0.558  0.00  0.00    +0.043 A 
ATOM     34  C   UNL     1      -0.148   8.285  -0.920  0.00  0.00    +0.113 A 
BRANCH  34  35
ATOM     35  C   UNL     1       1.047   8.188  -1.767  0.00  0.00    +0.390 C 
ATOM     36  O   UNL     1       2.151   8.149  -1.258  0.00  0.00    -0.240 OA
ATOM     37  O   UNL     1       0.921   8.143  -3.109  0.00  0.00    -0.240 OA
ENDBRANCH  34  35
BRANCH  33  38
ATOM     38  N   UNL     1      -0.036  10.698  -1.001  0.00  0.00    -0.346 N 
ATOM     39  C   UNL     1      -0.572  12.008  -0.623  0.00  0.00    +0.125 C 
ATOM     40  H   UNL     1       0.754  10.640  -1.560  0.00  0.00    +0.146 HD
ENDBRANCH  33  38
ENDBRANCH  25  26
ENDBRANCH  14  25
TORSDOF 7
