REMARK  Name = ZINC04398130
REMARK  7 active torsions:
REMARK  status: ('A' for Active; 'I' for Inactive)
REMARK    1  A    between atoms: C_1  and  O_2
REMARK    2  A    between atoms: O_2  and  C_3
REMARK    3  A    between atoms: C_3  and  C_5
REMARK    4  A    between atoms: C_9  and  N_10
REMARK    5  A    between atoms: N_12  and  C_15
REMARK    6  A    between atoms: C_19  and  C_28
REMARK    7  A    between atoms: C_21  and  C_24
REMARK                            x       y       z     vdW  Elec       q    Type
REMARK                         _______ _______ _______ _____ _____    ______ ____
ROOT
ATOM      1  C   UNL     1       1.100   2.034   0.003  0.00  0.00    +0.101 A 
ATOM      2  C   UNL     1       2.357   1.413  -0.013  0.00  0.00    +0.042 A 
ATOM      3  C   UNL     1       2.441   0.053  -0.021  0.00  0.00    +0.015 A 
ATOM      4  C   UNL     1       1.242  -0.688  -0.013  0.00  0.00    +0.029 A 
ATOM      5  C   UNL     1       1.251  -2.093  -0.022  0.00  0.00    +0.067 A 
ATOM      6  C   UNL     1       0.049  -2.746  -0.014  0.00  0.00    +0.045 A 
ATOM      7  C   UNL     1      -1.135  -2.015   0.001  0.00  0.00    +0.146 A 
ATOM      8  N   UNL     1      -1.137  -0.703   0.009  0.00  0.00    -0.225 NA
ATOM      9  C   UNL     1       0.002  -0.004   0.002  0.00  0.00    +0.141 A 
ATOM     10  N   UNL     1      -0.084   1.371   0.010  0.00  0.00    -0.328 N 
ATOM     11  H   UNL     1      -0.986   1.862   0.021  0.00  0.00    +0.169 HD
ENDROOT
BRANCH   1  18
ATOM     12  C   UNL     1       0.492   7.559  -0.697  0.00  0.00    +0.090 A 
ATOM     13  C   UNL     1       0.526   6.122  -0.492  0.00  0.00    -0.018 A 
ATOM     14  C   UNL     1       1.492   5.464  -1.170  0.00  0.00    +0.013 A 
ATOM     15  S   UNL     1       2.349   6.722  -2.071  0.00  0.00    -0.076 S 
ATOM     16  C   UNL     1       1.441   8.105  -1.556  0.00  0.00    +0.078 A 
ATOM     17  C   UNL     1       1.752   3.991  -1.140  0.00  0.00    +0.149 C 
ATOM     18  N   UNL     1       1.029   3.418   0.011  0.00  0.00    -0.311 N 
ATOM     19  C   UNL     1      -0.368   3.873   0.026  0.00  0.00    +0.111 C 
ATOM     20  C   UNL     1      -0.433   5.355   0.410  0.00  0.00    +0.056 C 
BRANCH  16  21
ATOM     21  N   UNL     1       1.616   9.428  -1.912  0.00  0.00    -0.352 N 
ATOM     22  H   UNL     1       2.324   9.675  -2.528  0.00  0.00    +0.143 HD
ATOM     23  H   UNL     1       1.030  10.110  -1.548  0.00  0.00    +0.143 HD
ENDBRANCH  16  21
BRANCH  12  24
ATOM     24  C   UNL     1      -0.499   8.400  -0.027  0.00  0.00    +0.342 C 
ATOM     25  O   UNL     1      -0.253   8.880   1.063  0.00  0.00    -0.245 OA
BRANCH  24  27
ATOM     26  C   UNL     1      -2.609   9.472   0.094  0.00  0.00    +0.280 C 
ATOM     27  O   UNL     1      -1.688   8.642  -0.617  0.00  0.00    -0.464 OA
ENDBRANCH  24  27
ENDBRANCH  12  24
ENDBRANCH   1  18
BRANCH   7  28
ATOM     28  C   UNL     1      -2.450  -2.751   0.009  0.00  0.00    +0.434 C 
ATOM     29  F   UNL     1      -2.845  -2.987   1.330  0.00  0.00    -0.164 F 
ATOM     30  F   UNL     1      -3.421  -1.978  -0.637  0.00  0.00    -0.164 F 
ATOM     31  F   UNL     1      -2.305  -3.972  -0.659  0.00  0.00    -0.164 F 
ENDBRANCH   7  28
BRANCH   5  32
ATOM     32  C   UNL     1       2.549  -2.859  -0.038  0.00  0.00    +0.418 C 
ATOM     33  F   UNL     1       2.280  -4.232  -0.043  0.00  0.00    -0.166 F 
ATOM     34  F   UNL     1       3.275  -2.522  -1.185  0.00  0.00    -0.166 F 
ATOM     35  F   UNL     1       3.296  -2.535   1.100  0.00  0.00    -0.166 F 
ENDBRANCH   5  32
TORSDOF 6
