REMARK  Name = ZINC12913118
REMARK  7 active torsions:
REMARK  status: ('A' for Active; 'I' for Inactive)
REMARK    1  A    between atoms: C_1  and  C_2
REMARK    2  A    between atoms: C_7  and  N_8
REMARK    3  A    between atoms: C_9  and  C_11
REMARK    4  A    between atoms: C_11  and  N_47
REMARK    5  A    between atoms: C_12  and  C_13
REMARK    6  A    between atoms: C_12  and  N_47
REMARK    7  A    between atoms: C_18  and  N_47
REMARK                            x       y       z     vdW  Elec       q    Type
REMARK                         _______ _______ _______ _____ _____    ______ ____
ROOT
ATOM      1  N   UNL     1       1.711  -2.372   1.335  0.00  0.00    +0.393 N 
ATOM      2  H   UNL     1       2.174  -1.762   2.019  0.00  0.00    -0.080 HD
ENDROOT
BRANCH   1   3
ATOM      3  C   UNL     1       0.274  -2.462   1.668  0.00  0.00    -0.045 C 
ATOM      4  C   UNL     1      -0.173  -1.120   2.270  0.00  0.00    +0.009 C 
ATOM      5  C   UNL     1      -1.727  -1.115   2.342  0.00  0.00    +0.164 C 
ATOM      6  S   UNL     1      -2.140  -1.900   0.728  0.00  0.00    -0.033 S 
ATOM      7  O   UNL     1      -2.321  -0.883  -0.248  0.00  0.00    -0.174 OA
ATOM      8  O   UNL     1      -3.164  -2.865   0.931  0.00  0.00    -0.174 OA
ATOM      9  C   UNL     1      -0.555  -2.771   0.398  0.00  0.00    +0.151 C 
ENDBRANCH   1   3
BRANCH   1  10
ATOM     10  C   UNL     1       2.328  -3.713   1.393  0.00  0.00    +0.020 C 
BRANCH  10  12
ATOM     11  N   UNL     1       2.927  -5.346   3.151  0.00  0.00    -0.287 N 
ATOM     12  C   UNL     1       2.481  -4.114   2.837  0.00  0.00    +0.201 C 
ATOM     13  O   UNL     1       2.201  -3.328   3.717  0.00  0.00    -0.278 OA
ATOM     14  H   UNL     1       3.213  -5.952   2.450  0.00  0.00    +0.155 HD
BRANCH  11  21
ATOM     15  C   UNL     1       2.664  -8.121   3.726  0.00  0.00    +0.046 C 
ATOM     16  C   UNL     1       2.855  -7.096   4.814  0.00  0.00    -0.028 A 
ATOM     17  C   UNL     1       2.906  -7.494   6.136  0.00  0.00    +0.019 A 
ATOM     18  C   UNL     1       3.082  -6.554   7.136  0.00  0.00    +0.014 A 
ATOM     19  C   UNL     1       3.205  -5.214   6.816  0.00  0.00    +0.016 A 
ATOM     20  C   UNL     1       3.159  -4.811   5.495  0.00  0.00    +0.024 A 
ATOM     21  C   UNL     1       2.979  -5.752   4.490  0.00  0.00    +0.036 A 
ATOM     22  I   UNL     1       3.160  -7.162   9.139  0.00  0.00    -0.044 I 
ENDBRANCH  11  21
ENDBRANCH  10  12
ENDBRANCH   1  10
BRANCH   1  23
ATOM     23  C   UNL     1       1.881  -1.795  -0.015  0.00  0.00    -0.002 C 
BRANCH  23  24
ATOM     24  C   UNL     1       1.355  -0.383  -0.012  0.00  0.00    +0.089 A 
ATOM     25  C   UNL     1       2.065   0.720   0.288  0.00  0.00    +0.042 A 
ATOM     26  C   UNL     1       1.184   1.819   0.166  0.00  0.00    +0.041 A 
ATOM     27  C   UNL     1      -0.011   1.323  -0.202  0.00  0.00    +0.195 A 
ATOM     28  O   UNL     1       0.099  -0.012  -0.308  0.00  0.00    -0.470 OA
ENDBRANCH  23  24
ENDBRANCH   1  23
TORSDOF 6
