REMARK  Name = ZINC17091424
REMARK  7 active torsions:
REMARK  status: ('A' for Active; 'I' for Inactive)
REMARK    1  A    between atoms: C_1  and  C_2
REMARK    2  A    between atoms: C_4  and  C_7
REMARK    3  A    between atoms: N_9  and  C_10
REMARK    4  A    between atoms: C_13  and  C_16
REMARK    5  A    between atoms: C_16  and  C_30
REMARK    6  A    between atoms: N_17  and  N_18
REMARK    7  A    between atoms: C_19  and  C_21
REMARK                            x       y       z     vdW  Elec       q    Type
REMARK                         _______ _______ _______ _____ _____    ______ ____
ROOT
ATOM      1  C   UNL     1      12.287   0.173  -0.114  0.00  0.00    +0.034 A 
ATOM      2  C   UNL     1      11.198   1.021  -0.284  0.00  0.00    +0.024 A 
ATOM      3  C   UNL     1       9.919   0.510  -0.281  0.00  0.00    +0.011 A 
ATOM      4  C   UNL     1       9.716  -0.862  -0.107  0.00  0.00    -0.002 A 
ATOM      5  C   UNL     1      10.813  -1.710   0.069  0.00  0.00    +0.011 A 
ATOM      6  C   UNL     1      12.089  -1.193   0.059  0.00  0.00    +0.024 A 
ENDROOT
BRANCH   1   9
ATOM      7  C   UNL     1      13.816   1.925   0.380  0.00  0.00    +0.270 C 
ATOM      8  O   UNL     1      12.918   2.542   0.918  0.00  0.00    -0.268 OA
ATOM      9  N   UNL     1      13.583   0.694  -0.118  0.00  0.00    -0.280 N 
ATOM     10  H   UNL     1      14.315   0.170  -0.479  0.00  0.00    +0.155 HD
BRANCH   7  14
ATOM     11  C   UNL     1      17.819   5.027   0.661  0.00  0.00    +0.089 C 
ATOM     12  C   UNL     1      16.882   3.876   0.400  0.00  0.00    +0.135 A 
ATOM     13  C   UNL     1      15.575   3.805   0.740  0.00  0.00    +0.080 A 
ATOM     14  C   UNL     1      15.167   2.526   0.270  0.00  0.00    +0.168 A 
ATOM     15  N   UNL     1      16.228   1.983  -0.274  0.00  0.00    -0.073 NA
ATOM     16  O   UNL     1      17.183   2.723  -0.213  0.00  0.00    -0.359 OA
ENDBRANCH   7  14
ENDBRANCH   1   9
BRANCH   4  17
ATOM     17  C   UNL     1       8.348  -1.412  -0.103  0.00  0.00    +0.063 C 
ATOM     18  N   UNL     1       7.331  -0.622  -0.262  0.00  0.00    -0.184 NA
ATOM     19  C   UNL     1       8.132  -2.891   0.084  0.00  0.00    +0.068 C 
BRANCH  18  20
ATOM     20  N   UNL     1       6.031  -1.144  -0.258  0.00  0.00    -0.203 N 
ATOM     21  C   UNL     1       4.974  -0.324  -0.422  0.00  0.00    +0.264 C 
ATOM     22  O   UNL     1       5.149   0.871  -0.574  0.00  0.00    -0.268 OA
ATOM     23  H   UNL     1       5.891  -2.097  -0.137  0.00  0.00    +0.178 HD
BRANCH  21  24
ATOM     24  C   UNL     1       3.612  -0.872  -0.418  0.00  0.00    +0.053 A 
ATOM     25  C   UNL     1       3.396  -2.205  -0.250  0.00  0.00    +0.059 A 
ATOM     26  S   UNL     1       1.675  -2.374  -0.315  0.00  0.00    -0.096 S 
ATOM     27  C   UNL     1       1.218  -0.679  -0.566  0.00  0.00    +0.020 A 
ATOM     28  C   UNL     1       2.450   0.002  -0.595  0.00  0.00    +0.001 A 
ATOM     29  C   UNL     1       2.405   1.398  -0.786  0.00  0.00    +0.010 A 
ATOM     30  C   UNL     1       1.203   2.043  -0.932  0.00  0.00    +0.001 A 
ATOM     31  C   UNL     1       0.004   1.347  -0.900  0.00  0.00    +0.001 A 
ATOM     32  C   UNL     1       0.016  -0.022  -0.716  0.00  0.00    +0.015 A 
ENDBRANCH  21  24
ENDBRANCH  18  20
ENDBRANCH   4  17
TORSDOF 5
