REMARK  Name = ZINC04244509
REMARK  9 active torsions:
REMARK  status: ('A' for Active; 'I' for Inactive)
REMARK    1  A    between atoms: C_1  and  C_2
REMARK    2  A    between atoms: C_5  and  S_8
REMARK    3  A    between atoms: S_8  and  N_11
REMARK    4  A    between atoms: N_14  and  C_15
REMARK    5  A    between atoms: N_14  and  O_34
REMARK    6  A    between atoms: C_17  and  C_32
REMARK    7  A    between atoms: C_17  and  C_33
REMARK    8  A    between atoms: N_21  and  C_22
REMARK    9  A    between atoms: C_22  and  C_23
REMARK                            x       y       z     vdW  Elec       q    Type
REMARK                         _______ _______ _______ _____ _____    ______ ____
ROOT
ATOM      1  C   UNL     1       3.091   2.293  -4.611  0.00  0.00    +0.210 C 
ATOM      2  C   UNL     1       4.438   1.962  -5.288  0.00  0.00    +0.054 C 
ATOM      3  S   UNL     1       5.448   3.400  -4.776  0.00  0.00    -0.093 S 
ATOM      4  C   UNL     1       4.232   4.276  -3.813  0.00  0.00    +0.112 C 
ATOM      5  S   UNL     1       4.443   5.760  -2.986  0.00  0.00    -0.028 S 
ATOM      6  N   UNL     1       3.118   3.531  -3.869  0.00  0.00    -0.293 N 
ATOM      7  C   UNL     1       5.022   0.657  -4.744  0.00  0.00    +0.026 C 
ATOM      8  C   UNL     1       4.292   1.906  -6.810  0.00  0.00    +0.026 C 
ENDROOT
BRANCH   1  12
ATOM      9  N   UNL     1       3.335  -0.211  -1.934  0.00  0.00    -0.167 N 
ATOM     10  C   UNL     1       3.573   0.885  -2.681  0.00  0.00    +0.346 C 
ATOM     11  O   UNL     1       4.536   1.588  -2.440  0.00  0.00    -0.249 OA
ATOM     12  N   UNL     1       2.744   1.203  -3.696  0.00  0.00    -0.144 N 
ATOM     13  H   UNL     1       2.492  -0.684  -2.022  0.00  0.00    +0.178 HD
BRANCH   9  14
ATOM     14  S   UNL     1       4.480  -0.750  -0.866  0.00  0.00    +0.076 S 
ATOM     15  O   UNL     1       5.644  -1.036  -1.629  0.00  0.00    -0.150 OA
ATOM     16  O   UNL     1       3.846  -1.724  -0.049  0.00  0.00    -0.150 OA
BRANCH  14  21
ATOM     17  C   UNL     1       5.875   3.882   2.740  0.00  0.00    +0.044 C 
ATOM     18  C   UNL     1       5.527   2.725   1.839  0.00  0.00    -0.050 A 
ATOM     19  C   UNL     1       4.672   1.734   2.286  0.00  0.00    +0.005 A 
ATOM     20  C   UNL     1       4.356   0.670   1.461  0.00  0.00    +0.029 A 
ATOM     21  C   UNL     1       4.888   0.602   0.187  0.00  0.00    +0.109 A 
ATOM     22  C   UNL     1       5.739   1.595  -0.261  0.00  0.00    +0.029 A 
ATOM     23  C   UNL     1       6.058   2.656   0.565  0.00  0.00    +0.005 A 
ENDBRANCH  14  21
ENDBRANCH   9  14
BRANCH  12  24
ATOM     24  O   UNL     1       1.538   0.483  -3.877  0.00  0.00    -0.289 OA
ATOM     25  H   UNL     1       1.048   0.731  -4.673  0.00  0.00    +0.242 HD
ENDBRANCH  12  24
ENDBRANCH   1  12
BRANCH   6  26
ATOM     26  C   UNL     1       1.913   3.981  -3.169  0.00  0.00    +0.143 C 
BRANCH  26  27
ATOM     27  C   UNL     1       1.944   3.485  -1.746  0.00  0.00    -0.026 A 
ATOM     28  C   UNL     1       1.402   2.252  -1.433  0.00  0.00    +0.009 A 
ATOM     29  C   UNL     1       1.433   1.790  -0.131  0.00  0.00    +0.050 A 
ATOM     30  C   UNL     1       1.997   2.568   0.867  0.00  0.00    +0.166 A 
ATOM     31  C   UNL     1       2.538   3.812   0.553  0.00  0.00    +0.167 A 
ATOM     32  C   UNL     1       2.509   4.266  -0.755  0.00  0.00    +0.054 A 
ATOM     33  O   UNL     1       3.026   4.377   1.696  0.00  0.00    -0.453 OA
ATOM     34  C   UNL     1       2.414   3.648   2.777  0.00  0.00    +0.466 C 
ATOM     35  O   UNL     1       2.147   2.353   2.207  0.00  0.00    -0.453 OA
ENDBRANCH  26  27
ENDBRANCH   6  26
TORSDOF 6
