REMARK  Name = ZINC39665419
REMARK  9 active torsions:
REMARK  status: ('A' for Active; 'I' for Inactive)
REMARK    1  A    between atoms: C_1  and  C_2
REMARK    2  A    between atoms: C_3  and  C_13
REMARK    3  A    between atoms: C_4  and  C_7
REMARK    4  A    between atoms: C_17  and  C_26
REMARK    5  A    between atoms: N_28  and  C_29
REMARK    6  A    between atoms: C_29  and  C_30
REMARK    7  A    between atoms: C_30  and  C_32
REMARK    8  A    between atoms: C_30  and  O_33
REMARK    9  A    between atoms: O_33  and  C_34
REMARK                            x       y       z     vdW  Elec       q    Type
REMARK                         _______ _______ _______ _____ _____    ______ ____
ROOT
ATOM      1  C   UNL     1      -0.529  -0.764   0.416  0.00  0.00    +0.252 C 
ATOM      2  O   UNL     1      -1.160  -0.940  -0.609  0.00  0.00    -0.270 OA
ATOM      3  N   UNL     1      -1.176  -0.606   1.587  0.00  0.00    -0.296 N 
ATOM      4  C   UNL     1      -0.592  -0.291   2.912  0.00  0.00    +0.121 C 
ATOM      5  C   UNL     1      -1.591   0.699   3.554  0.00  0.00    +0.100 C 
ATOM      6  C   UNL     1      -2.928   0.419   2.848  0.00  0.00    -0.004 C 
ATOM      7  C   UNL     1      -2.634  -0.702   1.840  0.00  0.00    +0.115 C 
ATOM      8  C   UNL     1      -3.973  -0.041   3.860  0.00  0.00    -0.010 C 
ATOM      9  C   UNL     1      -5.310  -0.257   3.145  0.00  0.00    -0.082 C 
ATOM     10  N   UNL     1      -5.734   0.995   2.507  0.00  0.00    +0.379 N 
ATOM     11  C   UNL     1      -4.770   1.381   1.470  0.00  0.00    -0.082 C 
ATOM     12  C   UNL     1      -3.410   1.667   2.115  0.00  0.00    -0.010 C 
ATOM     13  H   UNL     1      -6.643   0.867   2.089  0.00  0.00    -0.086 HD
ATOM     14  H   UNL     1      -5.787   1.724   3.203  0.00  0.00    -0.086 HD
ENDROOT
BRANCH   1  17
ATOM     15  C   UNL     1       1.220   1.747  -0.220  0.00  0.00    +0.090 C 
ATOM     16  C   UNL     1       1.720   0.362   0.101  0.00  0.00    +0.147 A 
ATOM     17  C   UNL     1       0.943  -0.724   0.376  0.00  0.00    +0.106 A 
ATOM     18  C   UNL     1       1.858  -1.848   0.626  0.00  0.00    +0.126 A 
ATOM     19  N   UNL     1       3.075  -1.385   0.491  0.00  0.00    -0.077 NA
ATOM     20  O   UNL     1       3.001  -0.013   0.158  0.00  0.00    -0.359 OA
BRANCH  18  21
ATOM     21  C   UNL     1       1.475  -3.240   0.967  0.00  0.00    +0.004 A 
ATOM     22  C   UNL     1       0.351  -3.483   1.754  0.00  0.00    +0.010 A 
ATOM     23  C   UNL     1      -0.000  -4.781   2.068  0.00  0.00    +0.001 A 
ATOM     24  C   UNL     1       0.761  -5.838   1.602  0.00  0.00    +0.000 A 
ATOM     25  C   UNL     1       1.877  -5.602   0.821  0.00  0.00    +0.001 A 
ATOM     26  C   UNL     1       2.235  -4.309   0.496  0.00  0.00    +0.010 A 
ENDBRANCH  18  21
ENDBRANCH   1  17
BRANCH   5  27
ATOM     27  C   UNL     1      -1.152   2.119   3.308  0.00  0.00    +0.218 C 
ATOM     28  O   UNL     1      -0.490   2.389   2.328  0.00  0.00    -0.275 OA
ATOM     29  N   UNL     1      -1.496   3.091   4.177  0.00  0.00    -0.312 N 
ATOM     30  H   UNL     1      -2.026   2.875   4.960  0.00  0.00    +0.149 HD
BRANCH  29  31
ATOM     31  C   UNL     1      -1.070   4.472   3.938  0.00  0.00    +0.148 C 
BRANCH  31  32
ATOM     32  C   UNL     1      -1.589   5.368   5.064  0.00  0.00    +0.187 C 
ATOM     33  C   UNL     1      -1.252   6.827   4.752  0.00  0.00    +0.053 C 
BRANCH  32  34
ATOM     34  O   UNL     1      -0.972   4.989   6.296  0.00  0.00    -0.488 OA
BRANCH  34  35
ATOM     35  C   UNL     1      -1.648   5.277   7.439  0.00  0.00    +0.121 A 
ATOM     36  C   UNL     1      -2.825   6.009   7.384  0.00  0.00    +0.045 A 
ATOM     37  C   UNL     1      -3.511   6.300   8.548  0.00  0.00    +0.004 A 
ATOM     38  C   UNL     1      -3.025   5.863   9.766  0.00  0.00    +0.000 A 
ATOM     39  C   UNL     1      -1.852   5.134   9.823  0.00  0.00    +0.004 A 
ATOM     40  C   UNL     1      -1.165   4.835   8.662  0.00  0.00    +0.045 A 
ENDBRANCH  34  35
ENDBRANCH  32  34
ENDBRANCH  31  32
ENDBRANCH  29  31
ENDBRANCH   5  27
TORSDOF 7
