REMARK  Name = ZINC38915385
REMARK  8 active torsions:
REMARK  status: ('A' for Active; 'I' for Inactive)
REMARK    1  A    between atoms: C_5  and  C_7
REMARK    2  A    between atoms: C_7  and  S_8
REMARK    3  A    between atoms: S_8  and  C_9
REMARK    4  A    between atoms: C_12  and  S_15
REMARK    5  A    between atoms: S_15  and  C_16
REMARK    6  A    between atoms: C_16  and  C_17
REMARK    7  A    between atoms: N_19  and  N_20
REMARK    8  A    between atoms: C_21  and  C_22
REMARK                            x       y       z     vdW  Elec       q    Type
REMARK                         _______ _______ _______ _____ _____    ______ ____
ROOT
ATOM      1  C   UNL     1      -1.591  -7.179   1.386  0.00  0.00    +0.169 C 
ENDROOT
BRANCH   1   2
ATOM      2  C   UNL     1      -2.882  -7.881   1.723  0.00  0.00    +0.242 C 
ATOM      3  O   UNL     1      -2.878  -9.065   1.982  0.00  0.00    -0.273 OA
ATOM      4  N   UNL     1      -4.040  -7.191   1.737  0.00  0.00    -0.206 N 
ATOM      5  H   UNL     1      -4.042  -6.244   1.530  0.00  0.00    +0.177 HD
BRANCH   4   6
ATOM      6  N   UNL     1      -5.239  -7.843   2.050  0.00  0.00    -0.188 NA
ATOM      7  C   UNL     1      -6.346  -7.155   2.172  0.00  0.00    +0.136 C 
BRANCH   7   8
ATOM      8  C   UNL     1      -6.343  -5.773   1.931  0.00  0.00    +0.000 C 
ATOM      9  C   UNL     1      -7.423  -4.899   2.028  0.00  0.00    +0.004 A 
ATOM     10  C   UNL     1      -8.778  -5.091   2.374  0.00  0.00    +0.010 A 
ATOM     11  C   UNL     1      -9.627  -4.032   2.385  0.00  0.00    +0.001 A 
ATOM     12  C   UNL     1      -9.194  -2.743   2.060  0.00  0.00    +0.002 A 
ATOM     13  C   UNL     1      -7.909  -2.485   1.719  0.00  0.00    +0.026 A 
ATOM     14  C   UNL     1      -6.961  -3.542   1.685  0.00  0.00    +0.043 A 
ATOM     15  N   UNL     1      -5.678  -3.553   1.391  0.00  0.00    -0.380 N 
ATOM     16  C   UNL     1      -5.164  -4.920   1.517  0.00  0.00    +0.150 C 
ATOM     17  H   UNL     1      -5.154  -2.778   1.135  0.00  0.00    +0.160 HD
ENDBRANCH   7   8
ENDBRANCH   4   6
ENDBRANCH   1   2
BRANCH   1  18
ATOM     18  S   UNL     1      -0.222  -8.367   1.452  0.00  0.00    -0.117 S 
BRANCH  18  22
ATOM     19  C   UNL     1       1.202  -4.665   0.712  0.00  0.00    +0.151 C 
ATOM     20  N   UNL     1       1.103  -5.402  -0.351  0.00  0.00    -0.172 NA
ATOM     21  N   UNL     1       1.110  -6.779  -0.320  0.00  0.00    -0.244 N 
ATOM     22  C   UNL     1       1.238  -7.378   1.028  0.00  0.00    +0.211 C 
ATOM     23  S   UNL     1       1.337  -5.847   2.044  0.00  0.00    -0.063 S 
ATOM     24  H   UNL     1       1.036  -7.317  -1.123  0.00  0.00    +0.170 HD
BRANCH  19  25
ATOM     25  S   UNL     1       1.208  -2.906   0.818  0.00  0.00    -0.093 S 
BRANCH  25  26
ATOM     26  C   UNL     1       1.035  -2.363  -0.905  0.00  0.00    +0.113 C 
BRANCH  26  31
ATOM     27  C   UNL     1      -0.179   1.212  -0.913  0.00  0.00    +0.000 A 
ATOM     28  C   UNL     1       1.008   1.907  -1.056  0.00  0.00    +0.001 A 
ATOM     29  C   UNL     1       2.204   1.220  -1.150  0.00  0.00    +0.020 A 
ATOM     30  C   UNL     1       2.213  -0.163  -1.101  0.00  0.00    +0.045 A 
ATOM     31  C   UNL     1       1.026  -0.857  -0.958  0.00  0.00    -0.019 A 
ATOM     32  C   UNL     1      -0.170  -0.169  -0.864  0.00  0.00    +0.006 A 
ATOM     33 CL   UNL     1       3.715  -1.026  -1.219  0.00  0.00    -0.083 Cl
ENDBRANCH  26  31
ENDBRANCH  25  26
ENDBRANCH  19  25
ENDBRANCH  18  22
ENDBRANCH   1  18
TORSDOF 8
