REMARK  Name = ZINC22635342
REMARK  12 active torsions:
REMARK  status: ('A' for Active; 'I' for Inactive)
REMARK    1  A    between atoms: C_1  and  C_2
REMARK    2  A    between atoms: C_2  and  C_3
REMARK    3  A    between atoms: C_2  and  C_4
REMARK    4  A    between atoms: C_2  and  C_5
REMARK    5  A    between atoms: C_12  and  N_24
REMARK    6  A    between atoms: C_13  and  C_14
REMARK    7  A    between atoms: N_16  and  C_17
REMARK    8  A    between atoms: C_25  and  C_27
REMARK    9  A    between atoms: C_27  and  N_28
REMARK   10  A    between atoms: N_31  and  C_34
REMARK   11  A    between atoms: C_34  and  C_35
REMARK   12  A    between atoms: C_35  and  O_36
REMARK                            x       y       z     vdW  Elec       q    Type
REMARK                         _______ _______ _______ _____ _____    ______ ____
ROOT
ATOM      1  C   UNL     1      -2.530   8.817   0.568  0.00  0.00    -0.000 C 
ATOM      2  C   UNL     1      -3.823   8.364   1.251  0.00  0.00    +0.009 C 
ATOM      3  C   UNL     1      -4.236   6.989   0.722  0.00  0.00    +0.037 C 
ATOM      4  C   UNL     1      -3.052   6.039   0.849  0.00  0.00    -0.023 A 
ATOM      5  C   UNL     1      -1.795   6.511   1.004  0.00  0.00    -0.004 A 
ATOM      6  S   UNL     1      -0.779   5.065   1.104  0.00  0.00    -0.077 S 
ATOM      7  C   UNL     1      -2.003   3.850   0.942  0.00  0.00    +0.084 A 
ATOM      8  C   UNL     1      -3.169   4.592   0.808  0.00  0.00    +0.069 A 
ATOM      9  C   UNL     1      -1.371   7.945   1.073  0.00  0.00    +0.046 C 
ENDROOT
BRANCH   1  11
ATOM     10  C   UNL     1      -0.954  10.728   0.240  0.00  0.00    +0.011 C 
ATOM     11  C   UNL     1      -2.255  10.283   0.909  0.00  0.00    -0.035 C 
ATOM     12  C   UNL     1      -3.411  11.149   0.404  0.00  0.00    +0.011 C 
ATOM     13  C   UNL     1      -2.127  10.438   2.426  0.00  0.00    +0.011 C 
ENDBRANCH   1  11
BRANCH   8  14
ATOM     14  C   UNL     1      -4.470   3.938   0.637  0.00  0.00    +0.251 C 
ATOM     15  O   UNL     1      -5.140   3.652   1.611  0.00  0.00    -0.270 OA
ATOM     16  N   UNL     1      -4.924   3.655  -0.600  0.00  0.00    -0.281 N 
ATOM     17  H   UNL     1      -4.285   3.841  -1.476  0.00  0.00    +0.155 HD
BRANCH  16  18
ATOM     18  C   UNL     1      -6.207   3.125  -0.770  0.00  0.00    +0.034 A 
ATOM     19  C   UNL     1      -6.724   2.239   0.167  0.00  0.00    +0.025 A 
ATOM     20  C   UNL     1      -7.992   1.721  -0.001  0.00  0.00    +0.022 A 
ATOM     21  C   UNL     1      -8.745   2.075  -1.107  0.00  0.00    +0.041 A 
ATOM     22  C   UNL     1      -8.231   2.953  -2.045  0.00  0.00    +0.022 A 
ATOM     23  C   UNL     1      -6.965   3.478  -1.879  0.00  0.00    +0.025 A 
ATOM     24 CL   UNL     1     -10.338   1.416  -1.317  0.00  0.00    -0.084 Cl
ENDBRANCH  16  18
ENDBRANCH   8  14
BRANCH   7  25
ATOM     25  N   UNL     1      -1.854   2.471   0.941  0.00  0.00    -0.281 N 
ATOM     26  C   UNL     1      -0.630   1.926   1.079  0.00  0.00    +0.201 C 
ATOM     27  O   UNL     1       0.343   2.640   1.199  0.00  0.00    -0.278 OA
ATOM     28  H   UNL     1      -2.736   1.823   0.827  0.00  0.00    +0.155 HD
BRANCH  26  29
ATOM     29  C   UNL     1      -0.468   0.427   1.077  0.00  0.00    +0.019 C 
BRANCH  29  30
ATOM     30  N   UNL     1       0.953   0.088   1.235  0.00  0.00    +0.387 N 
ATOM     31  C   UNL     1       1.731   0.522   0.066  0.00  0.00    -0.063 C 
ATOM     32  C   UNL     1       3.213   0.223   0.303  0.00  0.00    +0.066 C 
ATOM     33  N   UNL     1       3.387  -1.216   0.543  0.00  0.00    -0.304 NA
ATOM     34  C   UNL     1       2.609  -1.650   1.712  0.00  0.00    +0.066 C 
ATOM     35  C   UNL     1       1.127  -1.351   1.475  0.00  0.00    -0.063 C 
ATOM     36  H   UNL     1       1.333   0.628   2.115  0.00  0.00    -0.081 HD
BRANCH  33  37
ATOM     37  C   UNL     1       4.808  -1.556   0.701  0.00  0.00    +0.112 C 
BRANCH  37  38
ATOM     38  C   UNL     1       5.457  -0.584   1.688  0.00  0.00    +0.171 C 
BRANCH  38  39
ATOM     39  O   UNL     1       4.901  -0.783   2.989  0.00  0.00    -0.394 OA
ATOM     40  H   UNL     1       5.248  -0.171   3.835  0.00  0.00    +0.209 HD
ENDBRANCH  38  39
ENDBRANCH  37  38
ENDBRANCH  33  37
ENDBRANCH  29  30
ENDBRANCH  26  29
ENDBRANCH   7  25
TORSDOF 9
