REMARK  Name = ZINC09331020
REMARK  4 active torsions:
REMARK  status: ('A' for Active; 'I' for Inactive)
REMARK    1  A    between atoms: C_1  and  C_2
REMARK    2  A    between atoms: C_2  and  C_3
REMARK    3  A    between atoms: C_2  and  C_4
REMARK    4  A    between atoms: N_12  and  C_15
REMARK                            x       y       z     vdW  Elec       q    Type
REMARK                         _______ _______ _______ _____ _____    ______ ____
ROOT
ATOM      1  C   UNL     1       1.916   0.767  -1.285  0.00  0.00    -0.055 C 
ATOM      2  C   UNL     1       1.516   1.498  -0.004  0.00  0.00    +0.073 C 
ATOM      3  C   UNL     1      -0.013   1.086   0.008  0.00  0.00    +0.088 C 
ATOM      4  C   UNL     1      -0.374   1.394   1.372  0.00  0.00    +0.229 C 
ATOM      5  O   UNL     1      -1.429   1.832   1.778  0.00  0.00    -0.275 OA
ATOM      6  N   UNL     1       0.742   1.082   2.108  0.00  0.00    -0.210 N 
ATOM      7  C   UNL     1       1.850   0.893   1.332  0.00  0.00    +0.228 C 
ATOM      8  O   UNL     1       2.886   0.352   1.653  0.00  0.00    -0.275 OA
ATOM      9  C   UNL     1      -0.415   1.414  -1.364  0.00  0.00    +0.050 C 
ATOM     10  C   UNL     1      -1.707   0.786  -1.814  0.00  0.00    -0.028 A 
ATOM     11  C   UNL     1      -2.175  -0.508  -1.823  0.00  0.00    +0.004 A 
ATOM     12  C   UNL     1      -3.439  -0.783  -2.315  0.00  0.00    +0.000 A 
ATOM     13  C   UNL     1      -4.229   0.245  -2.796  0.00  0.00    +0.002 A 
ATOM     14  C   UNL     1      -3.763   1.544  -2.788  0.00  0.00    +0.023 A 
ATOM     15  C   UNL     1      -2.492   1.829  -2.294  0.00  0.00    +0.036 A 
ATOM     16  N   UNL     1      -1.808   3.041  -2.180  0.00  0.00    -0.286 N 
ATOM     17  C   UNL     1      -0.584   2.885  -1.643  0.00  0.00    +0.211 C 
ATOM     18  O   UNL     1       0.228   3.760  -1.425  0.00  0.00    -0.277 OA
ATOM     19  H   UNL     1      -2.173   3.897  -2.455  0.00  0.00    +0.155 HD
ATOM     20  N   UNL     1       0.722   0.858  -2.166  0.00  0.00    +0.394 N 
ATOM     21  H   UNL     1       0.477  -0.075  -2.515  0.00  0.00    -0.083 HD
ATOM     22  H   UNL     1       0.923   1.479  -2.959  0.00  0.00    -0.083 HD
ENDROOT
BRANCH   6  23
ATOM     23  C   UNL     1       0.744   0.969   3.506  0.00  0.00    +0.044 A 
ATOM     24  C   UNL     1      -0.426   1.183   4.223  0.00  0.00    +0.025 A 
ATOM     25  C   UNL     1      -0.422   1.065   5.599  0.00  0.00    +0.017 A 
ATOM     26  C   UNL     1       0.748   0.746   6.264  0.00  0.00    +0.018 A 
ATOM     27  C   UNL     1       1.916   0.537   5.553  0.00  0.00    +0.017 A 
ATOM     28  C   UNL     1       1.917   0.648   4.176  0.00  0.00    +0.025 A 
ATOM     29 BR   UNL     1       0.751   0.593   8.149  0.00  0.00    -0.050 Br
ENDBRANCH   6  23
BRANCH   1  31
ATOM     30  C   UNL     1       3.503   0.710  -3.214  0.00  0.00    +0.005 C 
ATOM     31  C   UNL     1       3.118   1.456  -1.935  0.00  0.00    -0.031 C 
ATOM     32  C   UNL     1       2.752   2.902  -2.278  0.00  0.00    +0.005 C 
ENDBRANCH   1  31
TORSDOF 2
