REMARK  Name = ZINC32284616
REMARK  8 active torsions:
REMARK  status: ('A' for Active; 'I' for Inactive)
REMARK    1  A    between atoms: C_1  and  C_2
REMARK    2  A    between atoms: C_5  and  S_9
REMARK    3  A    between atoms: S_9  and  N_12
REMARK    4  A    between atoms: N_12  and  C_13
REMARK    5  A    between atoms: C_17  and  C_19
REMARK    6  A    between atoms: N_21  and  C_22
REMARK    7  A    between atoms: C_22  and  C_24
REMARK    8  A    between atoms: C_22  and  C_25
REMARK                            x       y       z     vdW  Elec       q    Type
REMARK                         _______ _______ _______ _____ _____    ______ ____
ROOT
ATOM      1  C   UNL     1       3.503   1.537   5.764  0.00  0.00    +0.049 A 
ATOM      2  C   UNL     1       3.084   0.365   6.383  0.00  0.00    +0.024 A 
ATOM      3  C   UNL     1       2.004  -0.338   5.884  0.00  0.00    +0.003 A 
ATOM      4  C   UNL     1       1.334   0.117   4.767  0.00  0.00    +0.013 A 
ATOM      5  C   UNL     1       1.747   1.293   4.137  0.00  0.00    +0.038 A 
ATOM      6  C   UNL     1       2.840   2.000   4.637  0.00  0.00    +0.037 A 
ENDROOT
BRANCH   5   7
ATOM      7  C   UNL     1       1.032   1.782   2.939  0.00  0.00    +0.245 C 
ATOM      8  O   UNL     1       1.393   2.806   2.392  0.00  0.00    -0.270 OA
ATOM      9  N   UNL     1      -0.020   1.094   2.454  0.00  0.00    -0.305 N 
ATOM     10  H   UNL     1      -0.347   0.168   2.949  0.00  0.00    +0.150 HD
BRANCH   9  11
ATOM     11  C   UNL     1      -0.729   1.579   1.267  0.00  0.00    +0.101 C 
ATOM     12  C   UNL     1      -0.013   1.086   0.008  0.00  0.00    +0.033 C 
BRANCH  11  13
ATOM     13  C   UNL     1      -2.143   1.058   1.278  0.00  0.00    -0.024 A 
ATOM     14  C   UNL     1      -2.395  -0.241   1.678  0.00  0.00    +0.009 A 
ATOM     15  C   UNL     1      -3.691  -0.725   1.696  0.00  0.00    +0.050 A 
ATOM     16  C   UNL     1      -4.734   0.093   1.300  0.00  0.00    +0.162 A 
ATOM     17  C   UNL     1      -4.481   1.396   0.893  0.00  0.00    +0.162 A 
ATOM     18  C   UNL     1      -3.183   1.879   0.882  0.00  0.00    +0.055 A 
ATOM     19  O   UNL     1      -5.517   2.195   0.506  0.00  0.00    -0.488 OA
ATOM     20  C   UNL     1      -6.167   1.830  -0.713  0.00  0.00    +0.232 C 
ATOM     21  C   UNL     1      -7.226   0.768  -0.463  0.00  0.00    +0.082 C 
ATOM     22  C   UNL     1      -6.628  -0.542   0.027  0.00  0.00    +0.232 C 
ATOM     23  O   UNL     1      -6.017  -0.373   1.308  0.00  0.00    -0.488 OA
ENDBRANCH  11  13
ENDBRANCH   9  11
ENDBRANCH   5   7
BRANCH   1  24
ATOM     24  N   UNL     1       4.595   2.245   6.272  0.00  0.00    -0.216 N 
ATOM     25  H   UNL     1       4.541   3.338   6.378  0.00  0.00    +0.174 HD
BRANCH  24  26
ATOM     26  S   UNL     1       5.971   1.437   6.716  0.00  0.00    +0.072 S 
ATOM     27  O   UNL     1       6.894   2.421   7.161  0.00  0.00    -0.150 OA
ATOM     28  O   UNL     1       5.559   0.353   7.536  0.00  0.00    -0.150 OA
BRANCH  26  33
ATOM     29  C   UNL     1       8.309  -0.988   1.708  0.00  0.00    +0.047 C 
ATOM     30  C   UNL     1       7.726  -0.382   2.958  0.00  0.00    -0.015 A 
ATOM     31  C   UNL     1       6.816  -1.097   3.714  0.00  0.00    +0.008 A 
ATOM     32  C   UNL     1       6.285  -0.544   4.864  0.00  0.00    +0.029 A 
ATOM     33  C   UNL     1       6.654   0.730   5.254  0.00  0.00    +0.111 A 
ATOM     34  C   UNL     1       7.564   1.447   4.500  0.00  0.00    +0.067 A 
ATOM     35  C   UNL     1       8.101   0.892   3.351  0.00  0.00    +0.128 A 
ATOM     36  F   UNL     1       8.990   1.592   2.613  0.00  0.00    -0.205 F 
ENDBRANCH  26  33
ENDBRANCH  24  26
ENDBRANCH   1  24
TORSDOF 6
