REMARK  Name = ZINC38003026
REMARK  4 active torsions:
REMARK  status: ('A' for Active; 'I' for Inactive)
REMARK    1  A    between atoms: C_1  and  C_2
REMARK    2  A    between atoms: C_2  and  C_4
REMARK    3  A    between atoms: C_2  and  N_10
REMARK    4  A    between atoms: N_10  and  C_11
REMARK                            x       y       z     vdW  Elec       q    Type
REMARK                         _______ _______ _______ _____ _____    ______ ____
ROOT
ATOM      1  N   UNL     1      -1.372  -0.511   0.012  0.00  0.00    -0.335 N 
ATOM      2  H   UNL     1      -1.810  -0.743  -0.822  0.00  0.00    +0.147 HD
ENDROOT
BRANCH   1   3
ATOM      3  C   UNL     1      -2.053  -0.660   1.224  0.00  0.00    +0.053 A 
ATOM      4  C   UNL     1      -1.435  -0.326   2.415  0.00  0.00    +0.025 A 
ATOM      5  C   UNL     1      -2.106  -0.471   3.622  0.00  0.00    +0.003 A 
ATOM      6  C   UNL     1      -3.384  -0.947   3.658  0.00  0.00    +0.011 A 
ATOM      7  C   UNL     1      -4.035  -1.294   2.466  0.00  0.00    +0.021 A 
ATOM      8  C   UNL     1      -3.365  -1.144   1.239  0.00  0.00    +0.086 A 
ATOM      9  N   UNL     1      -4.239  -1.550   0.262  0.00  0.00    -0.275 N 
ATOM     10  H   UNL     1      -4.060  -1.565  -0.692  0.00  0.00    +0.189 HD
ATOM     11  N   UNL     1      -5.433  -1.939   0.881  0.00  0.00    -0.181 NA
ATOM     12  C   UNL     1      -5.324  -1.801   2.171  0.00  0.00    +0.142 A 
ENDBRANCH   1   3
BRANCH   1  14
ATOM     13  C   UNL     1      -0.019   1.526   0.010  0.00  0.00    +0.033 C 
ATOM     14  C   UNL     1       0.002  -0.004   0.002  0.00  0.00    +0.104 C 
BRANCH  14  15
ATOM     15  C   UNL     1       0.707  -0.490  -1.238  0.00  0.00    +0.011 A 
ATOM     16  C   UNL     1       1.980  -0.934  -1.377  0.00  0.00    +0.014 A 
ATOM     17  C   UNL     1       2.418  -1.335  -2.625  0.00  0.00    +0.023 A 
ATOM     18  C   UNL     1       1.561  -1.271  -3.674  0.00  0.00    +0.055 A 
ATOM     19  S   UNL     1       0.081  -0.638  -2.903  0.00  0.00    -0.085 S 
ATOM     20 BR   UNL     1       1.854  -1.740  -5.483  0.00  0.00    -0.043 Br
ENDBRANCH  14  15
ENDBRANCH   1  14
TORSDOF 3
