REMARK  Name = ZINC35476906
REMARK  9 active torsions:
REMARK  status: ('A' for Active; 'I' for Inactive)
REMARK    1  A    between atoms: C_1  and  C_2
REMARK    2  A    between atoms: C_6  and  N_8
REMARK    3  A    between atoms: N_8  and  C_9
REMARK    4  A    between atoms: C_9  and  C_11
REMARK    5  A    between atoms: C_9  and  C_20
REMARK    6  A    between atoms: C_21  and  C_35
REMARK    7  A    between atoms: C_22  and  C_34
REMARK    8  A    between atoms: C_24  and  N_25
REMARK    9  A    between atoms: C_26  and  C_28
REMARK                            x       y       z     vdW  Elec       q    Type
REMARK                         _______ _______ _______ _____ _____    ______ ____
ROOT
ATOM      1  C   UNL     1       0.086  -4.114   2.438  0.00  0.00    +0.135 C 
ENDROOT
BRANCH   1   2
ATOM      2  C   UNL     1       1.528  -4.548   2.396  0.00  0.00    -0.019 A 
ATOM      3  C   UNL     1       2.504  -3.759   2.976  0.00  0.00    +0.009 A 
ATOM      4  C   UNL     1       3.828  -4.153   2.941  0.00  0.00    +0.050 A 
ATOM      5  C   UNL     1       4.181  -5.342   2.323  0.00  0.00    +0.166 A 
ATOM      6  C   UNL     1       3.199  -6.137   1.738  0.00  0.00    +0.167 A 
ATOM      7  C   UNL     1       1.873  -5.738   1.782  0.00  0.00    +0.055 A 
ATOM      8  O   UNL     1       3.795  -7.242   1.201  0.00  0.00    -0.453 OA
ATOM      9  C   UNL     1       5.194  -6.915   1.104  0.00  0.00    +0.466 C 
ATOM     10  O   UNL     1       5.392  -5.948   2.152  0.00  0.00    -0.453 OA
ENDBRANCH   1   2
BRANCH   1  11
ATOM     11  C   UNL     1      -0.568  -4.663   3.679  0.00  0.00    +0.009 A 
ATOM     12  C   UNL     1      -1.438  -5.735   3.601  0.00  0.00    -0.033 A 
ATOM     13  C   UNL     1      -2.009  -6.204   4.736  0.00  0.00    -0.008 A 
ATOM     14  S   UNL     1      -1.319  -5.121   5.976  0.00  0.00    -0.078 S 
ATOM     15  C   UNL     1      -0.309  -4.116   4.900  0.00  0.00    +0.078 A 
ATOM     16  C   UNL     1      -2.978  -7.346   4.908  0.00  0.00    +0.052 C 
ATOM     17  C   UNL     1      -1.747  -6.373   2.271  0.00  0.00    +0.045 C 
BRANCH  15  18
ATOM     18  N   UNL     1       0.527  -3.046   5.224  0.00  0.00    -0.276 N 
ATOM     19  C   UNL     1       0.736  -2.722   6.516  0.00  0.00    +0.249 C 
ATOM     20  O   UNL     1       0.195  -3.360   7.398  0.00  0.00    -0.270 OA
ATOM     21  H   UNL     1       0.959  -2.537   4.521  0.00  0.00    +0.156 HD
BRANCH  19  22
ATOM     22  C   UNL     1       1.621  -1.589   6.859  0.00  0.00    +0.037 A 
ATOM     23  C   UNL     1       2.239  -0.850   5.849  0.00  0.00    +0.013 A 
ATOM     24  C   UNL     1       3.063   0.206   6.177  0.00  0.00    +0.001 A 
ATOM     25  C   UNL     1       3.280   0.533   7.503  0.00  0.00    +0.000 A 
ATOM     26  C   UNL     1       2.671  -0.196   8.510  0.00  0.00    +0.001 A 
ATOM     27  C   UNL     1       1.839  -1.250   8.196  0.00  0.00    +0.013 A 
ENDBRANCH  19  22
ENDBRANCH  15  18
ENDBRANCH   1  11
BRANCH   1  28
ATOM     28  N   UNL     1       0.017  -2.651   2.456  0.00  0.00    -0.320 N 
ATOM     29  H   UNL     1      -0.058  -2.179   3.300  0.00  0.00    +0.148 HD
BRANCH  28  35
ATOM     30  C   UNL     1      -0.044   1.601   0.257  0.00  0.00    +0.063 C 
ATOM     31  C   UNL     1       0.031   0.098   0.177  0.00  0.00    +0.014 A 
ATOM     32  C   UNL     1       0.136  -0.514  -1.056  0.00  0.00    +0.021 A 
ATOM     33  C   UNL     1       0.205  -1.899  -1.124  0.00  0.00    +0.005 A 
ATOM     34  C   UNL     1       0.166  -2.621   0.056  0.00  0.00    +0.041 A 
ATOM     35  C   UNL     1       0.058  -1.938   1.263  0.00  0.00    +0.097 A 
ATOM     36  N   UNL     1       0.001  -0.615   1.286  0.00  0.00    -0.347 N 
ATOM     37  H   UNL     1      -0.070  -0.160   2.140  0.00  0.00    +0.167 HD
ENDBRANCH  28  35
ENDBRANCH   1  28
TORSDOF 6
