REMARK  Name = ZINC49486318
REMARK  7 active torsions:
REMARK  status: ('A' for Active; 'I' for Inactive)
REMARK    1  A    between atoms: C_3  and  C_6
REMARK    2  A    between atoms: C_6  and  C_8
REMARK    3  A    between atoms: C_6  and  N_19
REMARK    4  A    between atoms: C_8  and  N_9
REMARK    5  A    between atoms: N_9  and  S_10
REMARK    6  A    between atoms: S_10  and  C_13
REMARK    7  A    between atoms: N_22  and  C_25
REMARK                            x       y       z     vdW  Elec       q    Type
REMARK                         _______ _______ _______ _____ _____    ______ ____
ROOT
ATOM      1  C   UNL     1       3.787   0.452  -0.143  0.00  0.00    +0.015 C 
ENDROOT
BRANCH   1   2
ATOM      2  N   UNL     1       4.366  -0.746  -0.764  0.00  0.00    +0.389 N 
ATOM      3  C   UNL     1       5.763  -0.891  -0.336  0.00  0.00    -0.059 C 
ATOM      4  C   UNL     1       6.333  -2.201  -0.891  0.00  0.00    +0.086 C 
ATOM      5  N   UNL     1       6.141  -2.212  -2.349  0.00  0.00    -0.333 N 
ATOM      6  C   UNL     1       4.800  -1.912  -2.874  0.00  0.00    +0.086 C 
ATOM      7  C   UNL     1       4.302  -0.617  -2.226  0.00  0.00    -0.059 C 
ATOM      8  H   UNL     1       3.842  -1.559  -0.477  0.00  0.00    -0.081 HD
BRANCH   5   9
ATOM      9  C   UNL     1       7.204  -2.498  -3.212  0.00  0.00    +0.030 A 
ATOM     10  C   UNL     1       8.487  -2.660  -2.705  0.00  0.00    +0.026 A 
ATOM     11  C   UNL     1       9.535  -2.943  -3.559  0.00  0.00    +0.040 A 
ATOM     12  C   UNL     1       9.307  -3.067  -4.920  0.00  0.00    +0.124 A 
ATOM     13  C   UNL     1       8.028  -2.906  -5.427  0.00  0.00    +0.040 A 
ATOM     14  C   UNL     1       6.977  -2.628  -4.576  0.00  0.00    +0.026 A 
ATOM     15  F   UNL     1      10.333  -3.344  -5.753  0.00  0.00    -0.205 F 
ENDBRANCH   5   9
ENDBRANCH   1   2
BRANCH   1  18
ATOM     16  C   UNL     1       0.333   1.318  -1.091  0.00  0.00    +0.041 A 
ATOM     17  C   UNL     1       1.671   1.683  -0.819  0.00  0.00    +0.043 A 
ATOM     18  C   UNL     1       2.328   0.552  -0.507  0.00  0.00    +0.093 A 
ATOM     19  O   UNL     1       1.464  -0.474  -0.576  0.00  0.00    -0.469 OA
ATOM     20  C   UNL     1       0.252  -0.015  -0.930  0.00  0.00    +0.195 A 
ENDBRANCH   1  18
BRANCH   1  21
ATOM     21  C   UNL     1       3.927   0.356   1.378  0.00  0.00    +0.098 C 
BRANCH  21  22
ATOM     22  N   UNL     1       3.346  -0.905   1.843  0.00  0.00    -0.191 NA
ATOM     23  H   UNL     1       2.748  -1.405   1.267  0.00  0.00    +0.148 HD
BRANCH  22  24
ATOM     24  S   UNL     1       3.709  -1.476   3.355  0.00  0.00    +0.065 S 
ATOM     25  O   UNL     1       2.980  -2.685   3.518  0.00  0.00    -0.153 OA
ATOM     26  O   UNL     1       5.123  -1.416   3.483  0.00  0.00    -0.153 OA
BRANCH  24  27
ATOM     27  C   UNL     1       3.049  -0.330   4.518  0.00  0.00    +0.143 A 
ATOM     28  C   UNL     1       1.825  -0.314   5.100  0.00  0.00    +0.037 A 
ATOM     29  C   UNL     1       1.521   0.696   5.995  0.00  0.00    +0.025 A 
ATOM     30  C   UNL     1       2.457   1.640   6.263  0.00  0.00    +0.057 A 
ATOM     31  S   UNL     1       3.821   1.109   5.241  0.00  0.00    -0.062 S 
ATOM     32 BR   UNL     1       2.348   3.129   7.423  0.00  0.00    -0.043 Br
ENDBRANCH  24  27
ENDBRANCH  22  24
ENDBRANCH  21  22
ENDBRANCH   1  21
TORSDOF 7
