REMARK  Name = ZINC33023399
REMARK  11 active torsions:
REMARK  status: ('A' for Active; 'I' for Inactive)
REMARK    1  A    between atoms: C_1  and  C_2
REMARK    2  A    between atoms: C_4  and  S_9
REMARK    3  A    between atoms: S_9  and  N_12
REMARK    4  A    between atoms: N_12  and  C_13
REMARK    5  A    between atoms: C_16  and  C_19
REMARK    6  A    between atoms: N_21  and  C_22
REMARK    7  A    between atoms: C_22  and  C_23
REMARK    8  A    between atoms: C_23  and  C_25
REMARK    9  A    between atoms: C_23  and  N_33
REMARK   10  A    between atoms: C_28  and  O_31
REMARK   11  A    between atoms: O_31  and  C_32
REMARK                            x       y       z     vdW  Elec       q    Type
REMARK                         _______ _______ _______ _____ _____    ______ ____
ROOT
ATOM      1  C   UNL     1       4.857   4.422  -0.718  0.00  0.00    +0.244 C 
ATOM      2  O   UNL     1       4.889   5.428  -1.401  0.00  0.00    -0.270 OA
ATOM      3  N   UNL     1       5.989   3.954  -0.154  0.00  0.00    -0.313 N 
ATOM      4  H   UNL     1       5.960   3.044   0.463  0.00  0.00    +0.149 HD
ENDROOT
BRANCH   1   8
ATOM      5  C   UNL     1       1.183   2.381  -0.114  0.00  0.00    +0.048 A 
ATOM      6  C   UNL     1       2.349   1.900   0.474  0.00  0.00    +0.025 A 
ATOM      7  C   UNL     1       3.543   2.557   0.276  0.00  0.00    +0.015 A 
ATOM      8  C   UNL     1       3.581   3.713  -0.508  0.00  0.00    +0.037 A 
ATOM      9  C   UNL     1       2.407   4.197  -1.093  0.00  0.00    +0.015 A 
ATOM     10  C   UNL     1       1.217   3.534  -0.895  0.00  0.00    +0.025 A 
BRANCH   5  11
ATOM     11  N   UNL     1      -0.021   1.713   0.084  0.00  0.00    -0.216 N 
ATOM     12  H   UNL     1      -0.930   2.280   0.330  0.00  0.00    +0.174 HD
BRANCH  11  13
ATOM     13  S   UNL     1      -0.084   0.064  -0.051  0.00  0.00    +0.072 S 
ATOM     14  O   UNL     1       0.953  -0.451   0.773  0.00  0.00    -0.150 OA
ATOM     15  O   UNL     1      -1.446  -0.305   0.117  0.00  0.00    -0.150 OA
BRANCH  13  19
ATOM     16  C   UNL     1       3.410  -1.352  -3.671  0.00  0.00    +0.047 C 
ATOM     17  C   UNL     1       1.988  -0.990  -3.328  0.00  0.00    -0.013 A 
ATOM     18  C   UNL     1       1.650  -0.672  -2.026  0.00  0.00    +0.035 A 
ATOM     19  C   UNL     1       0.346  -0.339  -1.712  0.00  0.00    +0.109 A 
ATOM     20  C   UNL     1      -0.623  -0.328  -2.698  0.00  0.00    +0.031 A 
ATOM     21  C   UNL     1      -0.286  -0.640  -4.002  0.00  0.00    +0.040 A 
ATOM     22  C   UNL     1       1.020  -0.974  -4.318  0.00  0.00    +0.126 A 
ATOM     23  F   UNL     1       1.349  -1.283  -5.591  0.00  0.00    -0.205 F 
ENDBRANCH  13  19
ENDBRANCH  11  13
ENDBRANCH   5  11
ENDBRANCH   1   8
BRANCH   3  24
ATOM     24  C   UNL     1       7.256   4.658  -0.363  0.00  0.00    +0.094 C 
BRANCH  24  25
ATOM     25  C   UNL     1       8.375   3.925   0.380  0.00  0.00    -0.020 C 
BRANCH  25  26
ATOM     26  C   UNL     1       9.697   4.576   0.067  0.00  0.00    -0.059 A 
ATOM     27  C   UNL     1      10.665   4.681   1.048  0.00  0.00    +0.005 A 
ATOM     28  C   UNL     1      11.880   5.272   0.762  0.00  0.00    +0.046 A 
ATOM     29  C   UNL     1      12.124   5.772  -0.509  0.00  0.00    +0.120 A 
ATOM     30  C   UNL     1      11.149   5.671  -1.491  0.00  0.00    +0.046 A 
ATOM     31  C   UNL     1       9.938   5.074  -1.201  0.00  0.00    +0.005 A 
BRANCH  29  32
ATOM     32  O   UNL     1      13.317   6.360  -0.792  0.00  0.00    -0.495 OA
ATOM     33  C   UNL     1      14.273   6.429   0.267  0.00  0.00    +0.277 C 
ENDBRANCH  29  32
ENDBRANCH  25  26
BRANCH  25  34
ATOM     34  N   UNL     1       8.408   2.520  -0.046  0.00  0.00    +0.385 N 
ATOM     35  C   UNL     1       8.832   2.404  -1.465  0.00  0.00    -0.078 C 
ATOM     36  C   UNL     1       9.311   0.935  -1.573  0.00  0.00    -0.020 C 
ATOM     37  C   UNL     1      10.000   0.694  -0.210  0.00  0.00    -0.020 C 
ATOM     38  C   UNL     1       9.400   1.751   0.736  0.00  0.00    -0.078 C 
ATOM     39  H   UNL     1       7.388   2.136   0.108  0.00  0.00    -0.081 HD
ENDBRANCH  25  34
ENDBRANCH  24  25
ENDBRANCH   3  24
TORSDOF 9
