REMARK  Name = ZINC66756948
REMARK  6 active torsions:
REMARK  status: ('A' for Active; 'I' for Inactive)
REMARK    1  A    between atoms: C_1  and  C_2
REMARK    2  A    between atoms: C_3  and  C_17
REMARK    3  A    between atoms: N_6  and  C_7
REMARK    4  A    between atoms: N_19  and  C_20
REMARK    5  A    between atoms: C_25  and  C_26
REMARK    6  A    between atoms: N_28  and  C_29
REMARK                            x       y       z     vdW  Elec       q    Type
REMARK                         _______ _______ _______ _____ _____    ______ ____
ROOT
ATOM      1  C   UNL     1       0.004   1.486   0.015  0.00  0.00    +0.068 C 
ATOM      2  C   UNL     1       0.037  -0.020   0.002  0.00  0.00    +0.074 A 
ATOM      3  C   UNL     1       0.040  -0.826  -1.102  0.00  0.00    +0.170 A 
ATOM      4  N   UNL     1       0.075  -2.107  -0.694  0.00  0.00    -0.124 NA
ATOM      5  N   UNL     1       0.094  -2.149   0.593  0.00  0.00    -0.060 NA
ATOM      6  N   UNL     1       0.076  -0.834   1.079  0.00  0.00    -0.216 N 
ENDROOT
BRANCH   6   7
ATOM      7  C   UNL     1       0.093  -0.440   2.425  0.00  0.00    +0.068 A 
ATOM      8  C   UNL     1       0.766   0.729   2.795  0.00  0.00    +0.030 A 
ATOM      9  C   UNL     1       0.800   1.137   4.091  0.00  0.00    +0.030 A 
ATOM     10  C   UNL     1       0.150   0.378   5.081  0.00  0.00    +0.071 A 
ATOM     11  C   UNL     1      -0.533  -0.807   4.707  0.00  0.00    +0.002 A 
ATOM     12  C   UNL     1      -0.554  -1.200   3.360  0.00  0.00    +0.038 A 
ATOM     13  C   UNL     1      -1.182  -1.563   5.700  0.00  0.00    +0.011 A 
ATOM     14  C   UNL     1      -1.124  -1.118   6.990  0.00  0.00    +0.020 A 
ATOM     15  C   UNL     1      -0.436   0.055   7.290  0.00  0.00    +0.111 A 
ATOM     16  N   UNL     1       0.167   0.758   6.362  0.00  0.00    -0.255 NA
ENDBRANCH   6   7
BRANCH   3  17
ATOM     17  C   UNL     1       0.010  -0.368  -2.503  0.00  0.00    +0.270 C 
ATOM     18  O   UNL     1      -0.021   0.821  -2.754  0.00  0.00    -0.268 OA
ATOM     19  N   UNL     1       0.017  -1.268  -3.506  0.00  0.00    -0.279 N 
ATOM     20  H   UNL     1       0.107  -2.214  -3.309  0.00  0.00    +0.155 HD
BRANCH  19  21
ATOM     21  C   UNL     1      -0.107  -0.841  -4.825  0.00  0.00    +0.046 A 
ATOM     22  C   UNL     1       0.465   0.359  -5.226  0.00  0.00    +0.024 A 
ATOM     23  C   UNL     1       0.342   0.781  -6.535  0.00  0.00    +0.002 A 
ATOM     24  C   UNL     1      -0.351   0.013  -7.457  0.00  0.00    +0.001 A 
ATOM     25  C   UNL     1      -0.925  -1.181  -7.077  0.00  0.00    +0.015 A 
ATOM     26  C   UNL     1      -0.804  -1.624  -5.758  0.00  0.00    +0.058 A 
BRANCH  26  27
ATOM     27  C   UNL     1      -1.410  -2.904  -5.346  0.00  0.00    +0.246 C 
ATOM     28  O   UNL     1      -1.392  -3.237  -4.177  0.00  0.00    -0.270 OA
ATOM     29  N   UNL     1      -1.986  -3.704  -6.266  0.00  0.00    -0.314 N 
ATOM     30  C   UNL     1      -2.588  -4.975  -5.857  0.00  0.00    +0.128 C 
ATOM     31  H   UNL     1      -2.001  -3.438  -7.199  0.00  0.00    +0.149 HD
ENDBRANCH  26  27
ENDBRANCH  19  21
ENDBRANCH   3  17
TORSDOF 4
