REMARK  Name = ZINC13977493
REMARK  11 active torsions:
REMARK  status: ('A' for Active; 'I' for Inactive)
REMARK    1  A    between atoms: C_1  and  C_2
REMARK    2  A    between atoms: C_4  and  O_12
REMARK    3  A    between atoms: C_5  and  C_9
REMARK    4  A    between atoms: C_9  and  C_10
REMARK    5  A    between atoms: C_9  and  C_11
REMARK    6  A    between atoms: O_12  and  C_13
REMARK    7  A    between atoms: C_13  and  C_14
REMARK    8  A    between atoms: N_16  and  C_17
REMARK    9  A    between atoms: C_20  and  S_23
REMARK   10  A    between atoms: S_23  and  N_26
REMARK   11  A    between atoms: N_26  and  C_27
REMARK                            x       y       z     vdW  Elec       q    Type
REMARK                         _______ _______ _______ _____ _____    ______ ____
ROOT
ATOM      1  C   UNL     1      -0.598  -1.155  -6.095  0.00  0.00    +0.255 C 
ATOM      2  O   UNL     1      -1.141  -0.809  -7.123  0.00  0.00    -0.272 OA
ATOM      3  N   UNL     1       0.004  -2.358  -6.023  0.00  0.00    -0.283 N 
ATOM      4  H   UNL     1       0.495  -2.608  -5.225  0.00  0.00    +0.155 HD
ENDROOT
BRANCH   3   5
ATOM      5  C   UNL     1      -0.080  -3.248  -7.099  0.00  0.00    +0.034 A 
ATOM      6  C   UNL     1      -0.161  -4.615  -6.867  0.00  0.00    +0.025 A 
ATOM      7  C   UNL     1      -0.243  -5.491  -7.932  0.00  0.00    +0.030 A 
ATOM      8  C   UNL     1      -0.245  -5.008  -9.228  0.00  0.00    +0.105 A 
ATOM      9  C   UNL     1      -0.164  -3.648  -9.462  0.00  0.00    +0.030 A 
ATOM     10  C   UNL     1      -0.087  -2.767  -8.402  0.00  0.00    +0.025 A 
BRANCH   8  11
ATOM     11  S   UNL     1      -0.350  -6.129 -10.584  0.00  0.00    +0.059 S 
ATOM     12  O   UNL     1       0.216  -5.465 -11.705  0.00  0.00    -0.153 OA
ATOM     13  O   UNL     1       0.134  -7.380 -10.115  0.00  0.00    -0.153 OA
BRANCH  11  14
ATOM     14  N   UNL     1      -1.958  -6.340 -10.921  0.00  0.00    -0.187 NA
ATOM     15  H   UNL     1      -2.369  -7.210 -10.797  0.00  0.00    +0.148 HD
BRANCH  14  16
ATOM     16  C   UNL     1      -2.758  -5.213 -11.406  0.00  0.00    +0.077 C 
ATOM     17  C   UNL     1      -3.468  -4.547 -10.226  0.00  0.00    +0.020 C 
ATOM     18  C   UNL     1      -4.304  -3.370 -10.733  0.00  0.00    +0.002 C 
ATOM     19  C   UNL     1      -5.345  -3.877 -11.733  0.00  0.00    +0.000 C 
ATOM     20  C   UNL     1      -4.635  -4.544 -12.913  0.00  0.00    +0.002 C 
ATOM     21  C   UNL     1      -3.799  -5.721 -12.407  0.00  0.00    +0.020 C 
ENDBRANCH  14  16
ENDBRANCH  11  14
ENDBRANCH   8  11
ENDBRANCH   3   5
BRANCH   1  22
ATOM     22  C   UNL     1      -0.597  -0.239  -4.899  0.00  0.00    +0.324 C 
BRANCH  22  23
ATOM     23  O   UNL     1      -1.293   0.967  -5.222  0.00  0.00    -0.482 OA
BRANCH  23  27
ATOM     24  C   UNL     1      -0.292   2.378  -0.658  0.00  0.00    +0.045 C 
ATOM     25  C   UNL     1      -0.909   2.632  -2.009  0.00  0.00    -0.033 A 
ATOM     26  C   UNL     1      -0.816   1.674  -3.001  0.00  0.00    +0.050 A 
ATOM     27  C   UNL     1      -1.384   1.908  -4.245  0.00  0.00    +0.125 A 
ATOM     28  C   UNL     1      -2.045   3.103  -4.490  0.00  0.00    -0.002 A 
ATOM     29  C   UNL     1      -2.136   4.057  -3.496  0.00  0.00    +0.023 A 
ATOM     30  C   UNL     1      -1.573   3.820  -2.254  0.00  0.00    +0.021 A 
ATOM     31 BR   UNL     1      -1.705   5.126  -0.893  0.00  0.00    -0.050 Br
BRANCH  28  32
ATOM     32  C   UNL     1      -2.663   3.359  -5.840  0.00  0.00    +0.016 C 
ATOM     33  C   UNL     1      -4.168   3.581  -5.679  0.00  0.00    +0.012 C 
ATOM     34  C   UNL     1      -2.028   4.604  -6.463  0.00  0.00    +0.012 C 
ENDBRANCH  28  32
ENDBRANCH  23  27
ENDBRANCH  22  23
ENDBRANCH   1  22
TORSDOF 8
