REMARK  Name = ZINC25591915
REMARK  9 active torsions:
REMARK  status: ('A' for Active; 'I' for Inactive)
REMARK    1  A    between atoms: C_1  and  C_2
REMARK    2  A    between atoms: N_4  and  C_5
REMARK    3  A    between atoms: C_7  and  N_13
REMARK    4  A    between atoms: C_10  and  O_11
REMARK    5  A    between atoms: O_11  and  C_12
REMARK    6  A    between atoms: C_14  and  C_16
REMARK    7  A    between atoms: C_25  and  N_26
REMARK    8  A    between atoms: N_26  and  S_27
REMARK    9  A    between atoms: S_27  and  C_30
REMARK                            x       y       z     vdW  Elec       q    Type
REMARK                         _______ _______ _______ _____ _____    ______ ____
ROOT
ATOM      1  C   UNL     1       2.607   1.085  -0.572  0.00  0.00    +0.062 A 
ATOM      2  C   UNL     1       3.894   1.585  -0.679  0.00  0.00    +0.023 A 
ATOM      3  C   UNL     1       4.165   2.895  -0.258  0.00  0.00    -0.017 A 
ATOM      4  C   UNL     1       5.461   3.434  -0.353  0.00  0.00    +0.008 A 
ATOM      5  C   UNL     1       5.693   4.708   0.064  0.00  0.00    +0.001 A 
ATOM      6  C   UNL     1       4.664   5.491   0.585  0.00  0.00    +0.001 A 
ATOM      7  C   UNL     1       3.398   5.004   0.694  0.00  0.00    +0.008 A 
ATOM      8  C   UNL     1       3.117   3.692   0.274  0.00  0.00    -0.016 A 
ATOM      9  C   UNL     1       1.819   3.165   0.368  0.00  0.00    +0.036 A 
ATOM     10  C   UNL     1       1.571   1.886  -0.041  0.00  0.00    +0.087 A 
ENDROOT
BRANCH   1  12
ATOM     11  N   UNL     1       3.301  -1.059  -1.520  0.00  0.00    -0.281 N 
ATOM     12  C   UNL     1       2.316  -0.292  -1.013  0.00  0.00    +0.250 C 
ATOM     13  O   UNL     1       1.187  -0.735  -0.920  0.00  0.00    -0.270 OA
ATOM     14  H   UNL     1       4.336  -0.686  -1.537  0.00  0.00    +0.155 HD
BRANCH  11  17
ATOM     15  C   UNL     1       3.410  -4.079  -3.624  0.00  0.00    +0.077 A 
ATOM     16  C   UNL     1       3.702  -2.818  -3.125  0.00  0.00    +0.050 A 
ATOM     17  C   UNL     1       3.008  -2.332  -2.026  0.00  0.00    +0.036 A 
ATOM     18  C   UNL     1       2.027  -3.109  -1.423  0.00  0.00    +0.027 A 
ATOM     19  C   UNL     1       1.732  -4.362  -1.923  0.00  0.00    +0.049 A 
ATOM     20  C   UNL     1       2.421  -4.853  -3.020  0.00  0.00    +0.141 A 
BRANCH  15  24
ATOM     21  C   UNL     1       6.121  -4.679  -6.168  0.00  0.00    +0.109 C 
ATOM     22  C   UNL     1       5.402  -4.243  -4.917  0.00  0.00    +0.214 C 
ATOM     23  O   UNL     1       5.988  -3.595  -4.075  0.00  0.00    -0.276 OA
ATOM     24  N   UNL     1       4.108  -4.573  -4.734  0.00  0.00    -0.283 N 
ATOM     25  H   UNL     1       3.601  -5.230  -5.455  0.00  0.00    +0.155 HD
ENDBRANCH  15  24
BRANCH  20  26
ATOM     26  O   UNL     1       2.133  -6.089  -3.509  0.00  0.00    -0.493 OA
ATOM     27  C   UNL     1       1.108  -6.828  -2.841  0.00  0.00    +0.277 C 
ENDBRANCH  20  26
ENDBRANCH  11  17
ENDBRANCH   1  12
BRANCH  10  28
ATOM     28  N   UNL     1       0.283   1.368   0.061  0.00  0.00    -0.097 NA
BRANCH  28  29
ATOM     29  S   UNL     1      -1.026   2.347  -0.202  0.00  0.00    +0.098 S 
ATOM     30  O   UNL     1      -2.173   1.509  -0.168  0.00  0.00    -0.148 OA
ATOM     31  O   UNL     1      -0.874   3.468   0.658  0.00  0.00    -0.148 OA
BRANCH  29  32
ATOM     32  C   UNL     1      -0.898   2.957  -1.850  0.00  0.00    +0.148 A 
ATOM     33  C   UNL     1      -1.385   2.425  -2.998  0.00  0.00    +0.037 A 
ATOM     34  C   UNL     1      -1.161   3.085  -4.191  0.00  0.00    +0.010 A 
ATOM     35  C   UNL     1      -0.461   4.246  -4.179  0.00  0.00    +0.047 A 
ATOM     36  S   UNL     1      -0.099   4.441  -2.441  0.00  0.00    -0.077 S 
ENDBRANCH  29  32
ENDBRANCH  28  29
ENDBRANCH  10  28
TORSDOF 7
