REMARK  Name = ZINC35692914
REMARK  9 active torsions:
REMARK  status: ('A' for Active; 'I' for Inactive)
REMARK    1  A    between atoms: C_1  and  C_2
REMARK    2  A    between atoms: C_2  and  O_3
REMARK    3  A    between atoms: O_3  and  C_4
REMARK    4  A    between atoms: C_4  and  C_6
REMARK    5  A    between atoms: C_7  and  C_29
REMARK    6  A    between atoms: C_11  and  C_13
REMARK    7  A    between atoms: C_19  and  C_22
REMARK    8  A    between atoms: C_23  and  N_25
REMARK    9  A    between atoms: N_25  and  C_26
REMARK                            x       y       z     vdW  Elec       q    Type
REMARK                         _______ _______ _______ _____ _____    ______ ____
ROOT
ATOM      1  C   UNL     1       1.945  -2.406  -2.279  0.00  0.00    +0.087 C 
ATOM      2  C   UNL     1       1.762  -3.733  -2.667  0.00  0.00    +0.086 C 
ATOM      3  N   UNL     1       1.832  -4.069  -3.953  0.00  0.00    -0.224 NA
ATOM      4  C   UNL     1       2.068  -3.228  -4.936  0.00  0.00    +0.166 C 
ATOM      5  N   UNL     1       2.274  -1.887  -4.764  0.00  0.00    -0.267 N 
ATOM      6  C   UNL     1       2.214  -1.388  -3.365  0.00  0.00    +0.150 C 
ATOM      7  C   UNL     1       2.510  -1.139  -5.901  0.00  0.00    +0.048 C 
ATOM      8  C   UNL     1       2.518  -1.787  -7.087  0.00  0.00    +0.072 C 
ATOM      9  S   UNL     1       2.191  -3.467  -6.593  0.00  0.00    -0.060 S 
ENDROOT
BRANCH   6  10
ATOM     10  C   UNL     1       3.531  -0.722  -3.059  0.00  0.00    -0.022 A 
ATOM     11  C   UNL     1       4.717  -1.391  -3.298  0.00  0.00    +0.006 A 
ATOM     12  C   UNL     1       5.924  -0.780  -3.017  0.00  0.00    +0.000 A 
ATOM     13  C   UNL     1       5.947   0.501  -2.498  0.00  0.00    +0.000 A 
ATOM     14  C   UNL     1       4.761   1.171  -2.260  0.00  0.00    +0.000 A 
ATOM     15  C   UNL     1       3.553   0.561  -2.545  0.00  0.00    +0.006 A 
ENDBRANCH   6  10
BRANCH   2  16
ATOM     16  C   UNL     1       1.489  -4.770  -1.646  0.00  0.00    +0.001 A 
ATOM     17  C   UNL     1       0.313  -4.723  -0.897  0.00  0.00    +0.010 A 
ATOM     18  C   UNL     1       0.065  -5.692   0.053  0.00  0.00    +0.001 A 
ATOM     19  C   UNL     1       0.980  -6.709   0.264  0.00  0.00    +0.000 A 
ATOM     20  C   UNL     1       2.148  -6.760  -0.475  0.00  0.00    +0.001 A 
ATOM     21  C   UNL     1       2.405  -5.801  -1.433  0.00  0.00    +0.010 A 
ENDBRANCH   2  16
BRANCH   7  22
ATOM     22  C   UNL     1       2.743   0.310  -5.824  0.00  0.00    +0.091 C 
ATOM     23  C   UNL     1       3.067   1.000  -6.934  0.00  0.00    +0.239 C 
ATOM     24  O   UNL     1       3.076   0.380  -8.139  0.00  0.00    -0.271 OA
BRANCH  23  25
ATOM     25  N   UNL     1       3.392   2.343  -6.844  0.00  0.00    -0.309 N 
ATOM     26  H   UNL     1       3.459   2.769  -5.975  0.00  0.00    +0.149 HD
BRANCH  25  27
ATOM     27  C   UNL     1       3.633   3.121  -8.062  0.00  0.00    +0.073 C 
ATOM     28  C   UNL     1       4.878   4.011  -8.096  0.00  0.00    +0.024 C 
ATOM     29  C   UNL     1       3.490   4.642  -7.968  0.00  0.00    +0.024 C 
ENDBRANCH  25  27
ENDBRANCH  23  25
ENDBRANCH   7  22
BRANCH   1  30
ATOM     30  C   UNL     1       1.877  -2.029  -0.936  0.00  0.00    +0.339 C 
ATOM     31  O   UNL     1       1.771  -2.880  -0.069  0.00  0.00    -0.245 OA
BRANCH  30  32
ATOM     32  O   UNL     1       1.928  -0.721  -0.598  0.00  0.00    -0.462 OA
BRANCH  32  34
ATOM     33  C   UNL     1       1.926   1.108   0.981  0.00  0.00    +0.048 C 
ATOM     34  C   UNL     1       1.853  -0.408   0.794  0.00  0.00    +0.229 C 
ENDBRANCH  32  34
ENDBRANCH  30  32
ENDBRANCH   1  30
TORSDOF 8
