REMARK  Name = ZINC36719804
REMARK  4 active torsions:
REMARK  status: ('A' for Active; 'I' for Inactive)
REMARK    1  A    between atoms: C_4  and  C_8
REMARK    2  A    between atoms: N_10  and  C_11
REMARK    3  A    between atoms: C_14  and  S_17
REMARK    4  A    between atoms: S_17  and  N_20
REMARK                            x       y       z     vdW  Elec       q    Type
REMARK                         _______ _______ _______ _____ _____    ______ ____
ROOT
ATOM      1  C   UNL     1       3.392  -1.183  -2.214  0.00  0.00    +0.254 C 
ATOM      2  O   UNL     1       3.655  -1.940  -3.128  0.00  0.00    -0.270 OA
ATOM      3  N   UNL     1       4.275  -1.003  -1.212  0.00  0.00    -0.281 N 
ATOM      4  H   UNL     1       4.095  -0.350  -0.518  0.00  0.00    +0.155 HD
ENDROOT
BRANCH   1   8
ATOM      5  C   UNL     1      -0.312   0.898  -2.177  0.00  0.00    +0.006 A 
ATOM      6  C   UNL     1      -0.215  -0.345  -1.578  0.00  0.00    +0.039 A 
ATOM      7  C   UNL     1       0.986  -1.029  -1.585  0.00  0.00    +0.138 A 
ATOM      8  C   UNL     1       2.106  -0.460  -2.201  0.00  0.00    +0.107 A 
ATOM      9  C   UNL     1       1.999   0.797  -2.805  0.00  0.00    +0.138 A 
ATOM     10  C   UNL     1       0.791   1.467  -2.788  0.00  0.00    +0.039 A 
ATOM     11  F   UNL     1       3.075   1.356  -3.402  0.00  0.00    -0.205 F 
ATOM     12  F   UNL     1       1.078  -2.242  -0.999  0.00  0.00    -0.205 F 
ENDBRANCH   1   8
BRANCH   3  13
ATOM     13  C   UNL     1       5.451  -1.759  -1.173  0.00  0.00    +0.034 A 
ATOM     14  C   UNL     1       5.977  -2.166   0.047  0.00  0.00    +0.025 A 
ATOM     15  C   UNL     1       7.138  -2.913   0.082  0.00  0.00    +0.030 A 
ATOM     16  C   UNL     1       7.778  -3.254  -1.095  0.00  0.00    +0.105 A 
ATOM     17  C   UNL     1       7.258  -2.850  -2.311  0.00  0.00    +0.030 A 
ATOM     18  C   UNL     1       6.093  -2.109  -2.354  0.00  0.00    +0.025 A 
BRANCH  16  19
ATOM     19  S   UNL     1       9.261  -4.206  -1.046  0.00  0.00    +0.056 S 
ATOM     20  O   UNL     1       9.961  -3.929  -2.251  0.00  0.00    -0.153 OA
ATOM     21  O   UNL     1       9.836  -3.994   0.235  0.00  0.00    -0.153 OA
BRANCH  19  22
ATOM     22  N   UNL     1       8.820  -5.801  -1.110  0.00  0.00    -0.204 NA
ATOM     23  H   UNL     1       7.883  -6.044  -1.163  0.00  0.00    +0.144 HD
ATOM     24  H   UNL     1       9.500  -6.493  -1.094  0.00  0.00    +0.144 HD
ENDBRANCH  19  22
ENDBRANCH  16  19
ENDBRANCH   3  13
TORSDOF 4
