REMARK  Name = ZINC17304830
REMARK  7 active torsions:
REMARK  status: ('A' for Active; 'I' for Inactive)
REMARK    1  A    between atoms: C_1  and  C_2
REMARK    2  A    between atoms: C_5  and  C_31
REMARK    3  A    between atoms: C_6  and  S_8
REMARK    4  A    between atoms: S_8  and  N_11
REMARK    5  A    between atoms: N_11  and  C_12
REMARK    6  A    between atoms: C_15  and  C_18
REMARK    7  A    between atoms: N_20  and  C_21
REMARK                            x       y       z     vdW  Elec       q    Type
REMARK                         _______ _______ _______ _____ _____    ______ ____
ROOT
ATOM      1  C   UNL     1       7.228  -4.099   0.138  0.00  0.00    +0.048 A 
ATOM      2  C   UNL     1       6.081  -4.882   0.049  0.00  0.00    +0.025 A 
ATOM      3  C   UNL     1       4.859  -4.291  -0.182  0.00  0.00    +0.015 A 
ATOM      4  C   UNL     1       4.772  -2.904  -0.329  0.00  0.00    +0.037 A 
ATOM      5  C   UNL     1       5.927  -2.121  -0.244  0.00  0.00    +0.015 A 
ATOM      6  C   UNL     1       7.145  -2.716  -0.007  0.00  0.00    +0.025 A 
ENDROOT
BRANCH   4   7
ATOM      7  C   UNL     1       3.465  -2.267  -0.577  0.00  0.00    +0.248 C 
ATOM      8  O   UNL     1       2.461  -2.950  -0.655  0.00  0.00    -0.270 OA
ATOM      9  N   UNL     1       3.382  -0.929  -0.718  0.00  0.00    -0.281 N 
ATOM     10  H   UNL     1       4.189  -0.392  -0.722  0.00  0.00    +0.155 HD
BRANCH   9  11
ATOM     11  C   UNL     1       2.131  -0.316  -0.858  0.00  0.00    +0.037 A 
ATOM     12  C   UNL     1       1.902   0.932  -0.294  0.00  0.00    +0.027 A 
ATOM     13  C   UNL     1       0.668   1.537  -0.431  0.00  0.00    +0.051 A 
ATOM     14  C   UNL     1      -0.347   0.900  -1.130  0.00  0.00    +0.162 A 
ATOM     15  C   UNL     1      -0.120  -0.349  -1.697  0.00  0.00    +0.164 A 
ATOM     16  C   UNL     1       1.119  -0.956  -1.559  0.00  0.00    +0.072 A 
ATOM     17  O   UNL     1      -1.101  -0.985  -2.394  0.00  0.00    -0.485 OA
ATOM     18  C   UNL     1      -2.439  -0.518  -2.195  0.00  0.00    +0.270 C 
ATOM     19  C   UNL     1      -2.430   1.014  -2.272  0.00  0.00    +0.270 C 
ATOM     20  O   UNL     1      -1.560   1.508  -1.247  0.00  0.00    -0.485 OA
ENDBRANCH   9  11
ENDBRANCH   4   7
BRANCH   1  21
ATOM     21  N   UNL     1       8.461  -4.698   0.371  0.00  0.00    -0.216 N 
ATOM     22  H   UNL     1       8.546  -5.382   1.054  0.00  0.00    +0.174 HD
BRANCH  21  23
ATOM     23  S   UNL     1       9.784  -4.246  -0.516  0.00  0.00    +0.073 S 
ATOM     24  O   UNL     1       9.859  -2.829  -0.440  0.00  0.00    -0.150 OA
ATOM     25  O   UNL     1      10.853  -5.089  -0.110  0.00  0.00    -0.150 OA
BRANCH  23  31
ATOM     26  C   UNL     1       9.047  -2.852  -5.500  0.00  0.00    +0.044 C 
ATOM     27  C   UNL     1       9.113  -3.947  -4.467  0.00  0.00    -0.049 A 
ATOM     28  C   UNL     1       8.906  -5.262  -4.840  0.00  0.00    +0.004 A 
ATOM     29  C   UNL     1       8.966  -6.266  -3.892  0.00  0.00    +0.005 A 
ATOM     30  C   UNL     1       9.240  -5.957  -2.573  0.00  0.00    -0.024 A 
ATOM     31  C   UNL     1       9.442  -4.641  -2.199  0.00  0.00    +0.112 A 
ATOM     32  C   UNL     1       9.381  -3.636  -3.147  0.00  0.00    +0.032 A 
ATOM     33  C   UNL     1       9.313  -7.053  -1.541  0.00  0.00    +0.046 C 
ENDBRANCH  23  31
ENDBRANCH  21  23
ENDBRANCH   1  21
TORSDOF 5
