REMARK  Name = ZINC12615192
REMARK  9 active torsions:
REMARK  status: ('A' for Active; 'I' for Inactive)
REMARK    1  A    between atoms: C_1  and  C_2
REMARK    2  A    between atoms: C_4  and  C_12
REMARK    3  A    between atoms: C_7  and  O_8
REMARK    4  A    between atoms: O_8  and  C_9
REMARK    5  A    between atoms: C_9  and  C_10
REMARK    6  A    between atoms: C_9  and  C_11
REMARK    7  A    between atoms: C_13  and  C_23
REMARK    8  A    between atoms: N_15  and  C_17
REMARK    9  A    between atoms: C_33  and  C_36
REMARK                            x       y       z     vdW  Elec       q    Type
REMARK                         _______ _______ _______ _____ _____    ______ ____
ROOT
ATOM      1  C   UNL     1       0.815  -4.109  -0.963  0.00  0.00    +0.100 A 
ATOM      2  C   UNL     1       1.736  -4.689  -1.948  0.00  0.00    +0.022 A 
ATOM      3  C   UNL     1       1.611  -6.062  -1.835  0.00  0.00    +0.123 A 
ATOM      4  N   UNL     1       0.696  -6.314  -0.880  0.00  0.00    -0.239 N 
ATOM      5  N   UNL     1       0.219  -5.110  -0.356  0.00  0.00    -0.166 NA
ENDROOT
BRANCH   2   6
ATOM      6  C   UNL     1       2.615  -3.960  -2.867  0.00  0.00    +0.032 C 
ATOM      7  C   UNL     1       3.416  -4.642  -3.727  0.00  0.00    +0.080 C 
ATOM      8  C   UNL     1       4.375  -4.136  -4.733  0.00  0.00    +0.276 C 
ATOM      9  O   UNL     1       4.556  -2.941  -4.905  0.00  0.00    -0.267 OA
ATOM     10  N   UNL     1       5.021  -5.043  -5.433  0.00  0.00    -0.154 NA
ATOM     11  C   UNL     1       4.834  -6.341  -5.256  0.00  0.00    +0.154 C 
ATOM     12  S   UNL     1       3.612  -6.405  -3.955  0.00  0.00    -0.052 S 
ATOM     13  N   UNL     1       5.436  -7.384  -5.910  0.00  0.00    -0.311 N 
ATOM     14  C   UNL     1       5.102  -8.774  -5.570  0.00  0.00    +0.107 C 
ATOM     15  C   UNL     1       6.390  -9.532  -5.253  0.00  0.00    +0.032 C 
ATOM     16  C   UNL     1       7.365  -9.388  -6.423  0.00  0.00    +0.078 C 
ATOM     17  C   UNL     1       7.710  -7.910  -6.624  0.00  0.00    +0.032 C 
ATOM     18  C   UNL     1       6.433  -7.134  -6.960  0.00  0.00    +0.107 C 
BRANCH  16  19
ATOM     19  C   UNL     1       8.624 -10.161  -6.125  0.00  0.00    +0.214 C 
ATOM     20  O   UNL     1       9.691  -9.586  -6.077  0.00  0.00    -0.276 OA
ATOM     21  N   UNL     1       8.564 -11.490  -5.910  0.00  0.00    -0.329 N 
ATOM     22  H   UNL     1       7.711 -11.949  -5.949  0.00  0.00    +0.145 HD
ATOM     23  H   UNL     1       9.374 -11.987  -5.718  0.00  0.00    +0.145 HD
ENDBRANCH  16  19
ENDBRANCH   2   6
BRANCH   1  27
ATOM     24  C   UNL     1      -2.247  -0.358   0.247  0.00  0.00    +0.047 C 
ATOM     25  C   UNL     1      -0.875  -0.859  -0.124  0.00  0.00    -0.008 A 
ATOM     26  C   UNL     1      -0.675  -2.202  -0.368  0.00  0.00    +0.017 A 
ATOM     27  C   UNL     1       0.596  -2.666  -0.706  0.00  0.00    +0.003 A 
ATOM     28  C   UNL     1       1.660  -1.769  -0.802  0.00  0.00    +0.014 A 
ATOM     29  C   UNL     1       1.452  -0.427  -0.562  0.00  0.00    +0.046 A 
ATOM     30  C   UNL     1       0.185   0.032  -0.226  0.00  0.00    +0.124 A 
BRANCH  30  31
ATOM     31  O   UNL     1      -0.016   1.355   0.009  0.00  0.00    -0.489 OA
BRANCH  31  32
ATOM     32  C   UNL     1       1.138   2.196   0.011  0.00  0.00    +0.167 C 
ATOM     33  C   UNL     1       1.462   2.619  -1.424  0.00  0.00    +0.051 C 
ATOM     34  C   UNL     1       0.862   3.439   0.859  0.00  0.00    +0.051 C 
ENDBRANCH  31  32
ENDBRANCH  30  31
ENDBRANCH   1  27
BRANCH   4  35
ATOM     35  C   UNL     1       0.285  -7.590  -0.474  0.00  0.00    +0.065 A 
ATOM     36  C   UNL     1       0.827  -8.720  -1.074  0.00  0.00    +0.028 A 
ATOM     37  C   UNL     1       0.423  -9.976  -0.667  0.00  0.00    +0.002 A 
ATOM     38  C   UNL     1      -0.528 -10.111   0.328  0.00  0.00    +0.000 A 
ATOM     39  C   UNL     1      -1.074  -8.988   0.922  0.00  0.00    +0.002 A 
ATOM     40  C   UNL     1      -0.670  -7.728   0.524  0.00  0.00    +0.028 A 
ENDBRANCH   4  35
TORSDOF 6
