REMARK  Name = ZINC20101738
REMARK  15 active torsions:
REMARK  status: ('A' for Active; 'I' for Inactive)
REMARK    1  A    between atoms: C_1  and  C_2
REMARK    2  A    between atoms: C_5  and  N_8
REMARK    3  A    between atoms: C_9  and  C_11
REMARK    4  A    between atoms: C_11  and  S_12
REMARK    5  A    between atoms: S_12  and  C_13
REMARK    6  A    between atoms: C_14  and  C_36
REMARK    7  A    between atoms: C_15  and  C_27
REMARK    8  A    between atoms: C_17  and  C_21
REMARK    9  A    between atoms: C_18  and  C_20
REMARK   10  A    between atoms: C_21  and  O_23
REMARK   11  A    between atoms: O_23  and  C_24
REMARK   12  A    between atoms: C_24  and  C_25
REMARK   13  A    between atoms: C_30  and  O_35
REMARK   14  A    between atoms: C_31  and  O_33
REMARK   15  A    between atoms: O_33  and  C_34
REMARK                            x       y       z     vdW  Elec       q    Type
REMARK                         _______ _______ _______ _____ _____    ______ ____
ROOT
ATOM      1  C   UNL     1       3.864  -6.549  -0.522  0.00  0.00    +0.080 C 
ATOM      2  C   UNL     1       4.924  -7.390  -0.653  0.00  0.00    +0.069 C 
ATOM      3  C   UNL     1       4.732  -8.877  -0.748  0.00  0.00    +0.100 C 
ATOM      4  C   UNL     1       3.306  -9.210  -1.080  0.00  0.00    +0.066 C 
ATOM      5  C   UNL     1       2.319  -8.310  -0.938  0.00  0.00    +0.016 C 
ATOM      6  N   UNL     1       2.579  -7.044  -0.491  0.00  0.00    -0.312 N 
ATOM      7  C   UNL     1       0.903  -8.701  -1.276  0.00  0.00    +0.061 C 
ATOM      8  H   UNL     1       1.758  -6.420  -0.107  0.00  0.00    +0.152 HD
ENDROOT
BRANCH   3   9
ATOM      9  C   UNL     1       5.096  -9.514   0.569  0.00  0.00    -0.031 A 
ATOM     10  C   UNL     1       4.395  -9.180   1.713  0.00  0.00    +0.008 A 
ATOM     11  C   UNL     1       4.725  -9.762   2.923  0.00  0.00    +0.049 A 
ATOM     12  C   UNL     1       5.760 -10.681   2.991  0.00  0.00    +0.158 A 
ATOM     13  C   UNL     1       6.466 -11.016   1.840  0.00  0.00    +0.162 A 
ATOM     14  C   UNL     1       6.127 -10.433   0.629  0.00  0.00    +0.054 A 
BRANCH  13  15
ATOM     15  O   UNL     1       7.482 -11.917   1.902  0.00  0.00    -0.491 OA
ATOM     16  C   UNL     1       8.162 -12.213   0.680  0.00  0.00    +0.277 C 
ENDBRANCH  13  15
BRANCH  12  17
ATOM     17  O   UNL     1       6.085 -11.254   4.181  0.00  0.00    -0.503 OA
ATOM     18  H   UNL     1       6.907 -11.983   4.234  0.00  0.00    +0.292 HD
ENDBRANCH  12  17
ENDBRANCH   3   9
BRANCH   4  19
ATOM     19  C   UNL     1       2.994 -10.505  -1.553  0.00  0.00    +0.338 C 
ATOM     20  O   UNL     1       1.843 -10.792  -1.827  0.00  0.00    -0.245 OA
BRANCH  19  21
ATOM     21  O   UNL     1       3.972 -11.423  -1.702  0.00  0.00    -0.457 OA
BRANCH  21  22
ATOM     22  C   UNL     1       3.584 -12.711  -2.185  0.00  0.00    +0.259 C 
BRANCH  22  23
ATOM     23  C   UNL     1       4.800 -13.596  -2.287  0.00  0.00    +0.006 C 
ATOM     24  C   UNL     1       4.751 -14.828  -1.845  0.00  0.00    +0.007 C 
ENDBRANCH  22  23
ENDBRANCH  21  22
ENDBRANCH  19  21
ENDBRANCH   4  19
BRANCH   2  25
ATOM     25  C   UNL     1       6.249  -6.849  -0.697  0.00  0.00    +0.098 C 
ATOM     26  N   UNL     1       7.300  -6.419  -0.731  0.00  0.00    -0.191 NA
ENDBRANCH   2  25
BRANCH   1  27
ATOM     27  S   UNL     1       4.135  -4.812  -0.398  0.00  0.00    -0.100 S 
BRANCH  27  28
ATOM     28  C   UNL     1       2.425  -4.236  -0.258  0.00  0.00    +0.171 C 
BRANCH  28  30
ATOM     29  N   UNL     1       1.237  -2.079  -0.020  0.00  0.00    -0.285 N 
ATOM     30  C   UNL     1       2.410  -2.734  -0.137  0.00  0.00    +0.227 C 
ATOM     31  O   UNL     1       3.452  -2.114  -0.144  0.00  0.00    -0.275 OA
ATOM     32  H   UNL     1       0.298  -2.645   0.074  0.00  0.00    +0.155 HD
BRANCH  29  37
ATOM     33  C   UNL     1       1.143   3.593  -0.015  0.00  0.00    +0.044 C 
ATOM     34  C   UNL     1       1.168   2.086  -0.017  0.00  0.00    -0.050 A 
ATOM     35  C   UNL     1       2.111   1.412  -0.771  0.00  0.00    +0.005 A 
ATOM     36  C   UNL     1       2.137   0.031  -0.774  0.00  0.00    +0.023 A 
ATOM     37  C   UNL     1       1.214  -0.680  -0.019  0.00  0.00    +0.033 A 
ATOM     38  C   UNL     1       0.269  -0.001   0.738  0.00  0.00    +0.023 A 
ATOM     39  C   UNL     1       0.248   1.380   0.737  0.00  0.00    +0.005 A 
ENDBRANCH  29  37
ENDBRANCH  28  30
ENDBRANCH  27  28
ENDBRANCH   1  27
TORSDOF 12
