REMARK  Name = ZINC21239910
REMARK  10 active torsions:
REMARK  status: ('A' for Active; 'I' for Inactive)
REMARK    1  A    between atoms: C_1  and  C_2
REMARK    2  A    between atoms: C_2  and  C_3
REMARK    3  A    between atoms: C_2  and  C_4
REMARK    4  A    between atoms: C_4  and  O_5
REMARK    5  A    between atoms: O_5  and  C_6
REMARK    6  A    between atoms: C_9  and  C_12
REMARK    7  A    between atoms: C_17  and  C_27
REMARK    8  A    between atoms: C_30  and  N_33
REMARK    9  A    between atoms: N_33  and  C_34
REMARK   10  A    between atoms: N_33  and  C_35
REMARK                            x       y       z     vdW  Elec       q    Type
REMARK                         _______ _______ _______ _____ _____    ______ ____
ROOT
ATOM      1  C   UNL     1       0.532   0.866  -0.351  0.00  0.00    +0.032 C 
ATOM      2  C   UNL     1      -0.277   1.519   0.769  0.00  0.00    +0.059 C 
ATOM      3  C   UNL     1       0.280   1.101   2.120  0.00  0.00    +0.017 C 
ATOM      4  C   UNL     1       1.593   0.864   2.271  0.00  0.00    +0.036 C 
ATOM      5  C   UNL     1       2.280   0.467   3.556  0.00  0.00    +0.136 C 
ATOM      6  N   UNL     1       1.381   0.089   4.624  0.00  0.00    -0.331 N 
ATOM      7  C   UNL     1       0.499   1.012   5.185  0.00  0.00    +0.049 A 
ATOM      8  C   UNL     1       0.650   1.456   6.489  0.00  0.00    +0.025 A 
ATOM      9  C   UNL     1      -0.180   2.454   6.968  0.00  0.00    +0.002 A 
ATOM     10  C   UNL     1      -1.155   3.004   6.155  0.00  0.00    +0.002 A 
ATOM     11  C   UNL     1      -1.322   2.548   4.858  0.00  0.00    +0.025 A 
ATOM     12  C   UNL     1      -0.503   1.538   4.383  0.00  0.00    +0.052 A 
ATOM     13  N   UNL     1      -0.646   1.004   3.108  0.00  0.00    -0.316 N 
ATOM     14  C   UNL     1       2.469   0.976   1.165  0.00  0.00    +0.163 C 
ATOM     15  O   UNL     1       3.656   0.778   1.336  0.00  0.00    -0.292 OA
ATOM     16  C   UNL     1       1.986   1.331  -0.209  0.00  0.00    +0.088 C 
ATOM     17  H   UNL     1       1.385  -0.942   5.007  0.00  0.00    +0.147 HD
ATOM     18  H   UNL     1      -1.590   0.470   2.926  0.00  0.00    +0.152 HD
ENDROOT
BRANCH   1  22
ATOM     19  C   UNL     1      -1.010   2.072  -4.149  0.00  0.00    +0.121 A 
ATOM     20  C   UNL     1      -0.976   0.727  -3.809  0.00  0.00    +0.046 A 
ATOM     21  C   UNL     1      -0.477   0.340  -2.580  0.00  0.00    +0.007 A 
ATOM     22  C   UNL     1      -0.012   1.291  -1.690  0.00  0.00    -0.043 A 
ATOM     23  C   UNL     1      -0.051   2.632  -2.025  0.00  0.00    +0.007 A 
ATOM     24  C   UNL     1      -0.543   3.024  -3.255  0.00  0.00    +0.046 A 
BRANCH  19  25
ATOM     25  O   UNL     1      -1.500   2.455  -5.358  0.00  0.00    -0.492 OA
BRANCH  25  26
ATOM     26  C   UNL     1      -1.505   3.856  -5.641  0.00  0.00    +0.232 C 
BRANCH  26  28
ATOM     27  C   UNL     1      -3.559   3.671  -7.052  0.00  0.00    +0.010 C 
ATOM     28  C   UNL     1      -2.088   4.092  -7.035  0.00  0.00    +0.020 C 
ATOM     29  C   UNL     1      -1.979   5.577  -7.389  0.00  0.00    +0.010 C 
ENDBRANCH  26  28
ENDBRANCH  25  26
ENDBRANCH  19  25
ENDBRANCH   1  22
BRANCH   5  30
ATOM     30  C   UNL     1       3.120   1.627   4.026  0.00  0.00    -0.023 A 
ATOM     31  C   UNL     1       2.514   2.818   4.383  0.00  0.00    +0.007 A 
ATOM     32  C   UNL     1       3.281   3.881   4.819  0.00  0.00    +0.023 A 
ATOM     33  C   UNL     1       4.662   3.756   4.889  0.00  0.00    +0.029 A 
ATOM     34  C   UNL     1       5.268   2.560   4.525  0.00  0.00    +0.023 A 
ATOM     35  C   UNL     1       4.496   1.500   4.094  0.00  0.00    +0.007 A 
BRANCH  33  36
ATOM     36  N   UNL     1       5.441   4.830   5.325  0.00  0.00    -0.336 N 
ATOM     37  C   UNL     1       6.903   4.743   5.279  0.00  0.00    +0.129 C 
ATOM     38  C   UNL     1       4.796   6.045   5.830  0.00  0.00    +0.129 C 
ENDBRANCH  33  36
ENDBRANCH   5  30
TORSDOF 6
