REMARK  Name = ZINC36311730
REMARK  12 active torsions:
REMARK  status: ('A' for Active; 'I' for Inactive)
REMARK    1  A    between atoms: C_1  and  C_2
REMARK    2  A    between atoms: C_2  and  C_3
REMARK    3  A    between atoms: C_2  and  C_4
REMARK    4  A    between atoms: C_7  and  N_10
REMARK    5  A    between atoms: C_11  and  C_13
REMARK    6  A    between atoms: C_13  and  C_15
REMARK    7  A    between atoms: C_13  and  N_20
REMARK    8  A    between atoms: C_26  and  C_28
REMARK    9  A    between atoms: C_31  and  C_34
REMARK   10  A    between atoms: C_34  and  C_35
REMARK   11  A    between atoms: C_34  and  C_36
REMARK   12  A    between atoms: C_34  and  C_37
REMARK                            x       y       z     vdW  Elec       q    Type
REMARK                         _______ _______ _______ _____ _____    ______ ____
ROOT
ATOM      1  C   UNL     1      -7.677  -2.867  -0.885  0.00  0.00    +0.023 C 
ENDROOT
BRANCH   1   2
ATOM      2  N   UNL     1      -7.790  -3.911  -1.912  0.00  0.00    +0.390 N 
ATOM      3  C   UNL     1      -7.332  -3.378  -3.201  0.00  0.00    -0.058 C 
ATOM      4  C   UNL     1      -7.341  -4.498  -4.248  0.00  0.00    +0.089 C 
ATOM      5  N   UNL     1      -8.686  -5.095  -4.280  0.00  0.00    -0.301 N 
ATOM      6  C   UNL     1      -9.291  -5.509  -3.005  0.00  0.00    +0.089 C 
ATOM      7  C   UNL     1      -9.190  -4.342  -2.017  0.00  0.00    -0.058 C 
ATOM      8  C   UNL     1      -9.344  -5.258  -5.445  0.00  0.00    +0.246 C 
ATOM      9  O   UNL     1     -10.482  -5.684  -5.445  0.00  0.00    -0.270 OA
ATOM     10  H   UNL     1      -7.215  -4.699  -1.653  0.00  0.00    -0.081 HD
BRANCH   8  11
ATOM     11  C   UNL     1      -8.681  -4.918  -6.722  0.00  0.00    +0.037 A 
ATOM     12  C   UNL     1      -7.351  -5.279  -6.939  0.00  0.00    +0.013 A 
ATOM     13  C   UNL     1      -6.739  -4.959  -8.134  0.00  0.00    +0.005 A 
ATOM     14  C   UNL     1      -7.441  -4.281  -9.114  0.00  0.00    -0.042 A 
ATOM     15  C   UNL     1      -8.760  -3.920  -8.905  0.00  0.00    +0.005 A 
ATOM     16  C   UNL     1      -9.386  -4.239  -7.718  0.00  0.00    +0.013 A 
BRANCH  14  17
ATOM     17  C   UNL     1      -6.765  -3.935 -10.416  0.00  0.00    -0.013 C 
ATOM     18  C   UNL     1      -6.304  -5.218 -11.109  0.00  0.00    +0.015 C 
ATOM     19  C   UNL     1      -7.752  -3.193 -11.321  0.00  0.00    +0.015 C 
ATOM     20  C   UNL     1      -5.555  -3.041 -10.141  0.00  0.00    +0.015 C 
ENDBRANCH  14  17
ENDBRANCH   8  11
ENDBRANCH   1   2
BRANCH   1  21
ATOM     21  C   UNL     1      -6.237  -2.351  -0.838  0.00  0.00    -0.016 C 
ATOM     22  C   UNL     1      -5.274  -3.503  -0.484  0.00  0.00    +0.002 C 
ATOM     23  C   UNL     1      -4.207  -2.841   0.422  0.00  0.00    +0.000 C 
ATOM     24  C   UNL     1      -5.043  -1.847   1.265  0.00  0.00    +0.000 C 
ATOM     25  C   UNL     1      -6.090  -1.298   0.274  0.00  0.00    +0.002 C 
ENDBRANCH   1  21
BRANCH   1  27
ATOM     26  N   UNL     1      -9.154  -0.993  -0.233  0.00  0.00    -0.287 N 
ATOM     27  C   UNL     1      -8.607  -1.730  -1.220  0.00  0.00    +0.204 C 
ATOM     28  O   UNL     1      -8.864  -1.478  -2.378  0.00  0.00    -0.277 OA
ATOM     29  H   UNL     1      -8.901  -1.154   0.690  0.00  0.00    +0.155 HD
BRANCH  26  33
ATOM     30  C   UNL     1     -11.930   1.977  -1.142  0.00  0.00    -0.045 A 
ATOM     31  C   UNL     1     -12.122   1.168  -0.036  0.00  0.00    +0.006 A 
ATOM     32  C   UNL     1     -11.204   0.183   0.268  0.00  0.00    +0.023 A 
ATOM     33  C   UNL     1     -10.087   0.004  -0.538  0.00  0.00    +0.033 A 
ATOM     34  C   UNL     1      -9.897   0.818  -1.647  0.00  0.00    +0.023 A 
ATOM     35  C   UNL     1     -10.822   1.798  -1.949  0.00  0.00    +0.006 A 
BRANCH  30  37
ATOM     36  C   UNL     1     -14.306   2.413  -1.705  0.00  0.00    +0.012 C 
ATOM     37  C   UNL     1     -12.935   3.051  -1.470  0.00  0.00    +0.013 C 
ATOM     38  C   UNL     1     -13.024   4.039  -0.306  0.00  0.00    +0.012 C 
ENDBRANCH  30  37
ENDBRANCH  26  33
ENDBRANCH   1  27
TORSDOF 7
