REMARK  Name = ZINC33043977
REMARK  3 active torsions:
REMARK  status: ('A' for Active; 'I' for Inactive)
REMARK    1  A    between atoms: N_8  and  N_9
REMARK    2  A    between atoms: C_10  and  C_12
REMARK    3  A    between atoms: C_14  and  N_20
REMARK                            x       y       z     vdW  Elec       q    Type
REMARK                         _______ _______ _______ _____ _____    ______ ____
ROOT
ATOM      1  N   UNL     1       1.177   2.012   0.001  0.00  0.00    -0.202 N 
ATOM      2  C   UNL     1       1.140   3.355   0.110  0.00  0.00    +0.283 C 
ATOM      3  O   UNL     1       0.072   3.927   0.216  0.00  0.00    -0.267 OA
ATOM      4  H   UNL     1       2.142   1.494  -0.095  0.00  0.00    +0.178 HD
ENDROOT
BRANCH   1  11
ATOM      5  C   UNL     1       0.458  -3.027   3.446  0.00  0.00    +0.000 C 
ATOM      6  C   UNL     1      -0.790  -2.180   3.702  0.00  0.00    +0.000 C 
ATOM      7  C   UNL     1      -0.939  -1.137   2.592  0.00  0.00    +0.004 C 
ATOM      8  C   UNL     1      -1.063  -1.849   1.244  0.00  0.00    -0.002 C 
ATOM      9  C   UNL     1      -1.245  -0.819   0.127  0.00  0.00    +0.056 C 
ATOM     10  C   UNL     1       0.023  -0.004   0.006  0.00  0.00    +0.037 C 
ATOM     11  N   UNL     1      -0.015   1.276   0.009  0.00  0.00    -0.189 NA
ATOM     12  C   UNL     1       1.337  -0.742  -0.124  0.00  0.00    +0.053 C 
ATOM     13  C   UNL     1       1.429  -1.764   1.019  0.00  0.00    +0.010 C 
ATOM     14  C   UNL     1       0.199  -2.675   0.988  0.00  0.00    -0.007 C 
ATOM     15  C   UNL     1       0.334  -3.730   2.093  0.00  0.00    +0.004 C 
ENDBRANCH   1  11
BRANCH   2  16
ATOM     16  C   UNL     1       2.399   4.133   0.102  0.00  0.00    +0.149 A 
ATOM     17  C   UNL     1       2.353   5.520   0.209  0.00  0.00    +0.094 A 
ATOM     18  C   UNL     1       3.549   6.238   0.205  0.00  0.00    +0.067 A 
ATOM     19  C   UNL     1       4.744   5.532   0.082  0.00  0.00    +0.100 A 
ATOM     20  C   UNL     1       4.707   4.151  -0.026  0.00  0.00    +0.150 A 
ATOM     21  N   UNL     1       3.562   3.501  -0.014  0.00  0.00    -0.228 NA
ATOM     22 CL   UNL     1       6.192   3.265  -0.181  0.00  0.00    -0.060 Cl
ATOM     23 CL   UNL     1       6.263   6.373   0.063  0.00  0.00    -0.078 Cl
ATOM     24 CL   UNL     1       0.831   6.343   0.353  0.00  0.00    -0.079 Cl
BRANCH  18  25
ATOM     25  N   UNL     1       3.548   7.627   0.316  0.00  0.00    -0.356 N 
ATOM     26  H   UNL     1       4.500   8.180   0.311  0.00  0.00    +0.142 HD
ATOM     27  H   UNL     1       2.597   8.171   0.408  0.00  0.00    +0.142 HD
ENDBRANCH  18  25
ENDBRANCH   2  16
TORSDOF 3
