REMARK  Name = ZINC09280971
REMARK  7 active torsions:
REMARK  status: ('A' for Active; 'I' for Inactive)
REMARK    1  A    between atoms: C_1  and  C_2
REMARK    2  A    between atoms: C_8  and  C_36
REMARK    3  A    between atoms: C_9  and  C_11
REMARK    4  A    between atoms: N_13  and  C_14
REMARK    5  A    between atoms: C_15  and  C_25
REMARK    6  A    between atoms: C_20  and  C_24
REMARK    7  A    between atoms: N_27  and  C_28
REMARK                            x       y       z     vdW  Elec       q    Type
REMARK                         _______ _______ _______ _____ _____    ______ ____
ROOT
ATOM      1  C   UNL     1       3.068   1.887   4.303  0.00  0.00    +0.085 A 
ATOM      2  C   UNL     1       3.713   2.147   5.504  0.00  0.00    +0.069 A 
ATOM      3  C   UNL     1       5.149   1.931   5.555  0.00  0.00    -0.023 A 
ATOM      4  C   UNL     1       5.706   1.494   4.404  0.00  0.00    -0.004 A 
ATOM      5  S   UNL     1       4.355   1.361   3.269  0.00  0.00    -0.077 S 
ATOM      6  C   UNL     1       7.152   1.187   4.160  0.00  0.00    +0.046 C 
ATOM      7  C   UNL     1       7.861   1.084   5.519  0.00  0.00    -0.009 C 
ATOM      8  C   UNL     1       7.465   2.291   6.375  0.00  0.00    +0.008 C 
ATOM      9  C   UNL     1       5.999   2.171   6.797  0.00  0.00    +0.037 C 
ATOM     10  C   UNL     1       9.376   1.080   5.308  0.00  0.00    +0.008 C 
ENDROOT
BRANCH   1  13
ATOM     11  C   UNL     1       1.273   1.712   2.770  0.00  0.00    +0.284 C 
ATOM     12  O   UNL     1       2.052   1.330   1.917  0.00  0.00    -0.266 OA
ATOM     13  N   UNL     1       1.721   2.013   4.005  0.00  0.00    -0.273 N 
ATOM     14  H   UNL     1       1.100   2.318   4.685  0.00  0.00    +0.156 HD
BRANCH  11  23
ATOM     15  C   UNL     1      -5.675   2.034   0.073  0.00  0.00    +0.044 C 
ATOM     16  C   UNL     1      -4.487   2.115   0.996  0.00  0.00    -0.050 A 
ATOM     17  C   UNL     1      -4.661   2.536   2.308  0.00  0.00    +0.007 A 
ATOM     18  C   UNL     1      -3.590   2.611   3.172  0.00  0.00    +0.047 A 
ATOM     19  C   UNL     1      -2.317   2.273   2.727  0.00  0.00    +0.136 A 
ATOM     20  C   UNL     1      -2.146   1.850   1.395  0.00  0.00    +0.024 A 
ATOM     21  C   UNL     1      -3.246   1.774   0.537  0.00  0.00    +0.015 A 
ATOM     22  C   UNL     1      -0.718   1.572   1.248  0.00  0.00    +0.008 A 
ATOM     23  C   UNL     1      -0.155   1.846   2.454  0.00  0.00    +0.194 A 
ATOM     24  O   UNL     1      -1.107   2.258   3.317  0.00  0.00    -0.450 OA
ATOM     25  C   UNL     1      -0.013   1.086   0.008  0.00  0.00    +0.048 C 
ENDBRANCH  11  23
ENDBRANCH   1  13
BRANCH   2  26
ATOM     26  C   UNL     1       2.974   2.619   6.678  0.00  0.00    +0.247 C 
ATOM     27  O   UNL     1       2.506   1.818   7.466  0.00  0.00    -0.270 OA
ATOM     28  N   UNL     1       2.811   3.941   6.885  0.00  0.00    -0.307 N 
ATOM     29  H   UNL     1       3.183   4.580   6.257  0.00  0.00    +0.149 HD
BRANCH  28  30
ATOM     30  C   UNL     1       2.072   4.414   8.058  0.00  0.00    +0.096 C 
ATOM     31  C   UNL     1       0.568   4.461   7.740  0.00  0.00    +0.046 C 
ATOM     32  C   UNL     1      -0.180   5.250   8.841  0.00  0.00    +0.168 C 
ATOM     33  S   UNL     1       1.109   6.413   9.450  0.00  0.00    -0.029 S 
ATOM     34  O   UNL     1       1.380   6.129  10.815  0.00  0.00    -0.174 OA
ATOM     35  O   UNL     1       0.756   7.736   9.067  0.00  0.00    -0.174 OA
ATOM     36  C   UNL     1       2.534   5.853   8.426  0.00  0.00    +0.188 C 
ENDBRANCH  28  30
ENDBRANCH   2  26
TORSDOF 4
