REMARK  Name = ZINC12533003
REMARK  7 active torsions:
REMARK  status: ('A' for Active; 'I' for Inactive)
REMARK    1  A    between atoms: C_1  and  C_2
REMARK    2  A    between atoms: C_11  and  N_31
REMARK    3  A    between atoms: C_13  and  C_15
REMARK    4  A    between atoms: C_15  and  S_16
REMARK    5  A    between atoms: S_16  and  C_17
REMARK    6  A    between atoms: C_20  and  C_25
REMARK    7  A    between atoms: N_21  and  C_22
REMARK                            x       y       z     vdW  Elec       q    Type
REMARK                         _______ _______ _______ _____ _____    ______ ____
ROOT
ATOM      1  C   UNL     1      -0.351  -1.638  -2.256  0.00  0.00    +0.008 C 
ATOM      2  C   UNL     1       0.979  -0.910  -2.052  0.00  0.00    -0.009 C 
ATOM      3  C   UNL     1       1.618  -1.361  -0.735  0.00  0.00    +0.008 C 
ATOM      4  C   UNL     1       3.050  -0.834  -0.646  0.00  0.00    +0.037 C 
ATOM      5  C   UNL     1       3.039   0.674  -0.886  0.00  0.00    -0.025 A 
ATOM      6  C   UNL     1       1.982   1.266  -1.488  0.00  0.00    -0.004 A 
ATOM      7  S   UNL     1       2.390   2.992  -1.559  0.00  0.00    -0.073 S 
ATOM      8  C   UNL     1       3.974   2.921  -0.786  0.00  0.00    +0.114 A 
ATOM      9  C   UNL     1       4.136   1.542  -0.494  0.00  0.00    +0.051 A 
ATOM     10  C   UNL     1       5.349   1.160   0.148  0.00  0.00    +0.128 A 
ATOM     11  N   UNL     1       6.205   2.147   0.407  0.00  0.00    -0.216 NA
ATOM     12  C   UNL     1       5.985   3.411   0.104  0.00  0.00    +0.143 A 
ATOM     13  N   UNL     1       4.878   3.834  -0.494  0.00  0.00    -0.224 NA
ATOM     14  C   UNL     1       0.734   0.604  -1.986  0.00  0.00    +0.046 C 
ENDROOT
BRANCH  10  15
ATOM     15  N   UNL     1       5.620  -0.154   0.483  0.00  0.00    -0.343 N 
ATOM     16  H   UNL     1       5.106  -0.873   0.083  0.00  0.00    +0.144 HD
ATOM     17  H   UNL     1       6.324  -0.357   1.119  0.00  0.00    +0.144 HD
ENDBRANCH  10  15
BRANCH  12  18
ATOM     18  C   UNL     1       7.043   4.425   0.454  0.00  0.00    +0.153 C 
BRANCH  18  19
ATOM     19  S   UNL     1       6.734   5.069   2.118  0.00  0.00    -0.078 S 
BRANCH  19  20
ATOM     20  C   UNL     1       8.078   6.199   2.263  0.00  0.00    +0.193 A 
ATOM     21  N   UNL     1       8.999   6.437   1.354  0.00  0.00    -0.122 NA
ATOM     22  N   UNL     1       9.829   7.317   1.787  0.00  0.00    -0.128 NA
ATOM     23  C   UNL     1       9.489   7.695   2.998  0.00  0.00    +0.165 A 
ATOM     24  N   UNL     1       8.355   6.994   3.337  0.00  0.00    -0.299 N 
BRANCH  23  25
ATOM     25  C   UNL     1      10.190   8.690   3.836  0.00  0.00    +0.022 A 
ATOM     26  C   UNL     1       9.962   8.757   5.216  0.00  0.00    +0.031 A 
ATOM     27  C   UNL     1      10.641   9.698   5.961  0.00  0.00    +0.111 A 
ATOM     28  N   UNL     1      11.488  10.533   5.388  0.00  0.00    -0.263 NA
ATOM     29  C   UNL     1      11.728  10.508   4.091  0.00  0.00    +0.111 A 
ATOM     30  C   UNL     1      11.097   9.596   3.272  0.00  0.00    +0.031 A 
ENDBRANCH  23  25
BRANCH  24  31
ATOM     31  C   UNL     1       7.602   7.081   4.590  0.00  0.00    +0.091 C 
ATOM     32  C   UNL     1       6.078   7.184   4.494  0.00  0.00    +0.027 C 
ATOM     33  C   UNL     1       6.904   8.406   4.904  0.00  0.00    +0.027 C 
ENDBRANCH  24  31
ENDBRANCH  19  20
ENDBRANCH  18  19
ENDBRANCH  12  18
TORSDOF 6
