REMARK  Name = ZINC00714781
REMARK  8 active torsions:
REMARK  status: ('A' for Active; 'I' for Inactive)
REMARK    1  A    between atoms: C_1  and  C_2
REMARK    2  A    between atoms: C_2  and  O_3
REMARK    3  A    between atoms: O_3  and  C_4
REMARK    4  A    between atoms: C_4  and  C_6
REMARK    5  A    between atoms: C_10  and  N_11
REMARK    6  A    between atoms: C_14  and  C_21
REMARK    7  A    between atoms: C_16  and  C_19
REMARK    8  A    between atoms: C_17  and  N_18
REMARK                            x       y       z     vdW  Elec       q    Type
REMARK                         _______ _______ _______ _____ _____    ______ ____
ROOT
ATOM      1  N   UNL     1      -4.130   1.852   0.091  0.00  0.00    -0.254 N 
ATOM      2  C   UNL     1      -2.830   1.423   0.178  0.00  0.00    +0.025 C 
ATOM      3  C   UNL     1      -2.113   1.626   1.303  0.00  0.00    +0.025 C 
ATOM      4  C   UNL     1      -2.724   2.313   2.498  0.00  0.00    +0.099 C 
ATOM      5  C   UNL     1      -3.959   3.074   2.115  0.00  0.00    +0.077 C 
ATOM      6  C   UNL     1      -4.607   2.818   0.950  0.00  0.00    +0.107 C 
ATOM      7  C   UNL     1      -0.772   1.207   1.395  0.00  0.00    +0.162 C 
ATOM      8  O   UNL     1      -0.155   1.395   2.425  0.00  0.00    -0.292 OA
ATOM      9  C   UNL     1      -0.088   0.530   0.239  0.00  0.00    +0.080 C 
ATOM     10  C   UNL     1      -0.723   1.011  -1.069  0.00  0.00    +0.014 C 
ATOM     11  C   UNL     1      -2.225   0.724  -1.014  0.00  0.00    +0.052 C 
ENDROOT
BRANCH   1  16
ATOM     12  C   UNL     1      -5.249   1.785  -2.141  0.00  0.00    +0.091 A 
ATOM     13  C   UNL     1      -6.171   1.017  -2.966  0.00  0.00    -0.021 A 
ATOM     14  C   UNL     1      -6.677  -0.088  -2.377  0.00  0.00    -0.004 A 
ATOM     15  S   UNL     1      -5.936  -0.126  -0.767  0.00  0.00    -0.077 S 
ATOM     16  C   UNL     1      -4.971   1.309  -0.869  0.00  0.00    +0.092 A 
ATOM     17  C   UNL     1      -7.660  -1.061  -2.949  0.00  0.00    +0.043 C 
ATOM     18  C   UNL     1      -7.205  -1.474  -4.355  0.00  0.00    +0.005 C 
ATOM     19  C   UNL     1      -7.807  -0.499  -5.362  0.00  0.00    +0.001 C 
ATOM     20  C   UNL     1      -7.920   0.893  -4.744  0.00  0.00    +0.005 C 
ATOM     21  C   UNL     1      -6.538   1.430  -4.386  0.00  0.00    +0.037 C 
BRANCH  12  22
ATOM     22  C   UNL     1      -4.631   3.017  -2.640  0.00  0.00    +0.342 C 
ATOM     23  O   UNL     1      -3.601   2.962  -3.284  0.00  0.00    -0.245 OA
BRANCH  22  24
ATOM     24  O   UNL     1      -5.206   4.210  -2.386  0.00  0.00    -0.461 OA
BRANCH  24  26
ATOM     25  C   UNL     1      -5.332   6.638  -2.525  0.00  0.00    +0.048 C 
ATOM     26  C   UNL     1      -4.539   5.388  -2.911  0.00  0.00    +0.229 C 
ENDBRANCH  24  26
ENDBRANCH  22  24
ENDBRANCH  12  22
ENDBRANCH   1  16
BRANCH   4  27
ATOM     27  C   UNL     1      -3.085   1.277   3.532  0.00  0.00    -0.017 A 
ATOM     28  C   UNL     1      -2.516   1.318   4.796  0.00  0.00    +0.007 A 
ATOM     29  C   UNL     1      -2.880   0.348   5.716  0.00  0.00    +0.020 A 
ATOM     30  C   UNL     1      -3.785  -0.628   5.342  0.00  0.00    +0.111 A 
ATOM     31  N   UNL     1      -4.303  -0.639   4.130  0.00  0.00    -0.263 NA
ATOM     32  C   UNL     1      -3.982   0.271   3.230  0.00  0.00    +0.115 A 
ENDBRANCH   4  27
BRANCH   6  33
ATOM     33  N   UNL     1      -5.741   3.525   0.626  0.00  0.00    -0.345 N 
ATOM     34  H   UNL     1      -6.121   4.150   1.263  0.00  0.00    +0.144 HD
ATOM     35  H   UNL     1      -6.160   3.398  -0.239  0.00  0.00    +0.144 HD
ENDBRANCH   6  33
BRANCH   5  36
ATOM     36  C   UNL     1      -4.463   4.086   2.993  0.00  0.00    +0.099 C 
ATOM     37  N   UNL     1      -4.862   4.890   3.690  0.00  0.00    -0.191 NA
ENDBRANCH   5  36
TORSDOF 7
