REMARK  Name = ZINC39673137
REMARK  9 active torsions:
REMARK  status: ('A' for Active; 'I' for Inactive)
REMARK    1  A    between atoms: C_1  and  C_2
REMARK    2  A    between atoms: C_5  and  C_9
REMARK    3  A    between atoms: C_7  and  C_8
REMARK    4  A    between atoms: C_9  and  N_10
REMARK    5  A    between atoms: C_11  and  C_13
REMARK    6  A    between atoms: C_24  and  C_26
REMARK    7  A    between atoms: C_29  and  O_36
REMARK    8  A    between atoms: C_30  and  C_32
REMARK    9  A    between atoms: O_36  and  C_37
REMARK                            x       y       z     vdW  Elec       q    Type
REMARK                         _______ _______ _______ _____ _____    ______ ____
ROOT
ATOM      1  C   UNL     1       3.820  -6.511  -0.072  0.00  0.00    +0.100 C 
ATOM      2  C   UNL     1       4.254  -5.915   1.286  0.00  0.00    +0.121 C 
ATOM      3  N   UNL     1       4.081  -7.023   2.254  0.00  0.00    -0.296 N 
ATOM      4  C   UNL     1       4.535  -8.229   1.520  0.00  0.00    +0.115 C 
ATOM      5  C   UNL     1       4.010  -8.030   0.085  0.00  0.00    -0.004 C 
ATOM      6  C   UNL     1       5.030  -8.542  -0.927  0.00  0.00    -0.010 C 
ATOM      7  C   UNL     1       5.157 -10.062  -0.792  0.00  0.00    -0.082 C 
ATOM      8  N   UNL     1       3.850 -10.688  -1.025  0.00  0.00    +0.379 N 
ATOM      9  C   UNL     1       2.899 -10.261   0.009  0.00  0.00    -0.082 C 
ATOM     10  C   UNL     1       2.676  -8.749  -0.093  0.00  0.00    -0.010 C 
ATOM     11  C   UNL     1       3.615  -6.952   3.517  0.00  0.00    +0.247 C 
ATOM     12  O   UNL     1       3.161  -5.906   3.939  0.00  0.00    -0.270 OA
ATOM     13  H   UNL     1       3.504 -10.413  -1.932  0.00  0.00    -0.086 HD
ATOM     14  H   UNL     1       3.949 -11.691  -0.995  0.00  0.00    -0.086 HD
ENDROOT
BRANCH  11  15
ATOM     15  C   UNL     1       3.656  -8.143   4.387  0.00  0.00    +0.038 A 
ATOM     16  C   UNL     1       4.539  -9.188   4.103  0.00  0.00    +0.016 A 
ATOM     17  C   UNL     1       4.575 -10.297   4.918  0.00  0.00    +0.047 A 
ATOM     18  C   UNL     1       3.735 -10.379   6.022  0.00  0.00    +0.132 A 
ATOM     19  C   UNL     1       2.855  -9.341   6.308  0.00  0.00    +0.097 A 
ATOM     20  C   UNL     1       2.817  -8.226   5.501  0.00  0.00    +0.029 A 
BRANCH  19  21
ATOM     21  C   UNL     1       1.946  -9.434   7.506  0.00  0.00    +0.421 C 
ATOM     22  F   UNL     1       1.160  -8.280   7.586  0.00  0.00    -0.166 F 
ATOM     23  F   UNL     1       1.118 -10.554   7.377  0.00  0.00    -0.166 F 
ATOM     24  F   UNL     1       2.716  -9.556   8.668  0.00  0.00    -0.166 F 
ENDBRANCH  19  21
BRANCH  18  25
ATOM     25  O   UNL     1       3.773 -11.474   6.822  0.00  0.00    -0.495 OA
ATOM     26  C   UNL     1       4.699 -12.503   6.470  0.00  0.00    +0.277 C 
ENDBRANCH  18  25
ENDBRANCH  11  15
BRANCH   1  28
ATOM     27  N   UNL     1       1.918  -6.173  -1.617  0.00  0.00    -0.311 N 
ATOM     28  C   UNL     1       2.374  -6.189  -0.349  0.00  0.00    +0.218 C 
ATOM     29  O   UNL     1       1.621  -5.943   0.570  0.00  0.00    -0.275 OA
ATOM     30  H   UNL     1       2.520  -6.369  -2.351  0.00  0.00    +0.149 HD
BRANCH  27  31
ATOM     31  C   UNL     1       0.512  -5.859  -1.886  0.00  0.00    +0.139 C 
BRANCH  31  36
ATOM     32  C   UNL     1      -0.451  -6.046  -7.580  0.00  0.00    +0.044 C 
ATOM     33  C   UNL     1      -0.200  -5.997  -6.095  0.00  0.00    -0.048 A 
ATOM     34  C   UNL     1      -0.359  -7.137  -5.329  0.00  0.00    +0.004 A 
ATOM     35  C   UNL     1      -0.129  -7.093  -3.967  0.00  0.00    +0.005 A 
ATOM     36  C   UNL     1       0.262  -5.908  -3.371  0.00  0.00    -0.030 A 
ATOM     37  C   UNL     1       0.422  -4.769  -4.137  0.00  0.00    +0.008 A 
ATOM     38  C   UNL     1       0.196  -4.814  -5.500  0.00  0.00    -0.047 A 
ATOM     39  C   UNL     1       0.376  -3.573  -6.335  0.00  0.00    +0.044 C 
ENDBRANCH  31  36
ENDBRANCH  27  31
ENDBRANCH   1  28
TORSDOF 6
