REMARK  Name = ZINC38550646
REMARK  7 active torsions:
REMARK  status: ('A' for Active; 'I' for Inactive)
REMARK    1  A    between atoms: C_1  and  S_2
REMARK    2  A    between atoms: S_2  and  C_3
REMARK    3  A    between atoms: C_6  and  C_9
REMARK    4  A    between atoms: C_9  and  C_11
REMARK    5  A    between atoms: C_9  and  N_28
REMARK    6  A    between atoms: C_15  and  N_16
REMARK    7  A    between atoms: C_17  and  C_19
REMARK                            x       y       z     vdW  Elec       q    Type
REMARK                         _______ _______ _______ _____ _____    ______ ____
ROOT
ATOM      1  C   UNL     1      -5.820  -1.529   0.060  0.00  0.00    +0.135 C 
ENDROOT
BRANCH   1   2
ATOM      2  C   UNL     1      -6.297  -1.826  -1.339  0.00  0.00    +0.009 A 
ATOM      3  C   UNL     1      -7.014  -0.865  -2.052  0.00  0.00    -0.030 A 
ATOM      4  C   UNL     1      -7.410  -1.207  -3.307  0.00  0.00    -0.005 A 
ATOM      5  S   UNL     1      -6.795  -2.857  -3.513  0.00  0.00    -0.078 S 
ATOM      6  C   UNL     1      -6.025  -3.030  -1.910  0.00  0.00    +0.078 A 
ATOM      7  C   UNL     1      -8.184  -0.374  -4.277  0.00  0.00    +0.043 C 
ATOM      8  C   UNL     1      -8.795   0.812  -3.515  0.00  0.00    +0.005 C 
ATOM      9  C   UNL     1      -7.708   1.446  -2.642  0.00  0.00    +0.005 C 
ATOM     10  C   UNL     1      -7.354   0.511  -1.486  0.00  0.00    +0.036 C 
BRANCH   6  11
ATOM     11  N   UNL     1      -5.327  -4.117  -1.382  0.00  0.00    -0.273 N 
ATOM     12  C   UNL     1      -5.242  -5.267  -2.080  0.00  0.00    +0.284 C 
ATOM     13  O   UNL     1      -5.692  -5.328  -3.209  0.00  0.00    -0.266 OA
ATOM     14  H   UNL     1      -4.904  -4.046  -0.512  0.00  0.00    +0.156 HD
BRANCH  12  15
ATOM     15  C   UNL     1      -4.607  -6.444  -1.480  0.00  0.00    +0.189 A 
ATOM     16  C   UNL     1      -4.365  -7.633  -2.107  0.00  0.00    +0.054 A 
ATOM     17  C   UNL     1      -3.745  -8.468  -1.163  0.00  0.00    +0.042 A 
ATOM     18  C   UNL     1      -3.638  -7.761  -0.017  0.00  0.00    +0.196 A 
ATOM     19  O   UNL     1      -4.153  -6.541  -0.213  0.00  0.00    -0.458 OA
ENDBRANCH  12  15
ENDBRANCH   6  11
ENDBRANCH   1   2
BRANCH   1  20
ATOM     20  N   UNL     1      -6.012  -2.712   0.903  0.00  0.00    -0.320 N 
ATOM     21  C   UNL     1      -7.267  -2.992   1.432  0.00  0.00    +0.097 A 
ATOM     22  C   UNL     1      -8.358  -2.209   1.069  0.00  0.00    +0.041 A 
ATOM     23  C   UNL     1      -9.601  -2.499   1.603  0.00  0.00    +0.005 A 
ATOM     24  C   UNL     1      -9.711  -3.566   2.485  0.00  0.00    +0.018 A 
ATOM     25  C   UNL     1      -8.586  -4.301   2.801  0.00  0.00    +0.084 A 
ATOM     26  N   UNL     1      -7.413  -4.005   2.272  0.00  0.00    -0.350 N 
ATOM     27  H   UNL     1      -5.264  -3.300   1.091  0.00  0.00    +0.148 HD
ATOM     28  H   UNL     1      -6.639  -4.540   2.508  0.00  0.00    +0.166 HD
ENDBRANCH   1  20
BRANCH   1  32
ATOM     29  C   UNL     1      -1.671  -0.508  -0.037  0.00  0.00    +0.008 A 
ATOM     30  C   UNL     1      -2.635   0.492  -0.070  0.00  0.00    +0.015 A 
ATOM     31  C   UNL     1      -3.975   0.158  -0.039  0.00  0.00    +0.007 A 
ATOM     32  C   UNL     1      -4.357  -1.169   0.026  0.00  0.00    -0.023 A 
ATOM     33  C   UNL     1      -3.400  -2.167   0.059  0.00  0.00    +0.007 A 
ATOM     34  C   UNL     1      -2.059  -1.841   0.022  0.00  0.00    +0.015 A 
BRANCH  29  36
ATOM     35  C   UNL     1       0.044   1.726  -0.150  0.00  0.00    +0.090 C 
ATOM     36  S   UNL     1       0.040  -0.087  -0.077  0.00  0.00    -0.129 S 
ENDBRANCH  29  36
ENDBRANCH   1  32
TORSDOF 6
