REMARK  Name = ZINC13071551
REMARK  6 active torsions:
REMARK  status: ('A' for Active; 'I' for Inactive)
REMARK    1  A    between atoms: C_1  and  C_2
REMARK    2  A    between atoms: C_7  and  N_8
REMARK    3  A    between atoms: C_9  and  C_24
REMARK    4  A    between atoms: N_11  and  C_14
REMARK    5  A    between atoms: C_14  and  N_54
REMARK    6  A    between atoms: C_19  and  C_21
REMARK                            x       y       z     vdW  Elec       q    Type
REMARK                         _______ _______ _______ _____ _____    ______ ____
ROOT
ATOM      1  N   UNL     1       4.609   0.460   3.156  0.00  0.00    -0.271 N 
ATOM      2  C   UNL     1       4.948  -0.575   2.305  0.00  0.00    +0.167 A 
ATOM      3  N   UNL     1       3.894  -0.905   1.613  0.00  0.00    -0.152 NA
ATOM      4  N   UNL     1       2.839  -0.068   2.004  0.00  0.00    -0.257 N 
ATOM      5  C   UNL     1       3.310   0.760   2.959  0.00  0.00    +0.181 A 
ATOM      6  S   UNL     1       2.417   1.973   3.774  0.00  0.00    -0.011 S 
ENDROOT
BRANCH   1  13
ATOM      7  C   UNL     1       6.084   2.727   2.269  0.00  0.00    +0.046 C 
ATOM      8  C   UNL     1       6.206   2.198   3.675  0.00  0.00    -0.026 A 
ATOM      9  C   UNL     1       7.051   2.816   4.575  0.00  0.00    +0.005 A 
ATOM     10  C   UNL     1       7.163   2.332   5.865  0.00  0.00    +0.000 A 
ATOM     11  C   UNL     1       6.429   1.228   6.259  0.00  0.00    +0.002 A 
ATOM     12  C   UNL     1       5.578   0.609   5.365  0.00  0.00    +0.026 A 
ATOM     13  C   UNL     1       5.467   1.089   4.067  0.00  0.00    +0.053 A 
ENDBRANCH   1  13
BRANCH   2  14
ATOM     14  C   UNL     1       6.282  -1.208   2.203  0.00  0.00    +0.020 A 
ATOM     15  C   UNL     1       7.399  -0.581   2.756  0.00  0.00    +0.013 A 
ATOM     16  C   UNL     1       8.639  -1.178   2.662  0.00  0.00    +0.021 A 
ATOM     17  C   UNL     1       8.778  -2.392   2.011  0.00  0.00    +0.041 A 
ATOM     18  C   UNL     1       7.673  -3.017   1.455  0.00  0.00    +0.021 A 
ATOM     19  C   UNL     1       6.428  -2.431   1.548  0.00  0.00    +0.013 A 
ATOM     20 CL   UNL     1      10.342  -3.134   1.889  0.00  0.00    -0.084 Cl
ENDBRANCH   2  14
BRANCH   4  21
ATOM     21  C   UNL     1       1.473  -0.092   1.475  0.00  0.00    +0.073 C 
BRANCH  21  27
ATOM     22  C   UNL     1       2.200   0.341  -0.793  0.00  0.00    -0.075 C 
ATOM     23  C   UNL     1       2.191   1.382  -1.915  0.00  0.00    -0.019 C 
ATOM     24  C   UNL     1       0.750   1.612  -2.379  0.00  0.00    -0.003 C 
ATOM     25  C   UNL     1      -0.097   2.060  -1.185  0.00  0.00    -0.006 C 
ATOM     26  C   UNL     1      -0.021   1.000  -0.085  0.00  0.00    +0.022 C 
ATOM     27  N   UNL     1       1.387   0.843   0.335  0.00  0.00    +0.400 N 
ATOM     28  H   UNL     1       1.751   1.758   0.626  0.00  0.00    -0.078 HD
BRANCH  26  29
ATOM     29  C   UNL     1      -0.839   1.446   1.100  0.00  0.00    +0.197 C 
ATOM     30  O   UNL     1      -0.325   2.111   1.975  0.00  0.00    -0.278 OA
ATOM     31  N   UNL     1      -2.140   1.108   1.187  0.00  0.00    -0.331 N 
ATOM     32  H   UNL     1      -2.551   0.577   0.487  0.00  0.00    +0.145 HD
ATOM     33  H   UNL     1      -2.666   1.395   1.950  0.00  0.00    +0.145 HD
ENDBRANCH  26  29
ENDBRANCH  21  27
ENDBRANCH   4  21
TORSDOF 5
