REMARK  Name = ZINC37306742
REMARK  5 active torsions:
REMARK  status: ('A' for Active; 'I' for Inactive)
REMARK    1  A    between atoms: C_1  and  C_2
REMARK    2  A    between atoms: N_7  and  C_9
REMARK    3  A    between atoms: C_12  and  C_19
REMARK    4  A    between atoms: C_13  and  C_15
REMARK    5  A    between atoms: N_20  and  O_21
REMARK                            x       y       z     vdW  Elec       q    Type
REMARK                         _______ _______ _______ _____ _____    ______ ____
ROOT
ATOM      1  C   UNL     1       0.432  -2.788   2.195  0.00  0.00    +0.030 A 
ATOM      2  C   UNL     1      -0.037  -2.216   3.374  0.00  0.00    +0.024 A 
ATOM      3  C   UNL     1      -0.469  -3.019   4.406  0.00  0.00    +0.014 A 
ATOM      4  C   UNL     1      -0.436  -4.408   4.269  0.00  0.00    +0.029 A 
ATOM      5  C   UNL     1       0.034  -4.979   3.086  0.00  0.00    +0.067 A 
ATOM      6  C   UNL     1       0.461  -4.171   2.054  0.00  0.00    +0.036 A 
ENDROOT
BRANCH   1  12
ATOM      7  C   UNL     1       3.429  -2.393  -1.606  0.00  0.00    +0.009 C 
ATOM      8  C   UNL     1       2.839  -1.894  -0.285  0.00  0.00    +0.003 C 
ATOM      9  C   UNL     1       2.656  -0.376  -0.349  0.00  0.00    +0.006 C 
ATOM     10  C   UNL     1       2.097   0.129   0.984  0.00  0.00    +0.019 C 
ATOM     11  C   UNL     1       0.729  -0.513   1.234  0.00  0.00    +0.105 C 
ATOM     12  N   UNL     1       0.869  -1.973   1.153  0.00  0.00    -0.330 N 
ATOM     13  C   UNL     1       1.480  -2.559  -0.049  0.00  0.00    +0.108 C 
ENDBRANCH   1  12
BRANCH   4  14
ATOM     14  C   UNL     1      -0.899  -5.273   5.376  0.00  0.00    +0.163 C 
ATOM     15  N   UNL     1      -0.868  -6.567   5.247  0.00  0.00    -0.072 NA
ATOM     16  N   UNL     1      -1.365  -4.705   6.550  0.00  0.00    -0.340 N 
ATOM     17  H   UNL     1      -1.388  -3.740   6.646  0.00  0.00    +0.144 HD
ATOM     18  H   UNL     1      -1.669  -5.272   7.276  0.00  0.00    +0.144 HD
BRANCH  15  19
ATOM     19  O   UNL     1      -1.311  -7.395   6.307  0.00  0.00    -0.408 OA
ATOM     20  H   UNL     1      -1.251  -8.342   6.119  0.00  0.00    +0.328 HD
ENDBRANCH  15  19
ENDBRANCH   4  14
BRANCH   5  21
ATOM     21  C   UNL     1       0.071  -6.478   2.934  0.00  0.00    +0.418 C 
ATOM     22  F   UNL     1       0.578  -6.807   1.672  0.00  0.00    -0.166 F 
ATOM     23  F   UNL     1       0.894  -7.027   3.924  0.00  0.00    -0.166 F 
ATOM     24  F   UNL     1      -1.223  -6.992   3.066  0.00  0.00    -0.166 F 
ENDBRANCH   5  21
TORSDOF 4
