REMARK  Name = ZINC38550662
REMARK  9 active torsions:
REMARK  status: ('A' for Active; 'I' for Inactive)
REMARK    1  A    between atoms: C_1  and  O_2
REMARK    2  A    between atoms: O_2  and  C_3
REMARK    3  A    between atoms: C_6  and  C_11
REMARK    4  A    between atoms: C_7  and  O_9
REMARK    5  A    between atoms: O_9  and  C_10
REMARK    6  A    between atoms: C_11  and  C_13
REMARK    7  A    between atoms: C_11  and  N_30
REMARK    8  A    between atoms: C_17  and  N_18
REMARK    9  A    between atoms: C_19  and  C_21
REMARK                            x       y       z     vdW  Elec       q    Type
REMARK                         _______ _______ _______ _____ _____    ______ ____
ROOT
ATOM      1  C   UNL     1       2.425  -2.433  -4.407  0.00  0.00    +0.138 C 
ENDROOT
BRANCH   1   2
ATOM      2  C   UNL     1       1.330  -2.902  -5.331  0.00  0.00    +0.009 A 
ATOM      3  C   UNL     1       0.754  -2.014  -6.240  0.00  0.00    -0.030 A 
ATOM      4  C   UNL     1      -0.227  -2.511  -7.039  0.00  0.00    -0.005 A 
ATOM      5  S   UNL     1      -0.362  -4.208  -6.543  0.00  0.00    -0.078 S 
ATOM      6  C   UNL     1       0.905  -4.193  -5.284  0.00  0.00    +0.078 A 
ATOM      7  C   UNL     1      -1.004  -1.784  -8.088  0.00  0.00    +0.043 C 
ATOM      8  C   UNL     1      -0.789  -0.276  -7.889  0.00  0.00    +0.005 C 
ATOM      9  C   UNL     1       0.710  -0.013  -7.712  0.00  0.00    +0.005 C 
ATOM     10  C   UNL     1       1.179  -0.553  -6.360  0.00  0.00    +0.036 C 
BRANCH   6  11
ATOM     11  N   UNL     1       1.344  -5.235  -4.464  0.00  0.00    -0.273 N 
ATOM     12  C   UNL     1       0.718  -6.428  -4.498  0.00  0.00    +0.284 C 
ATOM     13  O   UNL     1      -0.167  -6.628  -5.310  0.00  0.00    -0.266 OA
ATOM     14  H   UNL     1       2.099  -5.100  -3.871  0.00  0.00    +0.156 HD
BRANCH  12  15
ATOM     15  C   UNL     1       1.102  -7.484  -3.556  0.00  0.00    +0.189 A 
ATOM     16  C   UNL     1       0.623  -8.763  -3.545  0.00  0.00    +0.054 A 
ATOM     17  C   UNL     1       1.260  -9.424  -2.483  0.00  0.00    +0.042 A 
ATOM     18  C   UNL     1       2.090  -8.531  -1.900  0.00  0.00    +0.196 A 
ATOM     19  O   UNL     1       1.996  -7.365  -2.553  0.00  0.00    -0.458 OA
ENDBRANCH  12  15
ENDBRANCH   6  11
ENDBRANCH   1   2
BRANCH   1  20
ATOM     20  N   UNL     1       3.415  -1.670  -5.171  0.00  0.00    -0.319 N 
ATOM     21  C   UNL     1       4.364  -2.336  -5.939  0.00  0.00    +0.097 A 
ATOM     22  C   UNL     1       4.302  -3.720  -6.064  0.00  0.00    +0.041 A 
ATOM     23  C   UNL     1       5.252  -4.369  -6.832  0.00  0.00    +0.005 A 
ATOM     24  C   UNL     1       6.236  -3.609  -7.451  0.00  0.00    +0.018 A 
ATOM     25  C   UNL     1       6.237  -2.239  -7.284  0.00  0.00    +0.084 A 
ATOM     26  N   UNL     1       5.314  -1.646  -6.550  0.00  0.00    -0.350 N 
ATOM     27  H   UNL     1       3.409  -0.701  -5.141  0.00  0.00    +0.148 HD
ATOM     28  H   UNL     1       5.336  -0.681  -6.452  0.00  0.00    +0.166 HD
ENDBRANCH   1  20
BRANCH   1  32
ATOM     29  C   UNL     1       0.749   0.056  -1.360  0.00  0.00    +0.124 A 
ATOM     30  C   UNL     1       1.345   0.625  -2.476  0.00  0.00    +0.046 A 
ATOM     31  C   UNL     1       1.886  -0.181  -3.459  0.00  0.00    +0.013 A 
ATOM     32  C   UNL     1       1.835  -1.557  -3.333  0.00  0.00    +0.019 A 
ATOM     33  C   UNL     1       1.239  -2.131  -2.219  0.00  0.00    +0.129 A 
ATOM     34  C   UNL     1       0.701  -1.323  -1.229  0.00  0.00    +0.091 A 
BRANCH  29  36
ATOM     35  C   UNL     1       0.301   2.262  -0.595  0.00  0.00    +0.277 C 
ATOM     36  O   UNL     1       0.216   0.850  -0.394  0.00  0.00    -0.495 OA
ENDBRANCH  29  36
BRANCH  33  37
ATOM     37  O   UNL     1       1.189  -3.483  -2.096  0.00  0.00    -0.495 OA
ATOM     38  C   UNL     1       0.561  -4.005  -0.923  0.00  0.00    +0.277 C 
ENDBRANCH  33  37
ENDBRANCH   1  32
TORSDOF 7
