REMARK  Name = ZINC38651538
REMARK  6 active torsions:
REMARK  status: ('A' for Active; 'I' for Inactive)
REMARK    1  A    between atoms: C_3  and  C_8
REMARK    2  A    between atoms: C_13  and  O_22
REMARK    3  A    between atoms: C_17  and  N_21
REMARK    4  A    between atoms: C_18  and  C_19
REMARK    5  A    between atoms: O_22  and  C_23
REMARK    6  A    between atoms: C_23  and  C_25
REMARK                            x       y       z     vdW  Elec       q    Type
REMARK                         _______ _______ _______ _____ _____    ______ ____
ROOT
ATOM      1  C   UNL     1       3.655   2.240   0.005  0.00  0.00    +0.098 C 
ATOM      2  C   UNL     1       4.460   1.869   1.222  0.00  0.00    +0.008 A 
ATOM      3  C   UNL     1       4.172   2.467   2.437  0.00  0.00    +0.012 A 
ATOM      4  C   UNL     1       4.900   2.139   3.563  0.00  0.00    +0.047 A 
ATOM      5  C   UNL     1       5.925   1.206   3.480  0.00  0.00    +0.135 A 
ATOM      6  C   UNL     1       6.214   0.605   2.266  0.00  0.00    +0.093 A 
ATOM      7  C   UNL     1       5.481   0.936   1.134  0.00  0.00    +0.138 A 
ATOM      8  O   UNL     1       5.778   0.340  -0.047  0.00  0.00    -0.441 OA
ATOM      9  C   UNL     1       5.373   0.898  -1.200  0.00  0.00    +0.199 C 
ATOM     10  C   UNL     1       4.372   1.804  -1.241  0.00  0.00    +0.098 C 
ENDROOT
BRANCH   1  13
ATOM     11  C   UNL     1      -0.079   1.700   0.149  0.00  0.00    +0.001 A 
ATOM     12  C   UNL     1       1.155   2.321   0.090  0.00  0.00    +0.004 A 
ATOM     13  C   UNL     1       2.310   1.563   0.070  0.00  0.00    -0.034 A 
ATOM     14  C   UNL     1       2.233   0.183   0.109  0.00  0.00    +0.020 A 
ATOM     15  C   UNL     1       0.999  -0.439   0.169  0.00  0.00    +0.018 A 
ATOM     16  C   UNL     1      -0.158   0.321   0.189  0.00  0.00    +0.015 A 
ATOM     17 BR   UNL     1       0.892  -2.326   0.221  0.00  0.00    -0.050 Br
ENDBRANCH   1  13
BRANCH   9  18
ATOM     18  N   UNL     1       5.995   0.537  -2.369  0.00  0.00    -0.328 N 
ATOM     19  H   UNL     1       6.715  -0.113  -2.355  0.00  0.00    +0.145 HD
ATOM     20  H   UNL     1       5.715   0.932  -3.210  0.00  0.00    +0.145 HD
ENDBRANCH   9  18
BRANCH  10  21
ATOM     21  C   UNL     1       3.988   2.362  -2.503  0.00  0.00    +0.101 C 
ATOM     22  N   UNL     1       3.683   2.804  -3.504  0.00  0.00    -0.191 NA
ENDBRANCH  10  21
BRANCH   5  23
ATOM     23  O   UNL     1       6.643   0.883   4.588  0.00  0.00    -0.422 OA
BRANCH  23  24
ATOM     24  C   UNL     1       6.024   0.187   5.562  0.00  0.00    +0.344 C 
ATOM     25  O   UNL     1       4.893  -0.222   5.392  0.00  0.00    -0.245 OA
BRANCH  24  26
ATOM     26  C   UNL     1       6.721  -0.078   6.837  0.00  0.00    +0.061 A 
ATOM     27  C   UNL     1       8.019   0.396   7.038  0.00  0.00    +0.015 A 
ATOM     28  C   UNL     1       8.665   0.146   8.231  0.00  0.00    +0.002 A 
ATOM     29  C   UNL     1       8.030  -0.574   9.228  0.00  0.00    +0.020 A 
ATOM     30  C   UNL     1       6.743  -1.047   9.036  0.00  0.00    +0.042 A 
ATOM     31  C   UNL     1       6.083  -0.798   7.848  0.00  0.00    +0.035 A 
ATOM     32 CL   UNL     1       5.955  -1.949  10.292  0.00  0.00    -0.084 Cl
ENDBRANCH  24  26
ENDBRANCH  23  24
ENDBRANCH   5  23
TORSDOF 6
