REMARK  Name = ZINC49212153
REMARK  3 active torsions:
REMARK  status: ('A' for Active; 'I' for Inactive)
REMARK    1  A    between atoms: C_3  and  N_9
REMARK    2  A    between atoms: N_9  and  N_10
REMARK    3  A    between atoms: N_13  and  C_14
REMARK                            x       y       z     vdW  Elec       q    Type
REMARK                         _______ _______ _______ _____ _____    ______ ____
ROOT
ATOM      1  N   UNL     1       3.565   3.527  -0.014  0.00  0.00    -0.220 N 
ATOM      2  C   UNL     1       4.723   4.217  -0.022  0.00  0.00    +0.320 C 
ATOM      3  O   UNL     1       4.707   5.433  -0.015  0.00  0.00    -0.251 OA
ATOM      4  N   UNL     1       5.899   3.558  -0.036  0.00  0.00    -0.266 N 
ATOM      5  H   UNL     1       2.719   4.001  -0.003  0.00  0.00    +0.174 HD
ATOM      6  H   UNL     1       5.912   2.588  -0.042  0.00  0.00    +0.157 HD
ENDROOT
BRANCH   4   7
ATOM      7  C   UNL     1       7.109   4.278  -0.045  0.00  0.00    +0.072 A 
ATOM      8  C   UNL     1       8.357   3.744  -0.065  0.00  0.00    +0.128 A 
ATOM      9  N   UNL     1       9.244   4.774  -0.067  0.00  0.00    -0.283 N 
ATOM     10  H   UNL     1      10.210   4.694  -0.080  0.00  0.00    +0.188 HD
ATOM     11  N   UNL     1       8.514   5.969  -0.048  0.00  0.00    -0.180 NA
ATOM     12  C   UNL     1       7.240   5.675  -0.039  0.00  0.00    +0.157 A 
ENDBRANCH   4   7
BRANCH   1  13
ATOM     13  N   UNL     1       3.583   2.127  -0.021  0.00  0.00    -0.262 N 
ATOM     14  H   UNL     1       4.430   1.653  -0.032  0.00  0.00    +0.170 HD
BRANCH  13  17
ATOM     15  C   UNL     1      -0.017   1.380   0.010  0.00  0.00    +0.040 A 
ATOM     16  C   UNL     1       1.169   2.088   0.002  0.00  0.00    +0.028 A 
ATOM     17  C   UNL     1       2.381   1.411  -0.013  0.00  0.00    +0.059 A 
ATOM     18  C   UNL     1       2.398   0.022  -0.021  0.00  0.00    +0.043 A 
ATOM     19  C   UNL     1       1.209  -0.682  -0.013  0.00  0.00    +0.055 A 
ATOM     20  C   UNL     1       0.002  -0.004   0.002  0.00  0.00    +0.125 A 
ATOM     21  F   UNL     1      -1.159  -0.694   0.009  0.00  0.00    -0.205 F 
ATOM     22 BR   UNL     1       4.047  -0.905  -0.042  0.00  0.00    -0.048 Br
ENDBRANCH  13  17
ENDBRANCH   1  13
TORSDOF 3
