REMARK  Name = ZINC58686634
REMARK  6 active torsions:
REMARK  status: ('A' for Active; 'I' for Inactive)
REMARK    1  A    between atoms: C_1  and  C_2
REMARK    2  A    between atoms: C_2  and  C_4
REMARK    3  A    between atoms: C_2  and  N_11
REMARK    4  A    between atoms: N_14  and  C_15
REMARK    5  A    between atoms: C_15  and  C_16
REMARK    6  A    between atoms: N_18  and  C_19
REMARK                            x       y       z     vdW  Elec       q    Type
REMARK                         _______ _______ _______ _____ _____    ______ ____
ROOT
ATOM      1  N   UNL     1       0.690  -0.437  -1.220  0.00  0.00    -0.293 N 
ATOM      2  C   UNL     1       2.033  -0.553  -1.229  0.00  0.00    +0.300 C 
ATOM      3  O   UNL     1       2.675  -0.255  -0.240  0.00  0.00    -0.253 OA
ATOM      4  N   UNL     1       2.663  -0.998  -2.334  0.00  0.00    -0.291 N 
ATOM      5  H   UNL     1       0.177  -0.674  -2.008  0.00  0.00    +0.151 HD
ATOM      6  H   UNL     1       2.150  -1.235  -3.122  0.00  0.00    +0.151 HD
ENDROOT
BRANCH   1   8
ATOM      7  C   UNL     1      -0.011   1.577  -0.022  0.00  0.00    +0.033 C 
ATOM      8  C   UNL     1       0.004   0.047  -0.019  0.00  0.00    +0.102 C 
BRANCH   8   9
ATOM      9  C   UNL     1      -1.411  -0.469  -0.006  0.00  0.00    -0.026 A 
ATOM     10  C   UNL     1      -2.140  -0.519  -1.180  0.00  0.00    +0.005 A 
ATOM     11  C   UNL     1      -3.438  -0.992  -1.169  0.00  0.00    +0.001 A 
ATOM     12  C   UNL     1      -4.009  -1.417   0.017  0.00  0.00    +0.015 A 
ATOM     13  C   UNL     1      -3.281  -1.368   1.191  0.00  0.00    +0.018 A 
ATOM     14  C   UNL     1      -1.979  -0.899   1.179  0.00  0.00    +0.020 A 
ATOM     15 BR   UNL     1      -4.061  -1.948   2.813  0.00  0.00    -0.050 Br
ENDBRANCH   8   9
ENDBRANCH   1   8
BRANCH   4  16
ATOM     16  C   UNL     1       4.123  -1.123  -2.344  0.00  0.00    +0.202 C 
BRANCH  16  17
ATOM     17  C   UNL     1       4.573  -1.638  -3.687  0.00  0.00    +0.234 C 
ATOM     18  O   UNL     1       3.756  -1.877  -4.550  0.00  0.00    -0.274 OA
ATOM     19  N   UNL     1       5.885  -1.833  -3.928  0.00  0.00    -0.282 N 
ATOM     20  H   UNL     1       6.543  -1.582  -3.261  0.00  0.00    +0.155 HD
BRANCH  19  21
ATOM     21  C   UNL     1       6.297  -2.399  -5.142  0.00  0.00    +0.072 A 
ATOM     22  C   UNL     1       5.601  -2.122  -6.310  0.00  0.00    +0.029 A 
ATOM     23  C   UNL     1       6.008  -2.681  -7.506  0.00  0.00    +0.043 A 
ATOM     24  C   UNL     1       7.110  -3.517  -7.543  0.00  0.00    +0.161 A 
ATOM     25  C   UNL     1       7.809  -3.797  -6.378  0.00  0.00    +0.195 A 
ATOM     26  C   UNL     1       7.408  -3.235  -5.178  0.00  0.00    +0.182 A 
ATOM     27  F   UNL     1       8.091  -3.502  -4.044  0.00  0.00    -0.200 F 
ATOM     28  F   UNL     1       8.884  -4.615  -6.415  0.00  0.00    -0.199 F 
ATOM     29  F   UNL     1       7.505  -4.062  -8.714  0.00  0.00    -0.202 F 
ENDBRANCH  19  21
ENDBRANCH  16  17
ENDBRANCH   4  16
TORSDOF 5
