REMARK  Name = ZINC09281049
REMARK  10 active torsions:
REMARK  status: ('A' for Active; 'I' for Inactive)
REMARK    1  A    between atoms: C_1  and  C_2
REMARK    2  A    between atoms: C_5  and  N_8
REMARK    3  A    between atoms: C_9  and  C_11
REMARK    4  A    between atoms: C_11  and  N_66
REMARK    5  A    between atoms: C_14  and  O_33
REMARK    6  A    between atoms: C_21  and  C_23
REMARK    7  A    between atoms: C_25  and  O_31
REMARK    8  A    between atoms: C_28  and  O_29
REMARK    9  A    between atoms: O_29  and  C_30
REMARK   10  A    between atoms: O_31  and  C_32
REMARK                            x       y       z     vdW  Elec       q    Type
REMARK                         _______ _______ _______ _____ _____    ______ ____
ROOT
ATOM      1  C   UNL     1       1.404   1.298  -2.051  0.00  0.00    -0.075 C 
ATOM      2  C   UNL     1       2.012   1.123  -0.656  0.00  0.00    +0.016 C 
ATOM      3  C   UNL     1       1.141   1.858   0.364  0.00  0.00    +0.066 C 
ATOM      4  C   UNL     1       1.758   1.743   1.759  0.00  0.00    +0.035 C 
ATOM      5  C   UNL     1       0.874   2.480   2.766  0.00  0.00    +0.003 C 
ATOM      6  C   UNL     1       0.762   3.954   2.373  0.00  0.00    +0.000 C 
ATOM      7  C   UNL     1       0.154   4.068   0.973  0.00  0.00    +0.005 C 
ATOM      8  C   UNL     1       1.049   3.336  -0.028  0.00  0.00    +0.011 C 
ATOM      9  C   UNL     1       0.461   3.446  -1.435  0.00  0.00    -0.027 C 
ATOM     10  N   UNL     1       1.352   2.738  -2.380  0.00  0.00    +0.390 N 
ATOM     11  H   UNL     1       2.298   3.131  -2.303  0.00  0.00    -0.080 HD
ENDROOT
BRANCH   9  12
ATOM     12  C   UNL     1      -0.920   2.841  -1.452  0.00  0.00    -0.015 A 
ATOM     13  C   UNL     1      -1.082   1.485  -1.245  0.00  0.00    +0.051 A 
ATOM     14  C   UNL     1      -2.353   0.930  -1.255  0.00  0.00    +0.121 A 
ATOM     15  C   UNL     1      -3.459   1.734  -1.485  0.00  0.00    +0.049 A 
ATOM     16  C   UNL     1      -3.296   3.089  -1.698  0.00  0.00    +0.049 A 
ATOM     17  C   UNL     1      -2.026   3.645  -1.682  0.00  0.00    +0.122 A 
BRANCH  17  18
ATOM     18  O   UNL     1      -1.866   4.979  -1.891  0.00  0.00    -0.495 OA
ATOM     19  C   UNL     1      -3.049   5.747  -2.122  0.00  0.00    +0.277 C 
ENDBRANCH  17  18
BRANCH  14  20
ATOM     20  O   UNL     1      -2.513  -0.404  -1.045  0.00  0.00    -0.495 OA
ATOM     21  C   UNL     1      -3.849  -0.909  -1.076  0.00  0.00    +0.277 C 
ENDBRANCH  14  20
ENDBRANCH   9  12
BRANCH   3  22
ATOM     22  O   UNL     1      -0.168   1.285   0.374  0.00  0.00    -0.388 OA
ATOM     23  H   UNL     1      -0.181   0.335   0.556  0.00  0.00    +0.210 HD
ENDBRANCH   3  22
BRANCH  10  24
ATOM     24  C   UNL     1       0.868   2.922  -3.763  0.00  0.00    +0.020 C 
BRANCH  24  26
ATOM     25  N   UNL     1       1.700   2.453  -6.045  0.00  0.00    -0.287 N 
ATOM     26  C   UNL     1       1.904   2.381  -4.715  0.00  0.00    +0.201 C 
ATOM     27  O   UNL     1       2.922   1.881  -4.284  0.00  0.00    -0.278 OA
ATOM     28  H   UNL     1       0.915   2.905  -6.392  0.00  0.00    +0.155 HD
BRANCH  25  33
ATOM     29  C   UNL     1       5.429   0.105  -9.618  0.00  0.00    +0.044 C 
ATOM     30  C   UNL     1       4.439   0.729  -8.669  0.00  0.00    -0.050 A 
ATOM     31  C   UNL     1       3.090   0.716  -8.973  0.00  0.00    +0.005 A 
ATOM     32  C   UNL     1       2.179   1.286  -8.105  0.00  0.00    +0.023 A 
ATOM     33  C   UNL     1       2.620   1.874  -6.926  0.00  0.00    +0.033 A 
ATOM     34  C   UNL     1       3.976   1.890  -6.627  0.00  0.00    +0.023 A 
ATOM     35  C   UNL     1       4.880   1.313  -7.496  0.00  0.00    +0.005 A 
ENDBRANCH  25  33
ENDBRANCH  24  26
ENDBRANCH  10  24
TORSDOF 7
