REMARK  Name = ZINC62794835
REMARK  4 active torsions:
REMARK  status: ('A' for Active; 'I' for Inactive)
REMARK    1  A    between atoms: C_1  and  C_2
REMARK    2  A    between atoms: C_7  and  S_9
REMARK    3  A    between atoms: S_9  and  C_10
REMARK    4  A    between atoms: C_13  and  C_17
REMARK                            x       y       z     vdW  Elec       q    Type
REMARK                         _______ _______ _______ _____ _____    ______ ____
ROOT
ATOM      1  C   UNL     1      -0.885   3.174  -6.124  0.00  0.00    +0.034 A 
ATOM      2  C   UNL     1      -2.222   3.408  -5.815  0.00  0.00    +0.017 A 
ATOM      3  C   UNL     1      -3.080   3.883  -6.780  0.00  0.00    +0.012 A 
ATOM      4  C   UNL     1      -2.609   4.131  -8.072  0.00  0.00    +0.014 A 
ATOM      5  C   UNL     1      -1.267   3.896  -8.381  0.00  0.00    +0.032 A 
ATOM      6  C   UNL     1      -0.411   3.425  -7.410  0.00  0.00    +0.055 A 
ATOM      7 CL   UNL     1       1.259   3.138  -7.790  0.00  0.00    -0.082 Cl
ENDROOT
BRANCH   4   8
ATOM      8  C   UNL     1      -3.528   4.640  -9.110  0.00  0.00    +0.094 C 
ATOM      9  N   UNL     1      -3.078   4.876 -10.342  0.00  0.00    -0.387 N 
ATOM     10  N   UNL     1      -4.809   4.864  -8.814  0.00  0.00    -0.345 N 
ATOM     11  H   UNL     1      -2.146   4.713 -10.557  0.00  0.00    +0.157 HD
ATOM     12  H   UNL     1      -5.136   4.692  -7.917  0.00  0.00    +0.144 HD
ATOM     13  H   UNL     1      -5.412   5.198  -9.496  0.00  0.00    +0.144 HD
ATOM     14  H   UNL     1      -3.682   5.210 -11.023  0.00  0.00    +0.157 HD
ENDBRANCH   4   8
BRANCH   1  15
ATOM     15  S   UNL     1       0.211   2.566  -4.886  0.00  0.00    -0.048 S 
BRANCH  15  22
ATOM     16  C   UNL     1       2.434  -1.973  -4.085  0.00  0.00    +0.066 C 
ATOM     17  C   UNL     1       1.452  -1.151  -4.880  0.00  0.00    +0.046 A 
ATOM     18  C   UNL     1       0.728  -1.727  -5.906  0.00  0.00    +0.095 A 
ATOM     19  C   UNL     1      -0.170  -0.931  -6.616  0.00  0.00    +0.274 A 
ATOM     20  O   UNL     1      -0.901  -1.455  -7.629  0.00  0.00    -0.266 OA
ATOM     21  N   UNL     1      -0.300   0.348  -6.284  0.00  0.00    -0.183 NA
ATOM     22  C   UNL     1       0.413   0.864  -5.293  0.00  0.00    +0.197 A 
ATOM     23  N   UNL     1       1.270   0.130  -4.598  0.00  0.00    -0.227 NA
ENDBRANCH  15  22
ENDBRANCH   1  15
TORSDOF 3
