REMARK  Name = ZINC62648944
REMARK  4 active torsions:
REMARK  status: ('A' for Active; 'I' for Inactive)
REMARK    1  A    between atoms: C_4  and  N_23
REMARK    2  A    between atoms: C_5  and  C_7
REMARK    3  A    between atoms: C_7  and  N_8
REMARK    4  A    between atoms: C_15  and  C_17
REMARK                            x       y       z     vdW  Elec       q    Type
REMARK                         _______ _______ _______ _____ _____    ______ ____
ROOT
ATOM      1  N   UNL     1       1.486  -2.680   1.333  0.00  0.00    -0.295 N 
ATOM      2  C   UNL     1       1.549  -4.005   1.567  0.00  0.00    +0.306 C 
ATOM      3  O   UNL     1       1.389  -4.792   0.654  0.00  0.00    -0.252 OA
ATOM      4  N   UNL     1       1.788  -4.459   2.814  0.00  0.00    -0.247 N 
ATOM      5  C   UNL     1       1.852  -5.825   3.055  0.00  0.00    +0.189 A 
ATOM      6  N   UNL     1       1.714  -6.827   2.206  0.00  0.00    -0.125 NA
ATOM      7  N   UNL     1       1.799  -8.032   2.575  0.00  0.00    -0.138 NA
ATOM      8  C   UNL     1       2.034  -8.295   3.855  0.00  0.00    +0.152 A 
ATOM      9  S   UNL     1       2.135  -6.634   4.507  0.00  0.00    -0.029 S 
ATOM     10  H   UNL     1       1.613  -2.052   2.061  0.00  0.00    +0.151 HD
ATOM     11  H   UNL     1       1.915  -3.831   3.542  0.00  0.00    +0.158 HD
ENDROOT
BRANCH   8  12
ATOM     12  C   UNL     1       2.178  -9.594   4.544  0.00  0.00    +0.098 A 
ATOM     13  C   UNL     1       2.070 -10.780   3.817  0.00  0.00    +0.030 A 
ATOM     14  C   UNL     1       2.208 -11.988   4.477  0.00  0.00    +0.004 A 
ATOM     15  C   UNL     1       2.448 -11.973   5.844  0.00  0.00    +0.020 A 
ATOM     16  C   UNL     1       2.544 -10.761   6.503  0.00  0.00    +0.111 A 
ATOM     17  N   UNL     1       2.415  -9.624   5.851  0.00  0.00    -0.253 NA
ENDBRANCH   8  12
BRANCH   1  18
ATOM     18  C   UNL     1       1.226  -2.187  -0.022  0.00  0.00    +0.143 C 
BRANCH  18  23
ATOM     19  C   UNL     1      -0.017   1.378   0.010  0.00  0.00    +0.000 A 
ATOM     20  C   UNL     1       1.170   2.089   0.002  0.00  0.00    +0.002 A 
ATOM     21  C   UNL     1       2.377   1.419  -0.013  0.00  0.00    +0.028 A 
ATOM     22  C   UNL     1       2.399   0.031  -0.021  0.00  0.00    +0.070 A 
ATOM     23  C   UNL     1       1.207  -0.680  -0.013  0.00  0.00    -0.005 A 
ATOM     24  C   UNL     1       0.002  -0.004   0.002  0.00  0.00    +0.007 A 
BRANCH  22  25
ATOM     25  N   UNL     1       3.624  -0.652  -0.037  0.00  0.00    -0.240 N 
ATOM     26  C   UNL     1       4.851  -0.085  -0.042  0.00  0.00    +0.114 A 
ATOM     27  C   UNL     1       5.765  -1.083  -0.058  0.00  0.00    +0.041 A 
ATOM     28  C   UNL     1       5.075  -2.300  -0.064  0.00  0.00    +0.135 A 
ATOM     29  N   UNL     1       3.792  -2.043  -0.046  0.00  0.00    -0.175 NA
ENDBRANCH  22  25
ENDBRANCH  18  23
ENDBRANCH   1  18
TORSDOF 4
