REMARK  Name = ZINC07254202
REMARK  6 active torsions:
REMARK  status: ('A' for Active; 'I' for Inactive)
REMARK    1  A    between atoms: C_1  and  C_2
REMARK    2  A    between atoms: C_2  and  C_31
REMARK    3  A    between atoms: C_13  and  C_15
REMARK    4  A    between atoms: C_15  and  N_16
REMARK    5  A    between atoms: C_18  and  C_27
REMARK    6  A    between atoms: N_29  and  C_30
REMARK                            x       y       z     vdW  Elec       q    Type
REMARK                         _______ _______ _______ _____ _____    ______ ____
ROOT
ATOM      1  C   UNL     1      -1.181   7.414   0.097  0.00  0.00    +0.042 C 
ATOM      2  C   UNL     1      -1.305   5.932  -0.260  0.00  0.00    +0.113 C 
ATOM      3  C   UNL     1      -2.631   5.405   0.226  0.00  0.00    +0.241 C 
ATOM      4  O   UNL     1      -3.590   6.146   0.269  0.00  0.00    -0.273 OA
ATOM      5  N   UNL     1      -2.764   4.122   0.612  0.00  0.00    -0.282 N 
ATOM      6  C   UNL     1      -1.662   3.260   0.618  0.00  0.00    +0.055 A 
ATOM      7  C   UNL     1      -1.836   1.889   0.727  0.00  0.00    +0.025 A 
ATOM      8  C   UNL     1      -0.733   1.055   0.745  0.00  0.00    +0.002 A 
ATOM      9  C   UNL     1       0.542   1.580   0.642  0.00  0.00    +0.002 A 
ATOM     10  C   UNL     1       0.725   2.946   0.525  0.00  0.00    +0.025 A 
ATOM     11  C   UNL     1      -0.374   3.787   0.512  0.00  0.00    +0.059 A 
ATOM     12  N   UNL     1      -0.223   5.177   0.389  0.00  0.00    -0.254 N 
ATOM     13  C   UNL     1       0.879   5.800   0.852  0.00  0.00    +0.238 C 
ATOM     14  O   UNL     1       1.039   6.984   0.644  0.00  0.00    -0.273 OA
ATOM     15  C   UNL     1      -1.209   5.761  -1.777  0.00  0.00    +0.042 C 
ATOM     16  H   UNL     1      -3.633   3.792   0.887  0.00  0.00    +0.155 HD
ENDROOT
BRANCH  13  17
ATOM     17  C   UNL     1       1.914   5.025   1.627  0.00  0.00    +0.201 C 
BRANCH  17  18
ATOM     18  N   UNL     1       2.784   5.960   2.352  0.00  0.00    -0.314 N 
ATOM     19  C   UNL     1       3.663   6.685   1.426  0.00  0.00    +0.160 C 
ATOM     20  C   UNL     1       4.631   7.549   2.246  0.00  0.00    +0.276 C 
ATOM     21  O   UNL     1       5.446   6.672   3.030  0.00  0.00    -0.476 OA
ATOM     22  C   UNL     1       4.806   5.661   3.680  0.00  0.00    +0.143 A 
ATOM     23  C   UNL     1       3.504   5.301   3.354  0.00  0.00    +0.073 A 
ATOM     24  C   UNL     1       2.889   4.258   4.038  0.00  0.00    +0.027 A 
ATOM     25  C   UNL     1       3.566   3.586   5.037  0.00  0.00    +0.002 A 
ATOM     26  C   UNL     1       4.860   3.948   5.362  0.00  0.00    +0.004 A 
ATOM     27  C   UNL     1       5.479   4.983   4.686  0.00  0.00    +0.047 A 
BRANCH  20  28
ATOM     28  C   UNL     1       5.500   8.361   1.320  0.00  0.00    +0.255 C 
ATOM     29  O   UNL     1       6.692   8.144   1.262  0.00  0.00    -0.272 OA
ATOM     30  N   UNL     1       4.952   9.328   0.557  0.00  0.00    -0.315 N 
ATOM     31  C   UNL     1       5.797  10.117  -0.342  0.00  0.00    +0.128 C 
ATOM     32  H   UNL     1       3.999   9.501   0.604  0.00  0.00    +0.148 HD
ENDBRANCH  20  28
ENDBRANCH  17  18
ENDBRANCH  13  17
TORSDOF 3
