REMARK  Name = ZINC03357084
REMARK  6 active torsions:
REMARK  status: ('A' for Active; 'I' for Inactive)
REMARK    1  A    between atoms: C_1  and  C_2
REMARK    2  A    between atoms: C_5  and  C_7
REMARK    3  A    between atoms: N_9  and  C_10
REMARK    4  A    between atoms: C_13  and  S_16
REMARK    5  A    between atoms: S_16  and  N_19
REMARK    6  A    between atoms: N_19  and  C_20
REMARK                            x       y       z     vdW  Elec       q    Type
REMARK                         _______ _______ _______ _____ _____    ______ ____
ROOT
ATOM      1  C   UNL     1      -4.906   1.773   0.475  0.00  0.00    +0.034 A 
ATOM      2  C   UNL     1      -5.129   0.402   0.468  0.00  0.00    +0.025 A 
ATOM      3  C   UNL     1      -6.421  -0.085   0.471  0.00  0.00    +0.030 A 
ATOM      4  C   UNL     1      -7.492   0.790   0.469  0.00  0.00    +0.109 A 
ATOM      5  C   UNL     1      -7.273   2.155   0.470  0.00  0.00    +0.030 A 
ATOM      6  C   UNL     1      -5.983   2.649   0.473  0.00  0.00    +0.025 A 
ENDROOT
BRANCH   1   9
ATOM      7  C   UNL     1      -3.308   3.399   1.154  0.00  0.00    +0.284 C 
ATOM      8  O   UNL     1      -4.198   4.032   1.691  0.00  0.00    -0.266 OA
ATOM      9  N   UNL     1      -3.599   2.270   0.477  0.00  0.00    -0.279 N 
ATOM     10  H   UNL     1      -2.901   1.802  -0.008  0.00  0.00    +0.155 HD
BRANCH   7  15
ATOM     11  C   UNL     1       1.659   3.616   0.558  0.00  0.00    +0.086 C 
ATOM     12  C   UNL     1       0.256   3.965   0.984  0.00  0.00    +0.103 A 
ATOM     13  C   UNL     1      -0.097   5.039   1.725  0.00  0.00    +0.045 A 
ATOM     14  C   UNL     1      -1.490   4.985   1.893  0.00  0.00    +0.055 A 
ATOM     15  C   UNL     1      -1.921   3.864   1.242  0.00  0.00    +0.190 A 
ATOM     16  O   UNL     1      -0.846   3.262   0.692  0.00  0.00    -0.455 OA
ENDBRANCH   7  15
ENDBRANCH   1   9
BRANCH   4  17
ATOM     17  S   UNL     1      -9.139   0.164   0.465  0.00  0.00    +0.072 S 
ATOM     18  O   UNL     1      -9.096  -1.098   1.118  0.00  0.00    -0.150 OA
ATOM     19  O   UNL     1      -9.977   1.222   0.909  0.00  0.00    -0.150 OA
BRANCH  17  20
ATOM     20  N   UNL     1      -9.546  -0.133  -1.112  0.00  0.00    -0.216 N 
ATOM     21  H   UNL     1     -10.273   0.359  -1.526  0.00  0.00    +0.174 HD
BRANCH  20  22
ATOM     22  C   UNL     1      -8.844  -1.093  -1.846  0.00  0.00    +0.048 A 
ATOM     23  C   UNL     1      -7.929  -0.696  -2.813  0.00  0.00    +0.025 A 
ATOM     24  C   UNL     1      -7.232  -1.647  -3.532  0.00  0.00    +0.016 A 
ATOM     25  C   UNL     1      -7.453  -2.992  -3.299  0.00  0.00    +0.013 A 
ATOM     26  C   UNL     1      -8.368  -3.390  -2.341  0.00  0.00    +0.016 A 
ATOM     27  C   UNL     1      -9.064  -2.444  -1.614  0.00  0.00    +0.025 A 
ATOM     28  I   UNL     1      -6.399  -4.431  -4.399  0.00  0.00    -0.044 I 
ENDBRANCH  20  22
ENDBRANCH  17  20
ENDBRANCH   4  17
TORSDOF 5
