REMARK  Name = ZINC39695843
REMARK  7 active torsions:
REMARK  status: ('A' for Active; 'I' for Inactive)
REMARK    1  A    between atoms: C_1  and  C_2
REMARK    2  A    between atoms: C_10  and  C_12
REMARK    3  A    between atoms: C_12  and  C_13
REMARK    4  A    between atoms: C_12  and  N_14
REMARK    5  A    between atoms: C_15  and  C_17
REMARK    6  A    between atoms: C_27  and  C_29
REMARK    7  A    between atoms: C_32  and  C_34
REMARK                            x       y       z     vdW  Elec       q    Type
REMARK                         _______ _______ _______ _____ _____    ______ ____
ROOT
ATOM      1  C   UNL     1      -1.623  -8.782   1.003  0.00  0.00    +0.100 C 
ATOM      2  C   UNL     1      -2.916  -8.258   0.339  0.00  0.00    +0.121 C 
ATOM      3  N   UNL     1      -3.819  -9.432   0.299  0.00  0.00    -0.294 N 
ATOM      4  C   UNL     1      -3.588 -10.118   1.593  0.00  0.00    +0.115 C 
ATOM      5  C   UNL     1      -2.072 -10.001   1.826  0.00  0.00    -0.004 C 
ATOM      6  C   UNL     1      -1.783  -9.774   3.307  0.00  0.00    -0.010 C 
ATOM      7  C   UNL     1      -2.183 -11.022   4.098  0.00  0.00    -0.082 C 
ATOM      8  N   UNL     1      -1.428 -12.180   3.604  0.00  0.00    +0.379 N 
ATOM      9  C   UNL     1      -1.782 -12.448   2.205  0.00  0.00    -0.082 C 
ATOM     10  C   UNL     1      -1.365 -11.260   1.333  0.00  0.00    -0.010 C 
ATOM     11  C   UNL     1      -4.660  -9.794  -0.690  0.00  0.00    +0.282 C 
ATOM     12  O   UNL     1      -5.343 -10.795  -0.572  0.00  0.00    -0.267 OA
ATOM     13  H   UNL     1      -0.440 -11.987   3.668  0.00  0.00    -0.086 HD
ATOM     14  H   UNL     1      -1.648 -12.988   4.166  0.00  0.00    -0.086 HD
ENDROOT
BRANCH  11  15
ATOM     15  C   UNL     1      -4.753  -8.984  -1.907  0.00  0.00    +0.190 A 
ATOM     16  C   UNL     1      -5.571  -9.236  -2.986  0.00  0.00    +0.055 A 
ATOM     17  C   UNL     1      -5.338  -8.217  -3.915  0.00  0.00    +0.050 A 
ATOM     18  C   UNL     1      -4.396  -7.389  -3.375  0.00  0.00    +0.136 A 
ATOM     19  O   UNL     1      -4.055  -7.857  -2.163  0.00  0.00    -0.450 OA
BRANCH  18  20
ATOM     20  C   UNL     1      -3.848  -6.176  -4.015  0.00  0.00    +0.017 A 
ATOM     21  C   UNL     1      -4.295  -5.788  -5.280  0.00  0.00    +0.014 A 
ATOM     22  C   UNL     1      -3.780  -4.654  -5.873  0.00  0.00    +0.039 A 
ATOM     23  C   UNL     1      -2.820  -3.901  -5.215  0.00  0.00    +0.123 A 
ATOM     24  C   UNL     1      -2.372  -4.282  -3.960  0.00  0.00    +0.039 A 
ATOM     25  C   UNL     1      -2.884  -5.410  -3.356  0.00  0.00    +0.014 A 
ATOM     26  F   UNL     1      -2.318  -2.792  -5.801  0.00  0.00    -0.205 F 
ENDBRANCH  18  20
ENDBRANCH  11  15
BRANCH   1  28
ATOM     27  N   UNL     1       0.297  -7.696   2.121  0.00  0.00    -0.305 N 
ATOM     28  C   UNL     1      -1.032  -7.728   1.904  0.00  0.00    +0.219 C 
ATOM     29  O   UNL     1      -1.754  -6.910   2.434  0.00  0.00    -0.275 OA
ATOM     30  H   UNL     1       0.874  -8.351   1.697  0.00  0.00    +0.149 HD
BRANCH  27  31
ATOM     31  C   UNL     1       0.872  -6.672   2.998  0.00  0.00    +0.136 C 
ATOM     32  C   UNL     1       0.794  -7.143   4.451  0.00  0.00    +0.036 C 
BRANCH  31  42
ATOM     33  C   UNL     1       7.806  -4.314   1.679  0.00  0.00    +0.044 C 
ATOM     34  C   UNL     1       6.570  -5.175   1.739  0.00  0.00    -0.048 A 
ATOM     35  C   UNL     1       6.601  -6.461   1.219  0.00  0.00    +0.005 A 
ATOM     36  C   UNL     1       5.491  -7.257   1.263  0.00  0.00    +0.030 A 
ATOM     37  C   UNL     1       4.312  -6.776   1.838  0.00  0.00    +0.089 A 
ATOM     38  C   UNL     1       4.281  -5.473   2.365  0.00  0.00    +0.067 A 
ATOM     39  C   UNL     1       5.420  -4.681   2.315  0.00  0.00    +0.031 A 
ATOM     40  N   UNL     1       3.002  -5.290   2.853  0.00  0.00    -0.340 N 
ATOM     41  H   UNL     1       2.660  -4.490   3.282  0.00  0.00    +0.167 HD
ATOM     42  C   UNL     1       2.312  -6.439   2.621  0.00  0.00    +0.128 A 
ATOM     43  N   UNL     1       3.077  -7.308   2.027  0.00  0.00    -0.231 NA
ENDBRANCH  31  42
ENDBRANCH  27  31
ENDBRANCH   1  28
TORSDOF 5
