REMARK  Name = ZINC20746115
REMARK  5 active torsions:
REMARK  status: ('A' for Active; 'I' for Inactive)
REMARK    1  A    between atoms: C_1  and  O_2
REMARK    2  A    between atoms: O_2  and  C_3
REMARK    3  A    between atoms: C_3  and  C_5
REMARK    4  A    between atoms: C_9  and  N_11
REMARK    5  A    between atoms: C_23  and  C_25
REMARK                            x       y       z     vdW  Elec       q    Type
REMARK                         _______ _______ _______ _____ _____    ______ ____
ROOT
ATOM      1  N   UNL     1      -2.808  -5.354   0.118  0.00  0.00    -0.269 N 
ATOM      2  C   UNL     1      -3.249  -6.613  -0.072  0.00  0.00    +0.307 C 
ATOM      3  O   UNL     1      -2.454  -7.519  -0.234  0.00  0.00    -0.252 OA
ATOM      4  N   UNL     1      -4.573  -6.868  -0.083  0.00  0.00    -0.272 N 
ATOM      5  C   UNL     1      -5.552  -5.777   0.030  0.00  0.00    +0.116 C 
ATOM      6  C   UNL     1      -6.370  -5.697  -1.265  0.00  0.00    +0.076 C 
ATOM      7  C   UNL     1      -6.787  -7.090  -1.665  0.00  0.00    +0.066 A 
ATOM      8  C   UNL     1      -6.212  -8.221  -1.201  0.00  0.00    +0.064 A 
ATOM      9  N   UNL     1      -6.851  -9.268  -1.788  0.00  0.00    -0.346 N 
ATOM     10  H   UNL     1      -6.660 -10.210  -1.655  0.00  0.00    +0.167 HD
ATOM     11  C   UNL     1      -7.805  -8.747  -2.595  0.00  0.00    +0.197 A 
ATOM     12  N   UNL     1      -7.758  -7.443  -2.513  0.00  0.00    -0.240 NA
ATOM     13  C   UNL     1      -5.076  -8.248  -0.215  0.00  0.00    +0.156 C 
ATOM     14  H   UNL     1      -3.442  -4.630   0.236  0.00  0.00    +0.156 HD
ENDROOT
BRANCH  13  15
ATOM     15  C   UNL     1      -5.572  -8.743   1.119  0.00  0.00    -0.021 A 
ATOM     16  C   UNL     1      -6.768  -8.275   1.629  0.00  0.00    +0.007 A 
ATOM     17  C   UNL     1      -7.223  -8.729   2.852  0.00  0.00    +0.015 A 
ATOM     18  C   UNL     1      -6.481  -9.653   3.566  0.00  0.00    +0.018 A 
ATOM     19  C   UNL     1      -5.284 -10.121   3.056  0.00  0.00    +0.015 A 
ATOM     20  C   UNL     1      -4.832  -9.670   1.830  0.00  0.00    +0.007 A 
ATOM     21 BR   UNL     1      -7.103 -10.274   5.240  0.00  0.00    -0.050 Br
ENDBRANCH  13  15
BRANCH   1  26
ATOM     22  C   UNL     1       0.415  -3.595  -0.225  0.00  0.00    +0.061 A 
ATOM     23  C   UNL     1       1.298  -4.590   0.203  0.00  0.00    +0.015 A 
ATOM     24  C   UNL     1       0.813  -5.820   0.597  0.00  0.00    +0.003 A 
ATOM     25  C   UNL     1      -0.546  -6.074   0.569  0.00  0.00    +0.023 A 
ATOM     26  C   UNL     1      -1.433  -5.092   0.144  0.00  0.00    +0.036 A 
ATOM     27  C   UNL     1      -0.957  -3.850  -0.248  0.00  0.00    +0.038 A 
BRANCH  22  28
ATOM     28  C   UNL     1       0.931  -2.277  -0.647  0.00  0.00    +0.339 C 
ATOM     29  O   UNL     1       0.161  -1.412  -1.014  0.00  0.00    -0.245 OA
BRANCH  28  31
ATOM     30  C   UNL     1       2.684  -0.737  -1.045  0.00  0.00    +0.280 C 
ATOM     31  O   UNL     1       2.256  -2.034  -0.624  0.00  0.00    -0.464 OA
ENDBRANCH  28  31
ENDBRANCH  22  28
ENDBRANCH   1  26
TORSDOF 4
