REMARK  Name = ZINC67103677
REMARK  5 active torsions:
REMARK  status: ('A' for Active; 'I' for Inactive)
REMARK    1  A    between atoms: C_4  and  C_7
REMARK    2  A    between atoms: C_7  and  C_8
REMARK    3  A    between atoms: N_10  and  N_11
REMARK    4  A    between atoms: N_14  and  C_15
REMARK    5  A    between atoms: C_18  and  O_21
REMARK                            x       y       z     vdW  Elec       q    Type
REMARK                         _______ _______ _______ _____ _____    ______ ____
ROOT
ATOM      1  N   UNL     1       3.721  -4.016  -3.438  0.00  0.00    -0.218 N 
ATOM      2  C   UNL     1       4.322  -4.676  -4.447  0.00  0.00    +0.316 C 
ATOM      3  O   UNL     1       4.427  -5.886  -4.406  0.00  0.00    -0.251 OA
ATOM      4  N   UNL     1       4.809  -3.993  -5.503  0.00  0.00    -0.295 N 
ATOM      5  H   UNL     1       3.371  -4.508  -2.678  0.00  0.00    +0.174 HD
ATOM      6  H   UNL     1       4.726  -3.027  -5.536  0.00  0.00    +0.151 HD
ENDROOT
BRANCH   4   7
ATOM      7  C   UNL     1       5.463  -4.710  -6.600  0.00  0.00    +0.075 C 
ATOM      8  C   UNL     1       6.936  -4.937  -6.255  0.00  0.00    +0.025 C 
ATOM      9  C   UNL     1       7.619  -5.685  -7.401  0.00  0.00    +0.033 C 
ATOM     10  C   UNL     1       7.518  -4.857  -8.683  0.00  0.00    +0.115 C 
ATOM     11  C   UNL     1       6.045  -4.630  -9.029  0.00  0.00    +0.033 C 
ATOM     12  C   UNL     1       5.362  -3.881  -7.883  0.00  0.00    +0.025 C 
BRANCH  10  13
ATOM     13  O   UNL     1       8.156  -5.556  -9.754  0.00  0.00    -0.392 OA
ATOM     14  H   UNL     1       8.130  -5.088 -10.600  0.00  0.00    +0.210 HD
ENDBRANCH  10  13
ENDBRANCH   4   7
BRANCH   1  17
ATOM     15  C   UNL     1       2.999  -1.962  -2.475  0.00  0.00    +0.229 C 
ATOM     16  O   UNL     1       2.561  -2.576  -1.526  0.00  0.00    -0.274 OA
ATOM     17  N   UNL     1       3.601  -2.621  -3.485  0.00  0.00    -0.233 N 
ATOM     18  H   UNL     1       3.951  -2.130  -4.245  0.00  0.00    +0.173 HD
BRANCH  15  19
ATOM     19  C   UNL     1       2.870  -0.461  -2.526  0.00  0.00    +0.101 C 
BRANCH  19  23
ATOM     20  C   UNL     1      -0.019   1.526   0.010  0.00  0.00    +0.000 C 
ATOM     21  C   UNL     1       1.417   2.055  -0.000  0.00  0.00    +0.000 C 
ATOM     22  C   UNL     1       2.133   1.562  -1.259  0.00  0.00    +0.004 C 
ATOM     23  C   UNL     1       2.154   0.032  -1.268  0.00  0.00    -0.002 C 
ATOM     24  C   UNL     1       0.718  -0.497  -1.257  0.00  0.00    +0.004 C 
ATOM     25  C   UNL     1       0.002  -0.004   0.002  0.00  0.00    +0.000 C 
ENDBRANCH  19  23
ENDBRANCH  15  19
ENDBRANCH   1  17
TORSDOF 5
