REMARK  Name = ZINC36052599
REMARK  11 active torsions:
REMARK  status: ('A' for Active; 'I' for Inactive)
REMARK    1  A    between atoms: C_1  and  C_2
REMARK    2  A    between atoms: C_2  and  N_3
REMARK    3  A    between atoms: N_3  and  C_4
REMARK    4  A    between atoms: C_4  and  C_5
REMARK    5  A    between atoms: C_6  and  C_8
REMARK    6  A    between atoms: C_9  and  C_35
REMARK    7  A    between atoms: C_13  and  C_15
REMARK    8  A    between atoms: C_18  and  C_21
REMARK    9  A    between atoms: C_25  and  C_28
REMARK   10  A    between atoms: C_29  and  N_31
REMARK   11  A    between atoms: N_31  and  C_32
REMARK                            x       y       z     vdW  Elec       q    Type
REMARK                         _______ _______ _______ _____ _____    ______ ____
ROOT
ATOM      1  C   UNL     1       0.688  -0.890  -3.548  0.00  0.00    +0.060 C 
ATOM      2  C   UNL     1       0.135  -1.173  -4.781  0.00  0.00    +0.051 C 
ATOM      3  N   UNL     1       0.886  -1.657  -5.758  0.00  0.00    -0.230 NA
ATOM      4  C   UNL     1       2.176  -1.907  -5.660  0.00  0.00    +0.166 C 
ATOM      5  N   UNL     1       2.910  -1.696  -4.527  0.00  0.00    -0.267 N 
ATOM      6  C   UNL     1       2.166  -1.146  -3.362  0.00  0.00    +0.148 C 
ATOM      7  C   UNL     1       4.254  -2.007  -4.583  0.00  0.00    +0.048 C 
ATOM      8  C   UNL     1       4.736  -2.493  -5.748  0.00  0.00    +0.072 C 
ATOM      9  S   UNL     1       3.278  -2.512  -6.772  0.00  0.00    -0.060 S 
ATOM     10  C   UNL     1      -1.333  -0.929  -5.017  0.00  0.00    +0.066 C 
ENDROOT
BRANCH   6  11
ATOM     11  C   UNL     1       2.330  -2.110  -2.216  0.00  0.00    -0.022 A 
ATOM     12  C   UNL     1       2.586  -1.635  -0.943  0.00  0.00    +0.006 A 
ATOM     13  C   UNL     1       2.735  -2.519   0.108  0.00  0.00    +0.013 A 
ATOM     14  C   UNL     1       2.628  -3.880  -0.113  0.00  0.00    +0.055 A 
ATOM     15  C   UNL     1       2.372  -4.356  -1.385  0.00  0.00    +0.013 A 
ATOM     16  C   UNL     1       2.217  -3.470  -2.436  0.00  0.00    +0.006 A 
BRANCH  14  17
ATOM     17  C   UNL     1       2.793  -4.844   1.034  0.00  0.00    +0.417 C 
ATOM     18  F   UNL     1       1.548  -5.080   1.627  0.00  0.00    -0.166 F 
ATOM     19  F   UNL     1       3.317  -6.050   0.557  0.00  0.00    -0.166 F 
ATOM     20  F   UNL     1       3.665  -4.298   1.981  0.00  0.00    -0.166 F 
ENDBRANCH  14  17
ENDBRANCH   6  11
BRANCH   1  22
ATOM     21  N   UNL     1      -0.388   0.939  -2.464  0.00  0.00    -0.298 N 
ATOM     22  C   UNL     1      -0.096  -0.376  -2.504  0.00  0.00    +0.246 C 
ATOM     23  O   UNL     1      -0.514  -1.120  -1.632  0.00  0.00    -0.270 OA
BRANCH  21  25
ATOM     24  C   UNL     1      -2.623   1.429  -1.600  0.00  0.00    +0.024 C 
ATOM     25  C   UNL     1      -1.119   1.493  -1.322  0.00  0.00    +0.104 C 
ENDBRANCH  21  25
BRANCH  21  26
ATOM     26  C   UNL     1       0.028   1.815  -3.562  0.00  0.00    +0.104 C 
ATOM     27  C   UNL     1       1.361   2.477  -3.211  0.00  0.00    +0.024 C 
ENDBRANCH  21  26
ENDBRANCH   1  22
BRANCH   7  28
ATOM     28  C   UNL     1       5.129  -1.816  -3.418  0.00  0.00    +0.091 C 
ATOM     29  C   UNL     1       6.460  -1.988  -3.540  0.00  0.00    +0.239 C 
ATOM     30  O   UNL     1       7.007  -2.199  -4.761  0.00  0.00    -0.271 OA
BRANCH  29  31
ATOM     31  N   UNL     1       7.268  -1.948  -2.417  0.00  0.00    -0.309 N 
ATOM     32  H   UNL     1       6.871  -1.870  -1.535  0.00  0.00    +0.149 HD
BRANCH  31  33
ATOM     33  C   UNL     1       8.725  -2.023  -2.559  0.00  0.00    +0.073 C 
ATOM     34  C   UNL     1       9.472  -3.013  -1.663  0.00  0.00    +0.024 C 
ATOM     35  C   UNL     1       9.576  -1.510  -1.396  0.00  0.00    +0.024 C 
ENDBRANCH  31  33
ENDBRANCH  29  31
ENDBRANCH   7  28
TORSDOF 8
