REMARK  Name = ZINC03764235
REMARK  11 active torsions:
REMARK  status: ('A' for Active; 'I' for Inactive)
REMARK    1  A    between atoms: C_1  and  O_2
REMARK    2  A    between atoms: O_2  and  C_3
REMARK    3  A    between atoms: C_6  and  N_9
REMARK    4  A    between atoms: C_10  and  C_12
REMARK    5  A    between atoms: C_12  and  S_13
REMARK    6  A    between atoms: S_13  and  C_14
REMARK    7  A    between atoms: C_17  and  C_22
REMARK    8  A    between atoms: N_18  and  C_19
REMARK    9  A    between atoms: C_19  and  C_20
REMARK   10  A    between atoms: C_25  and  N_28
REMARK   11  A    between atoms: C_29  and  C_31
REMARK                            x       y       z     vdW  Elec       q    Type
REMARK                         _______ _______ _______ _____ _____    ______ ____
ROOT
ATOM      1  C   UNL     1      -1.854   4.536  -0.270  0.00  0.00    +0.193 A 
ATOM      2  N   UNL     1      -0.545   4.639  -0.319  0.00  0.00    -0.122 NA
ATOM      3  N   UNL     1      -0.009   3.472  -0.268  0.00  0.00    -0.128 NA
ATOM      4  C   UNL     1      -0.942   2.553  -0.185  0.00  0.00    +0.165 A 
ATOM      5  N   UNL     1      -2.153   3.205  -0.189  0.00  0.00    -0.298 N 
ENDROOT
BRANCH   4   6
ATOM      6  C   UNL     1      -0.731   1.092  -0.107  0.00  0.00    +0.019 A 
ATOM      7  C   UNL     1      -1.740   0.265   0.392  0.00  0.00    +0.013 A 
ATOM      8  C   UNL     1      -1.542  -1.097   0.459  0.00  0.00    +0.024 A 
ATOM      9  C   UNL     1      -0.336  -1.647   0.040  0.00  0.00    +0.034 A 
ATOM     10  C   UNL     1       0.672  -0.826  -0.452  0.00  0.00    +0.024 A 
ATOM     11  C   UNL     1       0.479   0.536  -0.526  0.00  0.00    +0.013 A 
BRANCH   9  12
ATOM     12  N   UNL     1      -0.137  -3.029   0.114  0.00  0.00    -0.281 N 
ATOM     13  C   UNL     1       1.085  -3.518   0.403  0.00  0.00    +0.249 C 
ATOM     14  O   UNL     1       1.991  -2.761   0.695  0.00  0.00    -0.270 OA
ATOM     15  H   UNL     1      -0.878  -3.635  -0.043  0.00  0.00    +0.155 HD
BRANCH  13  16
ATOM     16  C   UNL     1       1.324  -4.970   0.364  0.00  0.00    +0.047 A 
ATOM     17  C   UNL     1       0.313  -5.849   0.041  0.00  0.00    +0.058 A 
ATOM     18  S   UNL     1       1.088  -7.396   0.133  0.00  0.00    -0.101 S 
ATOM     19  C   UNL     1       2.713  -6.871   0.599  0.00  0.00    -0.006 A 
ATOM     20  C   UNL     1       2.629  -5.523   0.671  0.00  0.00    -0.025 A 
ATOM     21  C   UNL     1       3.841  -4.682   1.051  0.00  0.00    +0.037 C 
ATOM     22  C   UNL     1       4.871  -5.583   1.735  0.00  0.00    +0.005 C 
ATOM     23  C   UNL     1       5.158  -6.805   0.858  0.00  0.00    +0.005 C 
ATOM     24  C   UNL     1       3.921  -7.716   0.859  0.00  0.00    +0.043 C 
ENDBRANCH  13  16
ENDBRANCH   9  12
ENDBRANCH   4   6
BRANCH   1  25
ATOM     25  S   UNL     1      -3.009   5.866  -0.309  0.00  0.00    -0.077 S 
BRANCH  25  26
ATOM     26  C   UNL     1      -1.871   7.268  -0.427  0.00  0.00    +0.173 C 
BRANCH  26  28
ATOM     27  N   UNL     1      -2.015   9.733  -0.564  0.00  0.00    -0.285 N 
ATOM     28  C   UNL     1      -2.658   8.552  -0.475  0.00  0.00    +0.227 C 
ATOM     29  O   UNL     1      -3.870   8.522  -0.434  0.00  0.00    -0.275 OA
ATOM     30  H   UNL     1      -1.046   9.762  -0.529  0.00  0.00    +0.155 HD
BRANCH  27  34
ATOM     31  C   UNL     1      -4.192  13.264  -0.988  0.00  0.00    +0.120 A 
ATOM     32  C   UNL     1      -4.695  12.229  -0.214  0.00  0.00    +0.047 A 
ATOM     33  C   UNL     1      -3.975  11.059  -0.073  0.00  0.00    +0.027 A 
ATOM     34  C   UNL     1      -2.747  10.920  -0.707  0.00  0.00    +0.034 A 
ATOM     35  C   UNL     1      -2.242  11.959  -1.478  0.00  0.00    +0.027 A 
ATOM     36  C   UNL     1      -2.966  13.126  -1.622  0.00  0.00    +0.047 A 
BRANCH  31  38
ATOM     37  C   UNL     1      -4.324  15.441  -1.938  0.00  0.00    +0.277 C 
ATOM     38  O   UNL     1      -4.902  14.416  -1.126  0.00  0.00    -0.495 OA
ENDBRANCH  31  38
ENDBRANCH  27  34
ENDBRANCH  26  28
ENDBRANCH  25  26
ENDBRANCH   1  25
BRANCH   5  39
ATOM     39  C   UNL     1      -3.485   2.600  -0.118  0.00  0.00    +0.152 C 
BRANCH  39  40
ATOM     40  C   UNL     1      -3.953   2.581   1.314  0.00  0.00    -0.013 C 
ATOM     41  C   UNL     1      -5.099   3.127   1.637  0.00  0.00    +0.005 C 
ENDBRANCH  39  40
ENDBRANCH   5  39
TORSDOF 10
