REMARK  Name = ZINC34835397
REMARK  11 active torsions:
REMARK  status: ('A' for Active; 'I' for Inactive)
REMARK    1  A    between atoms: C_1  and  C_2
REMARK    2  A    between atoms: C_2  and  C_3
REMARK    3  A    between atoms: C_3  and  O_5
REMARK    4  A    between atoms: O_5  and  C_6
REMARK    5  A    between atoms: C_6  and  C_7
REMARK    6  A    between atoms: C_7  and  C_9
REMARK    7  A    between atoms: C_15  and  C_36
REMARK    8  A    between atoms: C_17  and  O_35
REMARK    9  A    between atoms: C_31  and  C_32
REMARK   10  A    between atoms: C_38  and  C_40
REMARK   11  A    between atoms: C_38  and  C_41
REMARK                            x       y       z     vdW  Elec       q    Type
REMARK                         _______ _______ _______ _____ _____    ______ ____
ROOT
ATOM      1  C   UNL     1       2.214  -4.157  -4.078  0.00  0.00    +0.165 C 
ATOM      2  C   UNL     1       1.137  -4.450  -5.200  0.00  0.00    +0.162 C 
ATOM      3  C   UNL     1       0.327  -5.589  -4.644  0.00  0.00    +0.039 C 
ATOM      4  C   UNL     1       1.250  -6.247  -3.603  0.00  0.00    +0.007 C 
ATOM      5  C   UNL     1       2.639  -5.575  -3.783  0.00  0.00    +0.012 C 
ATOM      6  C   UNL     1       3.473  -5.822  -2.546  0.00  0.00    +0.044 C 
ATOM      7  C   UNL     1       2.937  -7.043  -1.772  0.00  0.00    +0.154 C 
ATOM      8  C   UNL     1       2.569  -8.157  -2.741  0.00  0.00    +0.153 C 
ATOM      9  C   UNL     1       1.332  -7.732  -3.549  0.00  0.00    +0.037 C 
ATOM     10  C   UNL     1       1.190  -8.529  -4.823  0.00  0.00    +0.048 C 
ATOM     11  C   UNL     1       1.567  -9.995  -4.527  0.00  0.00    +0.194 C 
ATOM     12  C   UNL     1       1.342 -10.233  -3.047  0.00  0.00    -0.020 C 
ATOM     13  C   UNL     1       0.405 -11.070  -2.631  0.00  0.00    +0.054 C 
ATOM     14  C   UNL     1       0.180 -11.238  -1.181  0.00  0.00    +0.179 C 
ATOM     15  O   UNL     1      -0.386 -12.221  -0.739  0.00  0.00    -0.288 OA
ATOM     16  C   UNL     1       0.672 -10.170  -0.291  0.00  0.00    +0.047 C 
ATOM     17  C   UNL     1       1.614  -9.340  -0.730  0.00  0.00    -0.009 C 
ATOM     18  C   UNL     1       2.235  -9.490  -2.075  0.00  0.00    +0.047 C 
ATOM     19  C   UNL     1       3.532 -10.297  -1.926  0.00  0.00    +0.023 C 
ATOM     20  F   UNL     1       0.747 -10.845  -5.274  0.00  0.00    -0.241 F 
ATOM     21  F   UNL     1       3.646  -8.395  -3.607  0.00  0.00    -0.238 F 
ATOM     22  C   UNL     1       3.394  -6.099  -5.008  0.00  0.00    +0.015 C 
ATOM     23  O   UNL     1       0.727  -3.131  -5.448  0.00  0.00    -0.343 OA
ATOM     24  C   UNL     1       2.015  -2.449  -5.560  0.00  0.00    +0.166 C 
ATOM     25  O   UNL     1       2.986  -3.211  -4.784  0.00  0.00    -0.332 OA
ATOM     26  C   UNL     1       1.903  -1.019  -5.032  0.00  0.00    +0.074 C 
ATOM     27  C   UNL     1       2.447  -2.408  -7.030  0.00  0.00    +0.074 C 
ENDROOT
BRANCH   1  28
ATOM     28  C   UNL     1       1.578  -3.518  -2.869  0.00  0.00    +0.205 C 
ATOM     29  O   UNL     1       0.395  -3.652  -2.667  0.00  0.00    -0.291 OA
BRANCH  28  30
ATOM     30  C   UNL     1       2.418  -2.712  -1.913  0.00  0.00    +0.309 C 
BRANCH  30  31
ATOM     31  O   UNL     1       1.575  -2.107  -0.930  0.00  0.00    -0.457 OA
BRANCH  31  32
ATOM     32  C   UNL     1       2.173  -1.349   0.003  0.00  0.00    +0.307 C 
ATOM     33  O   UNL     1       3.372  -1.204  -0.014  0.00  0.00    -0.251 OA
BRANCH  32  35
ATOM     34  C   UNL     1       2.266   0.117   2.000  0.00  0.00    +0.015 C 
ATOM     35  C   UNL     1       1.348  -0.679   1.071  0.00  0.00    +0.117 C 
ENDBRANCH  32  35
ENDBRANCH  31  32
ENDBRANCH  30  31
ENDBRANCH  28  30
ENDBRANCH   1  28
BRANCH   7  36
ATOM     36  O   UNL     1       3.947  -7.489  -0.861  0.00  0.00    -0.389 OA
ATOM     37  H   UNL     1       4.212  -6.824  -0.210  0.00  0.00    +0.210 HD
ENDBRANCH   7  36
TORSDOF 6
