REMARK  Name = ZINC06287956
REMARK  8 active torsions:
REMARK  status: ('A' for Active; 'I' for Inactive)
REMARK    1  A    between atoms: C_1  and  N_51
REMARK    2  A    between atoms: N_4  and  C_7
REMARK    3  A    between atoms: C_10  and  N_13
REMARK    4  A    between atoms: N_13  and  C_14
REMARK    5  A    between atoms: C_14  and  N_16
REMARK    6  A    between atoms: C_17  and  C_19
REMARK    7  A    between atoms: C_24  and  O_25
REMARK    8  A    between atoms: O_25  and  C_26
REMARK                            x       y       z     vdW  Elec       q    Type
REMARK                         _______ _______ _______ _____ _____    ______ ____
ROOT
ATOM      1  N   UNL     1      -3.227   5.069  -5.797  0.00  0.00    -0.297 N 
ATOM      2  H   UNL     1      -4.110   4.761  -6.054  0.00  0.00    +0.154 HD
ENDROOT
BRANCH   1   6
ATOM      3  C   UNL     1      -1.428   3.591  -2.337  0.00  0.00    +0.030 A 
ATOM      4  C   UNL     1      -2.109   2.730  -3.188  0.00  0.00    +0.025 A 
ATOM      5  C   UNL     1      -2.709   3.220  -4.330  0.00  0.00    +0.025 A 
ATOM      6  C   UNL     1      -2.623   4.573  -4.635  0.00  0.00    +0.033 A 
ATOM      7  C   UNL     1      -1.937   5.433  -3.787  0.00  0.00    +0.025 A 
ATOM      8  C   UNL     1      -1.341   4.943  -2.642  0.00  0.00    +0.025 A 
BRANCH   3  12
ATOM      9  C   UNL     1      -0.152   1.319   2.597  0.00  0.00    -0.096 C 
ATOM     10  C   UNL     1      -0.298   1.131   0.187  0.00  0.00    -0.060 C 
ATOM     11  C   UNL     1      -1.038   1.647  -1.049  0.00  0.00    +0.086 C 
ATOM     12  N   UNL     1      -0.825   3.095  -1.176  0.00  0.00    -0.333 N 
ATOM     13  C   UNL     1      -1.314   3.803   0.015  0.00  0.00    +0.086 C 
ATOM     14  C   UNL     1      -0.573   3.288   1.251  0.00  0.00    -0.060 C 
ATOM     15  N   UNL     1      -0.814   1.835   1.380  0.00  0.00    +0.380 N 
ATOM     16  H   UNL     1      -1.824   1.669   1.454  0.00  0.00    -0.082 HD
ENDBRANCH   3  12
ENDBRANCH   1   6
BRANCH   1  17
ATOM     17  C   UNL     1      -2.582   5.976  -6.558  0.00  0.00    +0.141 C 
ATOM     18  S   UNL     1      -0.970   6.415  -6.184  0.00  0.00    -0.018 S 
BRANCH  17  19
ATOM     19  N   UNL     1      -3.206   6.537  -7.613  0.00  0.00    -0.263 N 
ATOM     20  C   UNL     1      -2.561   7.443  -8.373  0.00  0.00    +0.253 C 
ATOM     21  O   UNL     1      -1.417   7.755  -8.108  0.00  0.00    -0.270 OA
ATOM     22  H   UNL     1      -4.120   6.288  -7.824  0.00  0.00    +0.157 HD
BRANCH  20  23
ATOM     23  C   UNL     1      -3.244   8.057  -9.527  0.00  0.00    +0.080 A 
ATOM     24  C   UNL     1      -4.560   7.701  -9.836  0.00  0.00    +0.032 A 
ATOM     25  C   UNL     1      -5.192   8.279 -10.916  0.00  0.00    +0.019 A 
ATOM     26  C   UNL     1      -4.529   9.212 -11.697  0.00  0.00    +0.019 A 
ATOM     27  C   UNL     1      -3.229   9.572 -11.404  0.00  0.00    +0.047 A 
ATOM     28  C   UNL     1      -2.579   9.004 -10.318  0.00  0.00    +0.132 A 
ATOM     29 BR   UNL     1      -6.973   7.798 -11.332  0.00  0.00    -0.050 Br
BRANCH  28  30
ATOM     30  O   UNL     1      -1.303   9.361 -10.025  0.00  0.00    -0.494 OA
ATOM     31  C   UNL     1      -0.690  10.332 -10.874  0.00  0.00    +0.277 C 
ENDBRANCH  28  30
ENDBRANCH  20  23
ENDBRANCH  17  19
ENDBRANCH   1  17
TORSDOF 6
