REMARK  Name = ZINC44785804
REMARK  5 active torsions:
REMARK  status: ('A' for Active; 'I' for Inactive)
REMARK    1  A    between atoms: C_1  and  C_2
REMARK    2  A    between atoms: C_2  and  C_21
REMARK    3  A    between atoms: C_8  and  C_10
REMARK    4  A    between atoms: C_10  and  C_17
REMARK    5  A    between atoms: N_18  and  O_19
REMARK                            x       y       z     vdW  Elec       q    Type
REMARK                         _______ _______ _______ _____ _____    ______ ____
ROOT
ATOM      1  C   UNL     1       2.599  -1.434   2.365  0.00  0.00    +0.105 C 
ATOM      2  C   UNL     1       1.756  -2.511   3.078  0.00  0.00    +0.024 C 
ATOM      3  C   UNL     1       1.225  -3.465   2.043  0.00  0.00    +0.001 C 
ATOM      4  C   UNL     1       2.128  -4.700   1.862  0.00  0.00    +0.000 C 
ATOM      5  C   UNL     1       3.628  -4.348   1.859  0.00  0.00    +0.000 C 
ATOM      6  C   UNL     1       3.925  -3.100   1.073  0.00  0.00    +0.001 C 
ATOM      7  C   UNL     1       3.939  -1.901   2.042  0.00  0.00    +0.024 C 
ENDROOT
BRANCH   1  15
ATOM      8  C   UNL     1       2.744  -0.572  -2.205  0.00  0.00    +0.034 C 
ATOM      9  C   UNL     1       1.916   0.081  -1.096  0.00  0.00    +0.055 C 
ATOM     10  C   UNL     1       1.904   1.602  -1.289  0.00  0.00    +0.185 C 
ATOM     11  O   UNL     1       3.219   2.115  -1.063  0.00  0.00    -0.376 OA
ATOM     12  C   UNL     1       3.708   1.909   0.264  0.00  0.00    +0.179 C 
ATOM     13  C   UNL     1       3.812   0.404   0.536  0.00  0.00    +0.136 C 
ATOM     14  N   UNL     1       2.518  -0.216   0.213  0.00  0.00    -0.291 N 
ATOM     15  C   UNL     1       1.902  -1.034   1.090  0.00  0.00    +0.230 C 
ATOM     16  O   UNL     1       0.786  -1.447   0.853  0.00  0.00    -0.275 OA
ATOM     17  C   UNL     1       0.484  -0.456  -1.139  0.00  0.00    +0.034 C 
ENDBRANCH   1  15
BRANCH   1  18
ATOM     18  C   UNL     1       2.705  -0.227   3.261  0.00  0.00    +0.147 C 
ATOM     19  N   UNL     1       3.855   0.130   3.729  0.00  0.00    -0.076 NA
ATOM     20  N   UNL     1       1.577   0.494   3.582  0.00  0.00    -0.343 N 
ATOM     21  H   UNL     1       0.705   0.185   3.291  0.00  0.00    +0.144 HD
ATOM     22  H   UNL     1       1.654   1.312   4.098  0.00  0.00    +0.144 HD
BRANCH  19  23
ATOM     23  O   UNL     1       3.955   1.264   4.572  0.00  0.00    -0.408 OA
ATOM     24  H   UNL     1       4.855   1.453   4.872  0.00  0.00    +0.328 HD
ENDBRANCH  19  23
ENDBRANCH   1  18
TORSDOF 3
