REMARK  Name = ZINC39676573
REMARK  9 active torsions:
REMARK  status: ('A' for Active; 'I' for Inactive)
REMARK    1  A    between atoms: C_1  and  O_2
REMARK    2  A    between atoms: O_2  and  C_3
REMARK    3  A    between atoms: C_6  and  C_9
REMARK    4  A    between atoms: C_9  and  C_10
REMARK    5  A    between atoms: C_9  and  N_18
REMARK    6  A    between atoms: C_13  and  O_16
REMARK    7  A    between atoms: O_16  and  C_17
REMARK    8  A    between atoms: C_19  and  C_21
REMARK    9  A    between atoms: C_32  and  C_34
REMARK                            x       y       z     vdW  Elec       q    Type
REMARK                         _______ _______ _______ _____ _____    ______ ____
ROOT
ATOM      1  N   UNL     1      -6.226  -4.429   0.164  0.00  0.00    -0.304 N 
ATOM      2  C   UNL     1      -6.013  -4.265   1.485  0.00  0.00    +0.219 C 
ATOM      3  O   UNL     1      -5.862  -3.151   1.941  0.00  0.00    -0.275 OA
ATOM      4  H   UNL     1      -6.346  -5.320  -0.201  0.00  0.00    +0.150 HD
ENDROOT
BRANCH   2   5
ATOM      5  C   UNL     1      -5.961  -5.465   2.395  0.00  0.00    +0.100 C 
ATOM      6  C   UNL     1      -5.014  -5.197   3.586  0.00  0.00    +0.121 C 
ATOM      7  N   UNL     1      -5.903  -4.723   4.672  0.00  0.00    -0.295 N 
ATOM      8  C   UNL     1      -7.115  -5.569   4.552  0.00  0.00    +0.115 C 
ATOM      9  C   UNL     1      -7.338  -5.713   3.033  0.00  0.00    -0.004 C 
ATOM     10  C   UNL     1      -7.830  -7.118   2.702  0.00  0.00    -0.010 C 
ATOM     11  C   UNL     1      -9.226  -7.320   3.299  0.00  0.00    -0.082 C 
ATOM     12  N   UNL     1     -10.145  -6.316   2.748  0.00  0.00    +0.379 N 
ATOM     13  C   UNL     1      -9.716  -4.971   3.150  0.00  0.00    -0.082 C 
ATOM     14  C   UNL     1      -8.341  -4.670   2.547  0.00  0.00    -0.010 C 
ATOM     15  C   UNL     1      -5.664  -3.745   5.568  0.00  0.00    +0.265 C 
ATOM     16  O   UNL     1      -4.658  -3.070   5.476  0.00  0.00    -0.268 OA
ATOM     17  H   UNL     1     -10.147  -6.380   1.741  0.00  0.00    -0.086 HD
ATOM     18  H   UNL     1     -11.076  -6.489   3.095  0.00  0.00    -0.086 HD
BRANCH  15  19
ATOM     19  C   UNL     1      -6.629  -3.492   6.664  0.00  0.00    +0.126 A 
ATOM     20  C   UNL     1      -6.436  -2.407   7.516  0.00  0.00    +0.033 A 
ATOM     21  C   UNL     1      -7.347  -2.183   8.537  0.00  0.00    +0.004 A 
ATOM     22  C   UNL     1      -8.419  -3.052   8.669  0.00  0.00    +0.020 A 
ATOM     23  C   UNL     1      -8.548  -4.111   7.785  0.00  0.00    +0.111 A 
ATOM     24  N   UNL     1      -7.672  -4.297   6.822  0.00  0.00    -0.250 NA
ENDBRANCH  15  19
ENDBRANCH   2   5
BRANCH   1  25
ATOM     25  C   UNL     1      -6.276  -3.263  -0.720  0.00  0.00    +0.134 C 
BRANCH  25  29
ATOM     26  C   UNL     1      -5.241  -4.444  -4.695  0.00  0.00    +0.120 A 
ATOM     27  C   UNL     1      -4.778  -3.239  -4.185  0.00  0.00    +0.046 A 
ATOM     28  C   UNL     1      -5.115  -2.859  -2.900  0.00  0.00    +0.009 A 
ATOM     29  C   UNL     1      -5.911  -3.679  -2.122  0.00  0.00    -0.023 A 
ATOM     30  C   UNL     1      -6.373  -4.880  -2.627  0.00  0.00    +0.009 A 
ATOM     31  C   UNL     1      -6.045  -5.261  -3.914  0.00  0.00    +0.046 A 
BRANCH  26  33
ATOM     32  C   UNL     1      -4.081  -3.927  -6.705  0.00  0.00    +0.277 C 
ATOM     33  O   UNL     1      -4.912  -4.819  -5.959  0.00  0.00    -0.495 OA
ENDBRANCH  26  33
ENDBRANCH  25  29
BRANCH  25  34
ATOM     34  C   UNL     1      -7.669  -2.687  -0.714  0.00  0.00    -0.023 A 
ATOM     35  C   UNL     1      -8.764  -3.530  -0.706  0.00  0.00    +0.009 A 
ATOM     36  C   UNL     1     -10.042  -3.005  -0.701  0.00  0.00    +0.046 A 
ATOM     37  C   UNL     1     -10.225  -1.629  -0.702  0.00  0.00    +0.120 A 
ATOM     38  C   UNL     1      -9.124  -0.785  -0.709  0.00  0.00    +0.046 A 
ATOM     39  C   UNL     1      -7.848  -1.316  -0.710  0.00  0.00    +0.009 A 
BRANCH  37  40
ATOM     40  O   UNL     1     -11.481  -1.110  -0.697  0.00  0.00    -0.495 OA
ATOM     41  C   UNL     1     -11.594   0.315  -0.699  0.00  0.00    +0.277 C 
ENDBRANCH  37  40
ENDBRANCH  25  34
ENDBRANCH   1  25
TORSDOF 7
