REMARK  Name = ZINC38905162
REMARK  8 active torsions:
REMARK  status: ('A' for Active; 'I' for Inactive)
REMARK    1  A    between atoms: C_4  and  S_7
REMARK    2  A    between atoms: S_7  and  C_8
REMARK    3  A    between atoms: C_8  and  C_9
REMARK    4  A    between atoms: C_9  and  N_10
REMARK    5  A    between atoms: C_11  and  C_13
REMARK    6  A    between atoms: N_18  and  C_20
REMARK    7  A    between atoms: C_20  and  C_21
REMARK    8  A    between atoms: C_23  and  C_26
REMARK                            x       y       z     vdW  Elec       q    Type
REMARK                         _______ _______ _______ _____ _____    ______ ____
ROOT
ATOM      1  C   UNL     1       4.899  -7.271  -0.086  0.00  0.00    +0.058 C 
ATOM      2  C   UNL     1       4.057  -7.570  -1.330  0.00  0.00    +0.009 C 
ATOM      3  C   UNL     1       3.729  -9.065  -1.365  0.00  0.00    -0.018 C 
ATOM      4  C   UNL     1       5.031  -9.868  -1.338  0.00  0.00    -0.078 C 
ATOM      5  N   UNL     1       5.777  -9.558  -0.113  0.00  0.00    +0.386 N 
ATOM      6  C   UNL     1       6.157  -8.141  -0.105  0.00  0.00    -0.065 C 
ATOM      7  H   UNL     1       5.198  -9.754   0.691  0.00  0.00    -0.081 HD
ENDROOT
BRANCH   1   9
ATOM      8  N   UNL     1       4.342  -4.861  -0.067  0.00  0.00    -0.314 N 
ATOM      9  C   UNL     1       5.292  -5.816  -0.082  0.00  0.00    +0.214 C 
ATOM     10  O   UNL     1       6.464  -5.505  -0.092  0.00  0.00    -0.276 OA
ATOM     11  H   UNL     1       3.404  -5.109  -0.059  0.00  0.00    +0.149 HD
BRANCH   8  12
ATOM     12  C   UNL     1       4.724  -3.447  -0.064  0.00  0.00    +0.115 C 
BRANCH  12  13
ATOM     13  C   UNL     1       3.465  -2.578  -0.046  0.00  0.00    +0.093 C 
BRANCH  13  14
ATOM     14  S   UNL     1       3.939  -0.827  -0.042  0.00  0.00    -0.124 S 
BRANCH  14  18
ATOM     15  C   UNL     1      -0.017   1.379   0.010  0.00  0.00    +0.000 A 
ATOM     16  C   UNL     1       1.169   2.090   0.002  0.00  0.00    +0.001 A 
ATOM     17  C   UNL     1       2.377   1.421  -0.013  0.00  0.00    +0.015 A 
ATOM     18  C   UNL     1       2.400   0.031  -0.021  0.00  0.00    +0.008 A 
ATOM     19  C   UNL     1       1.206  -0.680  -0.013  0.00  0.00    +0.015 A 
ATOM     20  C   UNL     1       0.002  -0.004   0.002  0.00  0.00    +0.001 A 
ENDBRANCH  14  18
ENDBRANCH  13  14
ENDBRANCH  12  13
ENDBRANCH   8  12
ENDBRANCH   1   9
BRANCH   5  21
ATOM     21  C   UNL     1       6.987 -10.389  -0.054  0.00  0.00    +0.022 C 
BRANCH  21  22
ATOM     22  C   UNL     1       6.595 -11.839   0.073  0.00  0.00    +0.211 A 
ATOM     23  N   UNL     1       6.392 -12.662  -0.916  0.00  0.00    -0.193 NA
ATOM     24  C   UNL     1       6.058 -13.876  -0.444  0.00  0.00    +0.202 A 
ATOM     25  N   UNL     1       6.048 -13.827   0.865  0.00  0.00    -0.056 NA
ATOM     26  O   UNL     1       6.403 -12.500   1.222  0.00  0.00    -0.340 OA
BRANCH  24  27
ATOM     27  C   UNL     1       5.752 -15.071  -1.268  0.00  0.00    +0.023 A 
ATOM     28  C   UNL     1       5.803 -14.993  -2.659  0.00  0.00    +0.013 A 
ATOM     29  C   UNL     1       5.518 -16.108  -3.421  0.00  0.00    +0.016 A 
ATOM     30  C   UNL     1       5.180 -17.301  -2.807  0.00  0.00    +0.018 A 
ATOM     31  C   UNL     1       5.128 -17.384  -1.426  0.00  0.00    +0.016 A 
ATOM     32  C   UNL     1       5.418 -16.277  -0.655  0.00  0.00    +0.013 A 
ATOM     33 BR   UNL     1       4.789 -18.824  -3.857  0.00  0.00    -0.050 Br
ENDBRANCH  24  27
ENDBRANCH  21  22
ENDBRANCH   5  21
TORSDOF 8
