REMARK  Name = ZINC33024668
REMARK  7 active torsions:
REMARK  status: ('A' for Active; 'I' for Inactive)
REMARK    1  A    between atoms: C_1  and  C_2
REMARK    2  A    between atoms: C_5  and  N_9
REMARK    3  A    between atoms: C_7  and  C_8
REMARK    4  A    between atoms: C_10  and  C_12
REMARK    5  A    between atoms: C_18  and  C_20
REMARK    6  A    between atoms: C_23  and  C_25
REMARK    7  A    between atoms: N_27  and  C_28
REMARK                            x       y       z     vdW  Elec       q    Type
REMARK                         _______ _______ _______ _____ _____    ______ ____
ROOT
ATOM      1  C   UNL     1      -4.597  -0.096   0.878  0.00  0.00    +0.078 C 
ATOM      2  C   UNL     1      -4.229  -1.581   0.854  0.00  0.00    +0.032 C 
ATOM      3  C   UNL     1      -3.171  -1.823  -0.227  0.00  0.00    +0.109 C 
ATOM      4  N   UNL     1      -2.034  -0.924   0.015  0.00  0.00    -0.296 N 
ATOM      5  C   UNL     1      -2.289   0.516   0.152  0.00  0.00    +0.109 C 
ATOM      6  C   UNL     1      -3.357   0.733   1.222  0.00  0.00    +0.032 C 
ATOM      7  C   UNL     1      -0.782  -1.412   0.115  0.00  0.00    +0.274 C 
ATOM      8  O   UNL     1       0.161  -0.651   0.209  0.00  0.00    -0.268 OA
ENDROOT
BRANCH   7   9
ATOM      9  C   UNL     1      -0.555  -2.872   0.111  0.00  0.00    +0.187 A 
ATOM     10  N   UNL     1      -1.441  -3.864   0.119  0.00  0.00    -0.136 NA
ATOM     11  N   UNL     1      -1.052  -5.066   0.112  0.00  0.00    -0.136 NA
ATOM     12  C   UNL     1       0.248  -5.350   0.098  0.00  0.00    +0.187 A 
ATOM     13  S   UNL     1       0.940  -3.756   0.093  0.00  0.00    -0.036 S 
BRANCH  12  14
ATOM     14  C   UNL     1       0.920  -6.664   0.088  0.00  0.00    +0.275 C 
ATOM     15  O   UNL     1       2.135  -6.725   0.074  0.00  0.00    -0.268 OA
ATOM     16  N   UNL     1       0.188  -7.795   0.094  0.00  0.00    -0.280 N 
ATOM     17  H   UNL     1      -0.908  -7.742   0.017  0.00  0.00    +0.155 HD
BRANCH  16  18
ATOM     18  C   UNL     1       0.823  -9.039   0.197  0.00  0.00    +0.037 A 
ATOM     19  C   UNL     1       0.302 -10.142  -0.467  0.00  0.00    +0.027 A 
ATOM     20  C   UNL     1       0.930 -11.368  -0.370  0.00  0.00    +0.051 A 
ATOM     21  C   UNL     1       2.074 -11.505   0.399  0.00  0.00    +0.166 A 
ATOM     22  C   UNL     1       2.596 -10.402   1.071  0.00  0.00    +0.168 A 
ATOM     23  C   UNL     1       1.969  -9.171   0.969  0.00  0.00    +0.072 A 
ATOM     24  O   UNL     1       3.713 -10.793   1.751  0.00  0.00    -0.453 OA
ATOM     25  C   UNL     1       3.638 -12.229   1.820  0.00  0.00    +0.466 C 
ATOM     26  O   UNL     1       2.866 -12.587   0.658  0.00  0.00    -0.453 OA
ENDBRANCH  16  18
ENDBRANCH  12  14
ENDBRANCH   7   9
BRANCH   1  28
ATOM     27  N   UNL     1      -6.146   1.383   2.116  0.00  0.00    -0.285 N 
ATOM     28  C   UNL     1      -5.663   0.140   1.917  0.00  0.00    +0.220 C 
ATOM     29  O   UNL     1      -6.087  -0.787   2.572  0.00  0.00    -0.275 OA
ATOM     30  H   UNL     1      -5.827   2.208   1.463  0.00  0.00    +0.155 HD
BRANCH  27  35
ATOM     31  C   UNL     1      -9.822   2.355   6.327  0.00  0.00    +0.044 C 
ATOM     32  C   UNL     1      -8.845   2.097   5.208  0.00  0.00    -0.047 A 
ATOM     33  C   UNL     1      -7.840   1.162   5.372  0.00  0.00    +0.005 A 
ATOM     34  C   UNL     1      -6.943   0.923   4.350  0.00  0.00    +0.023 A 
ATOM     35  C   UNL     1      -7.052   1.623   3.155  0.00  0.00    +0.034 A 
ATOM     36  C   UNL     1      -8.060   2.565   2.995  0.00  0.00    +0.027 A 
ATOM     37  C   UNL     1      -8.957   2.795   4.020  0.00  0.00    -0.046 A 
ATOM     38  C   UNL     1     -10.054   3.813   3.845  0.00  0.00    +0.044 C 
ENDBRANCH  27  35
ENDBRANCH   1  28
TORSDOF 5
