REMARK  Name = ZINC02764155
REMARK  3 active torsions:
REMARK  status: ('A' for Active; 'I' for Inactive)
REMARK    1  A    between atoms: C_1  and  C_2
REMARK    2  A    between atoms: C_5  and  N_8
REMARK    3  A    between atoms: C_18  and  C_22
REMARK                            x       y       z     vdW  Elec       q    Type
REMARK                         _______ _______ _______ _____ _____    ______ ____
ROOT
ATOM      1  N   UNL     1      -0.310  -8.085   2.208  0.00  0.00    -0.269 N 
ATOM      2  C   UNL     1      -0.407  -6.800   1.814  0.00  0.00    +0.310 C 
ATOM      3  O   UNL     1      -1.266  -6.471   1.019  0.00  0.00    -0.252 OA
ATOM      4  N   UNL     1       0.448  -5.879   2.301  0.00  0.00    -0.248 N 
ATOM      5  C   UNL     1       0.348  -4.553   1.895  0.00  0.00    +0.166 A 
ATOM      6  N   UNL     1      -0.504  -4.008   1.052  0.00  0.00    -0.229 NA
ATOM      7  C   UNL     1      -0.479  -2.710   0.757  0.00  0.00    +0.054 A 
ATOM      8  C   UNL     1       0.482  -1.978   1.378  0.00  0.00    +0.015 A 
ATOM      9  S   UNL     1       1.316  -3.189   2.368  0.00  0.00    -0.057 S 
ATOM     10  C   UNL     1       0.749  -0.517   1.243  0.00  0.00    +0.047 C 
ATOM     11  C   UNL     1      -0.002  -0.003   0.004  0.00  0.00    -0.009 C 
ATOM     12  C   UNL     1      -1.438  -0.534   0.045  0.00  0.00    +0.010 C 
ATOM     13  C   UNL     1      -1.448  -2.042  -0.211  0.00  0.00    +0.056 C 
ATOM     14  C   UNL     1      -0.021   1.527   0.014  0.00  0.00    +0.008 C 
ATOM     15  H   UNL     1       0.416  -8.360   2.790  0.00  0.00    +0.156 HD
ATOM     16  H   UNL     1       1.134  -6.141   2.936  0.00  0.00    +0.158 HD
ENDROOT
BRANCH   1  21
ATOM     17  C   UNL     1      -4.144 -11.885   0.466  0.00  0.00    +0.044 C 
ATOM     18  C   UNL     1      -3.126 -10.876   0.929  0.00  0.00    -0.050 A 
ATOM     19  C   UNL     1      -2.736  -9.852   0.085  0.00  0.00    +0.005 A 
ATOM     20  C   UNL     1      -1.802  -8.925   0.506  0.00  0.00    +0.023 A 
ATOM     21  C   UNL     1      -1.256  -9.022   1.779  0.00  0.00    +0.035 A 
ATOM     22  C   UNL     1      -1.646 -10.053   2.623  0.00  0.00    +0.023 A 
ATOM     23  C   UNL     1      -2.583 -10.975   2.197  0.00  0.00    +0.005 A 
ENDBRANCH   1  21
TORSDOF 1
