REMARK  Name = ZINC38597341
REMARK  11 active torsions:
REMARK  status: ('A' for Active; 'I' for Inactive)
REMARK    1  A    between atoms: C_1  and  C_2
REMARK    2  A    between atoms: C_2  and  O_3
REMARK    3  A    between atoms: O_3  and  C_4
REMARK    4  A    between atoms: C_9  and  N_10
REMARK    5  A    between atoms: N_13  and  C_14
REMARK    6  A    between atoms: C_14  and  C_16
REMARK    7  A    between atoms: C_14  and  C_17
REMARK    8  A    between atoms: C_17  and  C_19
REMARK    9  A    between atoms: C_17  and  N_24
REMARK   10  A    between atoms: N_27  and  C_30
REMARK   11  A    between atoms: C_30  and  C_31
REMARK                            x       y       z     vdW  Elec       q    Type
REMARK                         _______ _______ _______ _____ _____    ______ ____
ROOT
ATOM      1  C   UNL     1      -8.491  -0.871  -0.938  0.00  0.00    +0.113 C 
ENDROOT
BRANCH   1   2
ATOM      2  N   UNL     1      -9.861  -1.399  -0.932  0.00  0.00    -0.297 NA
ATOM      3  C   UNL     1      -9.918  -2.723  -1.568  0.00  0.00    +0.066 C 
ATOM      4  C   UNL     1     -11.347  -3.263  -1.489  0.00  0.00    -0.063 C 
ATOM      5  N   UNL     1     -12.260  -2.334  -2.168  0.00  0.00    +0.384 N 
ATOM      6  C   UNL     1     -12.211  -1.024  -1.507  0.00  0.00    -0.063 C 
ATOM      7  C   UNL     1     -10.788  -0.465  -1.587  0.00  0.00    +0.066 C 
ATOM      8  H   UNL     1     -11.981  -2.235  -3.133  0.00  0.00    -0.081 HD
BRANCH   5   9
ATOM      9  C   UNL     1     -13.630  -2.862  -2.108  0.00  0.00    -0.043 C 
BRANCH   9  10
ATOM     10  C   UNL     1     -14.546  -1.974  -2.909  0.00  0.00    -0.064 A 
ATOM     11  C   UNL     1     -15.174  -0.902  -2.303  0.00  0.00    +0.002 A 
ATOM     12  C   UNL     1     -16.015  -0.087  -3.038  0.00  0.00    +0.000 A 
ATOM     13  C   UNL     1     -16.227  -0.345  -4.380  0.00  0.00    +0.000 A 
ATOM     14  C   UNL     1     -15.599  -1.417  -4.986  0.00  0.00    +0.000 A 
ATOM     15  C   UNL     1     -14.755  -2.229  -4.252  0.00  0.00    +0.002 A 
ENDBRANCH   9  10
ENDBRANCH   5   9
ENDBRANCH   1   2
BRANCH   1  16
ATOM     16  C   UNL     1      -8.455   0.443  -0.199  0.00  0.00    +0.009 A 
ATOM     17  C   UNL     1      -7.777   1.576  -0.504  0.00  0.00    +0.013 A 
ATOM     18  C   UNL     1      -7.897   2.673   0.328  0.00  0.00    +0.008 A 
ATOM     19  C   UNL     1      -8.688   2.583   1.424  0.00  0.00    +0.045 A 
ATOM     20  S   UNL     1      -9.302   0.912   1.301  0.00  0.00    -0.100 S 
ENDBRANCH   1  16
BRANCH   1  21
ATOM     21  C   UNL     1      -7.556  -1.868  -0.249  0.00  0.00    +0.093 C 
ATOM     22  C   UNL     1      -8.085  -2.178   1.153  0.00  0.00    +0.030 C 
BRANCH  21  26
ATOM     23  N   UNL     1      -3.903  -1.565   0.031  0.00  0.00    -0.266 N 
ATOM     24  C   UNL     1      -5.138  -2.097  -0.062  0.00  0.00    +0.304 C 
ATOM     25  O   UNL     1      -5.281  -3.304  -0.067  0.00  0.00    -0.252 OA
ATOM     26  N   UNL     1      -6.214  -1.290  -0.149  0.00  0.00    -0.295 N 
ATOM     27  H   UNL     1      -3.793  -0.606   0.118  0.00  0.00    +0.156 HD
ATOM     28  H   UNL     1      -6.100  -0.327  -0.144  0.00  0.00    +0.151 HD
BRANCH  23  34
ATOM     29  C   UNL     1      -1.583  -1.982   0.585  0.00  0.00    +0.142 A 
ATOM     30  C   UNL     1      -0.475  -2.813   0.559  0.00  0.00    +0.047 A 
ATOM     31  C   UNL     1      -0.553  -4.051  -0.050  0.00  0.00    +0.004 A 
ATOM     32  C   UNL     1      -1.737  -4.464  -0.635  0.00  0.00    +0.002 A 
ATOM     33  C   UNL     1      -2.847  -3.641  -0.612  0.00  0.00    +0.027 A 
ATOM     34  C   UNL     1      -2.777  -2.400   0.002  0.00  0.00    +0.077 A 
BRANCH  29  35
ATOM     35  O   UNL     1      -1.507  -0.763   1.184  0.00  0.00    -0.490 OA
BRANCH  35  37
ATOM     36  C   UNL     1      -0.358   0.993   2.382  0.00  0.00    +0.048 C 
ATOM     37  C   UNL     1      -0.251  -0.401   1.761  0.00  0.00    +0.226 C 
ENDBRANCH  35  37
ENDBRANCH  29  35
ENDBRANCH  23  34
ENDBRANCH  21  26
ENDBRANCH   1  21
TORSDOF 9
