REMARK  Name = ZINC13250946
REMARK  12 active torsions:
REMARK  status: ('A' for Active; 'I' for Inactive)
REMARK    1  A    between atoms: C_1  and  C_2
REMARK    2  A    between atoms: C_2  and  C_3
REMARK    3  A    between atoms: C_3  and  C_5
REMARK    4  A    between atoms: C_3  and  N_6
REMARK    5  A    between atoms: N_6  and  C_7
REMARK    6  A    between atoms: N_6  and  S_21
REMARK    7  A    between atoms: C_7  and  C_8
REMARK    8  A    between atoms: N_10  and  C_11
REMARK    9  A    between atoms: C_16  and  C_17
REMARK   10  A    between atoms: S_21  and  C_24
REMARK   11  A    between atoms: C_27  and  C_30
REMARK   12  A    between atoms: C_31  and  C_32
REMARK                            x       y       z     vdW  Elec       q    Type
REMARK                         _______ _______ _______ _____ _____    ______ ____
ROOT
ATOM      1  N   UNL     1      -5.825  -1.054  -0.042  0.00  0.00    -0.165 NA
ENDROOT
BRANCH   1   2
ATOM      2  S   UNL     1      -5.914  -1.930  -1.444  0.00  0.00    +0.062 S 
ATOM      3  O   UNL     1      -7.146  -2.638  -1.404  0.00  0.00    -0.153 OA
ATOM      4  O   UNL     1      -5.582  -1.039  -2.501  0.00  0.00    -0.153 OA
BRANCH   2   5
ATOM      5  C   UNL     1      -4.635  -3.140  -1.385  0.00  0.00    +0.106 A 
ATOM      6  C   UNL     1      -3.344  -2.795  -1.744  0.00  0.00    +0.029 A 
ATOM      7  C   UNL     1      -2.336  -3.735  -1.695  0.00  0.00    +0.010 A 
ATOM      8  C   UNL     1      -2.624  -5.043  -1.292  0.00  0.00    -0.025 A 
ATOM      9  C   UNL     1      -3.933  -5.385  -0.937  0.00  0.00    +0.010 A 
ATOM     10  C   UNL     1      -4.928  -4.433  -0.986  0.00  0.00    +0.029 A 
BRANCH   8  11
ATOM     11  C   UNL     1      -1.556  -6.054  -1.243  0.00  0.00    +0.015 C 
ATOM     12  C   UNL     1      -0.295  -5.721  -1.587  0.00  0.00    +0.096 C 
BRANCH  12  13
ATOM     13  C   UNL     1       0.766  -6.725  -1.538  0.00  0.00    +0.380 C 
ATOM     14  O   UNL     1       0.512  -7.862  -1.187  0.00  0.00    -0.241 OA
ATOM     15  O   UNL     1       2.028  -6.391  -1.881  0.00  0.00    -0.241 OA
ENDBRANCH  12  13
ENDBRANCH   8  11
ENDBRANCH   2   5
ENDBRANCH   1   2
BRANCH   1  16
ATOM     16  C   UNL     1      -6.684  -1.400   1.093  0.00  0.00    +0.077 C 
ATOM     17  C   UNL     1      -6.539  -2.890   1.408  0.00  0.00    +0.026 C 
BRANCH  16  19
ATOM     18  C   UNL     1      -8.277   0.386   0.377  0.00  0.00    +0.005 C 
ATOM     19  C   UNL     1      -8.141  -1.093   0.742  0.00  0.00    +0.017 C 
ENDBRANCH  16  19
ENDBRANCH   1  16
BRANCH   1  20
ATOM     20  C   UNL     1      -4.887   0.066   0.065  0.00  0.00    +0.205 C 
BRANCH  20  21
ATOM     21  C   UNL     1      -3.613  -0.406   0.719  0.00  0.00    +0.233 C 
ATOM     22  O   UNL     1      -3.465  -1.581   0.981  0.00  0.00    -0.274 OA
ATOM     23  N   UNL     1      -2.639   0.478   1.012  0.00  0.00    -0.284 N 
ATOM     24  H   UNL     1      -2.791   1.428   0.885  0.00  0.00    +0.155 HD
BRANCH  23  25
ATOM     25  C   UNL     1      -1.408   0.026   1.500  0.00  0.00    +0.045 A 
ATOM     26  C   UNL     1      -1.027  -1.296   1.309  0.00  0.00    +0.024 A 
ATOM     27  C   UNL     1       0.189  -1.739   1.792  0.00  0.00    +0.002 A 
ATOM     28  C   UNL     1       1.026  -0.868   2.466  0.00  0.00    +0.001 A 
ATOM     29  C   UNL     1       0.651   0.450   2.653  0.00  0.00    +0.014 A 
ATOM     30  C   UNL     1      -0.566   0.898   2.177  0.00  0.00    +0.076 A 
BRANCH  30  31
ATOM     31  C   UNL     1      -0.976   2.333   2.387  0.00  0.00    +0.419 C 
ATOM     32  F   UNL     1       0.029   3.007   3.089  0.00  0.00    -0.166 F 
ATOM     33  F   UNL     1      -1.171   2.948   1.146  0.00  0.00    -0.166 F 
ATOM     34  F   UNL     1      -2.166   2.375   3.122  0.00  0.00    -0.166 F 
ENDBRANCH  30  31
ENDBRANCH  23  25
ENDBRANCH  20  21
ENDBRANCH   1  20
TORSDOF 10
