REMARK  Name = ZINC11069857
REMARK  5 active torsions:
REMARK  status: ('A' for Active; 'I' for Inactive)
REMARK    1  A    between atoms: C_10  and  S_19
REMARK    2  A    between atoms: N_11  and  C_14
REMARK    3  A    between atoms: S_19  and  C_20
REMARK    4  A    between atoms: C_20  and  C_21
REMARK    5  A    between atoms: N_26  and  C_27
REMARK                            x       y       z     vdW  Elec       q    Type
REMARK                         _______ _______ _______ _____ _____    ______ ____
ROOT
ATOM      1  C   UNL     1       2.105 -10.938   1.040  0.00  0.00    +0.005 C 
ATOM      2  C   UNL     1       0.881 -11.281   0.186  0.00  0.00    +0.005 C 
ATOM      3  C   UNL     1      -0.177 -10.185   0.378  0.00  0.00    +0.043 C 
ATOM      4  C   UNL     1       0.493  -8.852   0.238  0.00  0.00    -0.004 A 
ATOM      5  C   UNL     1       1.817  -8.596   0.264  0.00  0.00    -0.023 A 
ATOM      6  C   UNL     1       2.227  -7.199   0.106  0.00  0.00    +0.076 A 
ATOM      7  C   UNL     1       1.187  -6.269  -0.058  0.00  0.00    +0.117 A 
ATOM      8  S   UNL     1      -0.277  -7.272   0.005  0.00  0.00    -0.073 S 
ATOM      9  N   UNL     1       1.418  -4.971  -0.210  0.00  0.00    -0.216 NA
ATOM     10  C   UNL     1       2.649  -4.500  -0.215  0.00  0.00    +0.173 A 
ATOM     11  N   UNL     1       3.719  -5.335  -0.068  0.00  0.00    -0.284 N 
ATOM     12  C   UNL     1       3.552  -6.661   0.096  0.00  0.00    +0.263 A 
ATOM     13  O   UNL     1       4.518  -7.393   0.231  0.00  0.00    -0.267 OA
ATOM     14  C   UNL     1       2.826  -9.726   0.452  0.00  0.00    +0.037 C 
ENDROOT
BRANCH  11  15
ATOM     15  C   UNL     1       5.073  -4.777  -0.084  0.00  0.00    +0.093 C 
ATOM     16  C   UNL     1       5.883  -5.390  -1.245  0.00  0.00    +0.025 C 
ATOM     17  C   UNL     1       7.313  -5.548  -0.667  0.00  0.00    +0.002 C 
ATOM     18  C   UNL     1       7.045  -5.976   0.797  0.00  0.00    +0.002 C 
ATOM     19  C   UNL     1       5.812  -5.150   1.214  0.00  0.00    +0.025 C 
ENDBRANCH  11  15
BRANCH  10  20
ATOM     20  S   UNL     1       2.918  -2.771  -0.420  0.00  0.00    -0.078 S 
BRANCH  20  21
ATOM     21  C   UNL     1       1.206  -2.202  -0.568  0.00  0.00    +0.173 C 
BRANCH  21  22
ATOM     22  C   UNL     1       1.188  -0.707  -0.757  0.00  0.00    +0.231 C 
ATOM     23  O   UNL     1       2.230  -0.088  -0.789  0.00  0.00    -0.274 OA
ATOM     24  N   UNL     1       0.014  -0.059  -0.891  0.00  0.00    -0.239 N 
ATOM     25  C   UNL     1      -0.002   1.278  -1.060  0.00  0.00    +0.306 C 
ATOM     26  O   UNL     1       1.042   1.899  -1.091  0.00  0.00    -0.252 OA
ATOM     27  N   UNL     1      -1.176   1.926  -1.199  0.00  0.00    -0.296 N 
ATOM     28  H   UNL     1      -0.819  -0.555  -0.866  0.00  0.00    +0.159 HD
ATOM     29  H   UNL     1      -2.009   1.429  -1.178  0.00  0.00    +0.151 HD
BRANCH  27  30
ATOM     30  C   UNL     1      -1.193   3.379  -1.383  0.00  0.00    +0.075 C 
ATOM     31  C   UNL     1      -2.226   4.179  -0.588  0.00  0.00    +0.024 C 
ATOM     32  C   UNL     1      -2.403   3.986  -2.096  0.00  0.00    +0.024 C 
ENDBRANCH  27  30
ENDBRANCH  21  22
ENDBRANCH  20  21
ENDBRANCH  10  20
TORSDOF 5
