REMARK  Name = ZINC39634496
REMARK  10 active torsions:
REMARK  status: ('A' for Active; 'I' for Inactive)
REMARK    1  A    between atoms: C_1  and  O_2
REMARK    2  A    between atoms: O_2  and  C_3
REMARK    3  A    between atoms: C_6  and  C_11
REMARK    4  A    between atoms: C_8  and  O_9
REMARK    5  A    between atoms: O_9  and  C_10
REMARK    6  A    between atoms: C_11  and  C_12
REMARK    7  A    between atoms: C_12  and  N_13
REMARK    8  A    between atoms: C_14  and  C_16
REMARK    9  A    between atoms: C_27  and  C_29
REMARK   10  A    between atoms: C_32  and  C_35
REMARK                            x       y       z     vdW  Elec       q    Type
REMARK                         _______ _______ _______ _____ _____    ______ ____
ROOT
ATOM      1  C   UNL     1       2.767  -4.765   9.173  0.00  0.00    +0.100 C 
ATOM      2  C   UNL     1       3.760  -3.631   9.510  0.00  0.00    +0.121 C 
ATOM      3  N   UNL     1       3.102  -2.866  10.595  0.00  0.00    -0.296 N 
ATOM      4  C   UNL     1       2.469  -3.903  11.445  0.00  0.00    +0.115 C 
ATOM      5  C   UNL     1       1.923  -4.943  10.447  0.00  0.00    -0.004 C 
ATOM      6  C   UNL     1       0.453  -4.666  10.150  0.00  0.00    -0.010 C 
ATOM      7  C   UNL     1      -0.373  -4.905  11.417  0.00  0.00    -0.082 C 
ATOM      8  N   UNL     1      -0.196  -6.291  11.865  0.00  0.00    +0.379 N 
ATOM      9  C   UNL     1       1.206  -6.523  12.237  0.00  0.00    -0.082 C 
ATOM     10  C   UNL     1       2.098  -6.353  11.004  0.00  0.00    -0.010 C 
ATOM     11  C   UNL     1       3.082  -1.530  10.770  0.00  0.00    +0.247 C 
ATOM     12  O   UNL     1       3.543  -0.799   9.915  0.00  0.00    -0.270 OA
ATOM     13  H   UNL     1      -0.787  -6.463  12.664  0.00  0.00    -0.086 HD
ATOM     14  H   UNL     1      -0.452  -6.920  11.118  0.00  0.00    -0.086 HD
ENDROOT
BRANCH  11  15
ATOM     15  C   UNL     1       2.501  -0.954  12.001  0.00  0.00    +0.037 A 
ATOM     16  C   UNL     1       2.372  -1.738  13.149  0.00  0.00    +0.013 A 
ATOM     17  C   UNL     1       1.830  -1.194  14.294  0.00  0.00    +0.013 A 
ATOM     18  C   UNL     1       1.413   0.126  14.307  0.00  0.00    +0.055 A 
ATOM     19  C   UNL     1       1.537   0.908  13.173  0.00  0.00    +0.013 A 
ATOM     20  C   UNL     1       2.084   0.378  12.023  0.00  0.00    +0.013 A 
BRANCH  18  21
ATOM     21  C   UNL     1       0.820   0.713  15.562  0.00  0.00    +0.417 C 
ATOM     22  F   UNL     1       1.839   1.271  16.342  0.00  0.00    -0.166 F 
ATOM     23  F   UNL     1      -0.103   1.707  15.221  0.00  0.00    -0.166 F 
ATOM     24  F   UNL     1       0.175  -0.294  16.289  0.00  0.00    -0.166 F 
ENDBRANCH  18  21
ENDBRANCH  11  15
BRANCH   1  26
ATOM     25  N   UNL     1       1.305  -5.314   7.255  0.00  0.00    -0.315 N 
ATOM     26  C   UNL     1       1.889  -4.367   8.014  0.00  0.00    +0.218 C 
ATOM     27  O   UNL     1       1.709  -3.193   7.765  0.00  0.00    -0.275 OA
ATOM     28  H   UNL     1       1.449  -6.253   7.454  0.00  0.00    +0.149 HD
BRANCH  25  29
ATOM     29  C   UNL     1       0.452  -4.927   6.128  0.00  0.00    +0.109 C 
BRANCH  29  30
ATOM     30  C   UNL     1      -0.083  -6.183   5.438  0.00  0.00    +0.054 C 
BRANCH  30  34
ATOM     31  C   UNL     1      -2.567  -5.053   2.146  0.00  0.00    +0.161 A 
ATOM     32  C   UNL     1      -1.208  -5.245   1.958  0.00  0.00    +0.049 A 
ATOM     33  C   UNL     1      -0.407  -5.610   3.024  0.00  0.00    +0.007 A 
ATOM     34  C   UNL     1      -0.960  -5.785   4.279  0.00  0.00    -0.042 A 
ATOM     35  C   UNL     1      -2.316  -5.596   4.473  0.00  0.00    +0.053 A 
ATOM     36  C   UNL     1      -3.123  -5.224   3.410  0.00  0.00    +0.162 A 
BRANCH  31  38
ATOM     37  C   UNL     1      -2.718  -4.537  -0.171  0.00  0.00    +0.277 C 
ATOM     38  O   UNL     1      -3.356  -4.694   1.098  0.00  0.00    -0.491 OA
ENDBRANCH  31  38
BRANCH  36  39
ATOM     39  O   UNL     1      -4.455  -5.031   3.601  0.00  0.00    -0.491 OA
ATOM     40  C   UNL     1      -4.955  -5.224   4.926  0.00  0.00    +0.277 C 
ENDBRANCH  36  39
ENDBRANCH  30  34
ENDBRANCH  29  30
ENDBRANCH  25  29
ENDBRANCH   1  26
TORSDOF 8
