REMARK  Name = ZINC17448316
REMARK  6 active torsions:
REMARK  status: ('A' for Active; 'I' for Inactive)
REMARK    1  A    between atoms: C_1  and  C_2
REMARK    2  A    between atoms: C_10  and  C_11
REMARK    3  A    between atoms: N_13  and  N_14
REMARK    4  A    between atoms: C_15  and  C_17
REMARK    5  A    between atoms: N_20  and  S_23
REMARK    6  A    between atoms: S_23  and  C_26
REMARK                            x       y       z     vdW  Elec       q    Type
REMARK                         _______ _______ _______ _____ _____    ______ ____
ROOT
ATOM      1  C   UNL     1      -5.606   7.056   0.089  0.00  0.00    +0.079 C 
ATOM      2  C   UNL     1      -5.270   7.874   1.338  0.00  0.00    +0.030 C 
ATOM      3  C   UNL     1      -6.086   9.170   1.331  0.00  0.00    +0.110 C 
ATOM      4  N   UNL     1      -7.510   8.831   1.196  0.00  0.00    -0.177 NA
ATOM      5  C   UNL     1      -7.930   7.974   0.080  0.00  0.00    +0.110 C 
ATOM      6  C   UNL     1      -7.092   6.691   0.101  0.00  0.00    +0.030 C 
ENDROOT
BRANCH   1   8
ATOM      7  N   UNL     1      -3.434   5.873   0.063  0.00  0.00    -0.234 N 
ATOM      8  C   UNL     1      -4.780   5.796   0.075  0.00  0.00    +0.232 C 
ATOM      9  O   UNL     1      -5.325   4.713   0.076  0.00  0.00    -0.274 OA
ATOM     10  H   UNL     1      -2.998   6.740   0.063  0.00  0.00    +0.173 HD
BRANCH   7  13
ATOM     11  C   UNL     1      -1.320   4.779   0.038  0.00  0.00    +0.296 C 
ATOM     12  O   UNL     1      -0.773   5.866   0.038  0.00  0.00    -0.265 OA
ATOM     13  N   UNL     1      -2.666   4.702   0.051  0.00  0.00    -0.228 N 
ATOM     14  H   UNL     1      -3.102   3.836   0.051  0.00  0.00    +0.173 HD
BRANCH  11  24
ATOM     15  C   UNL     1       1.788   4.680   0.009  0.00  0.00    +0.048 C 
ATOM     16  C   UNL     1       0.844   3.506   0.012  0.00  0.00    +0.008 A 
ATOM     17  C   UNL     1       1.203   2.088   0.002  0.00  0.00    +0.024 A 
ATOM     18  C   UNL     1       2.413   1.391  -0.015  0.00  0.00    +0.012 A 
ATOM     19  C   UNL     1       2.406   0.024  -0.021  0.00  0.00    +0.001 A 
ATOM     20  C   UNL     1       1.206  -0.674  -0.013  0.00  0.00    +0.004 A 
ATOM     21  C   UNL     1       0.002  -0.004   0.002  0.00  0.00    +0.047 A 
ATOM     22  C   UNL     1      -0.017   1.386   0.010  0.00  0.00    +0.136 A 
ATOM     23  O   UNL     1      -1.011   2.296   0.019  0.00  0.00    -0.450 OA
ATOM     24  C   UNL     1      -0.514   3.550   0.025  0.00  0.00    +0.195 A 
ENDBRANCH  11  24
ENDBRANCH   7  13
ENDBRANCH   1   8
BRANCH   4  25
ATOM     25  S   UNL     1      -8.620   9.405   2.283  0.00  0.00    +0.061 S 
ATOM     26  O   UNL     1      -8.061  10.581   2.852  0.00  0.00    -0.153 OA
ATOM     27  O   UNL     1      -9.876   9.402   1.620  0.00  0.00    -0.153 OA
BRANCH  25  28
ATOM     28  C   UNL     1      -8.734   8.222   3.584  0.00  0.00    +0.106 A 
ATOM     29  C   UNL     1      -9.667   7.190   3.494  0.00  0.00    +0.029 A 
ATOM     30  C   UNL     1      -9.778   6.257   4.478  0.00  0.00    +0.010 A 
ATOM     31  C   UNL     1      -8.948   6.339   5.610  0.00  0.00    -0.018 A 
ATOM     32  C   UNL     1      -9.038   5.397   6.649  0.00  0.00    +0.008 A 
ATOM     33  C   UNL     1      -8.218   5.508   7.730  0.00  0.00    +0.001 A 
ATOM     34  C   UNL     1      -7.289   6.542   7.823  0.00  0.00    +0.001 A 
ATOM     35  C   UNL     1      -7.174   7.472   6.836  0.00  0.00    +0.008 A 
ATOM     36  C   UNL     1      -8.004   7.391   5.704  0.00  0.00    -0.016 A 
ATOM     37  C   UNL     1      -7.915   8.332   4.665  0.00  0.00    +0.037 A 
ENDBRANCH  25  28
ENDBRANCH   4  25
TORSDOF 5
