REMARK  Name = ZINC61818972
REMARK  7 active torsions:
REMARK  status: ('A' for Active; 'I' for Inactive)
REMARK    1  A    between atoms: C_1  and  C_2
REMARK    2  A    between atoms: C_4  and  N_20
REMARK    3  A    between atoms: C_5  and  S_9
REMARK    4  A    between atoms: C_7  and  C_8
REMARK    5  A    between atoms: S_9  and  N_12
REMARK    6  A    between atoms: C_15  and  C_18
REMARK    7  A    between atoms: C_15  and  C_19
REMARK                            x       y       z     vdW  Elec       q    Type
REMARK                         _______ _______ _______ _____ _____    ______ ____
ROOT
ATOM      1  C   UNL     1       0.989   1.389  -0.697  0.00  0.00    +0.044 C 
ATOM      2  C   UNL     1       0.632  -0.075  -0.648  0.00  0.00    -0.046 A 
ATOM      3  C   UNL     1      -0.403  -0.505   0.159  0.00  0.00    +0.028 A 
ATOM      4  C   UNL     1      -0.732  -1.854   0.203  0.00  0.00    +0.051 A 
ATOM      5  C   UNL     1      -0.019  -2.765  -0.565  0.00  0.00    +0.126 A 
ATOM      6  C   UNL     1       1.015  -2.328  -1.370  0.00  0.00    +0.034 A 
ATOM      7  C   UNL     1       1.337  -0.984  -1.415  0.00  0.00    -0.046 A 
ATOM      8  C   UNL     1       2.461  -0.509  -2.299  0.00  0.00    +0.044 C 
ENDROOT
BRANCH   5   9
ATOM      9  S   UNL     1      -0.431  -4.478  -0.513  0.00  0.00    +0.063 S 
ATOM     10  O   UNL     1       0.468  -5.139  -1.392  0.00  0.00    -0.153 OA
ATOM     11  O   UNL     1      -0.549  -4.825   0.860  0.00  0.00    -0.153 OA
BRANCH   9  12
ATOM     12  N   UNL     1      -1.942  -4.637  -1.172  0.00  0.00    -0.176 NA
ATOM     13  C   UNL     1      -3.131  -4.705  -0.312  0.00  0.00    +0.110 C 
ATOM     14  C   UNL     1      -4.132  -3.639  -0.769  0.00  0.00    +0.023 C 
ATOM     15  C   UNL     1      -4.423  -3.824  -2.260  0.00  0.00    -0.032 C 
ATOM     16  C   UNL     1      -3.131  -3.647  -3.060  0.00  0.00    +0.023 C 
ATOM     17  C   UNL     1      -2.119  -4.708  -2.629  0.00  0.00    +0.110 C 
ATOM     18  C   UNL     1      -4.983  -5.228  -2.499  0.00  0.00    +0.011 C 
ATOM     19  C   UNL     1      -5.449  -2.782  -2.712  0.00  0.00    +0.011 C 
ENDBRANCH   9  12
ENDBRANCH   5   9
BRANCH   4  20
ATOM     20  N   UNL     1      -1.778  -2.293   1.018  0.00  0.00    -0.356 N 
ATOM     21  H   UNL     1      -2.358  -1.648   1.452  0.00  0.00    +0.142 HD
ATOM     22  H   UNL     1      -1.924  -3.243   1.150  0.00  0.00    +0.142 HD
ENDBRANCH   4  20
TORSDOF 3
