REMARK  Name = ZINC23011588
REMARK  4 active torsions:
REMARK  status: ('A' for Active; 'I' for Inactive)
REMARK    1  A    between atoms: C_4  and  N_7
REMARK    2  A    between atoms: N_10  and  C_11
REMARK    3  A    between atoms: C_14  and  N_17
REMARK    4  A    between atoms: C_18  and  C_20
REMARK                            x       y       z     vdW  Elec       q    Type
REMARK                         _______ _______ _______ _____ _____    ______ ____
ROOT
ATOM      1  C   UNL     1      -2.459   4.197   0.045  0.00  0.00    +0.035 A 
ATOM      2  C   UNL     1      -3.701   3.581   0.121  0.00  0.00    +0.025 A 
ATOM      3  C   UNL     1      -4.848   4.346   0.183  0.00  0.00    +0.025 A 
ATOM      4  C   UNL     1      -4.761   5.731   0.159  0.00  0.00    +0.034 A 
ATOM      5  C   UNL     1      -3.520   6.348   0.077  0.00  0.00    +0.025 A 
ATOM      6  C   UNL     1      -2.372   5.583   0.020  0.00  0.00    +0.025 A 
ENDROOT
BRANCH   1  10
ATOM      7  N   UNL     1      -0.070   1.562   0.691  0.00  0.00    -0.269 N 
ATOM      8  C   UNL     1      -1.222   2.262   0.670  0.00  0.00    +0.308 C 
ATOM      9  O   UNL     1      -2.196   1.847   1.269  0.00  0.00    -0.252 OA
ATOM     10  N   UNL     1      -1.294   3.421  -0.013  0.00  0.00    -0.269 N 
ATOM     11  H   UNL     1       0.832   1.974   0.214  0.00  0.00    +0.156 HD
ATOM     12  H   UNL     1      -0.438   3.758  -0.617  0.00  0.00    +0.156 HD
BRANCH   7  16
ATOM     13  C   UNL     1       0.074  -2.159   2.559  0.00  0.00    +0.000 A 
ATOM     14  C   UNL     1       0.825  -1.929   1.420  0.00  0.00    +0.002 A 
ATOM     15  C   UNL     1       0.779  -0.697   0.798  0.00  0.00    +0.023 A 
ATOM     16  C   UNL     1      -0.022   0.312   1.318  0.00  0.00    +0.035 A 
ATOM     17  C   UNL     1      -0.770   0.080   2.465  0.00  0.00    +0.023 A 
ATOM     18  C   UNL     1      -0.723  -1.156   3.079  0.00  0.00    +0.002 A 
ENDBRANCH   7  16
ENDBRANCH   1  10
BRANCH   4  19
ATOM     19  N   UNL     1      -5.926   6.507   0.218  0.00  0.00    -0.281 N 
ATOM     20  C   UNL     1      -5.996   7.670  -0.461  0.00  0.00    +0.251 C 
ATOM     21  O   UNL     1      -5.088   7.997  -1.200  0.00  0.00    -0.270 OA
ATOM     22  H   UNL     1      -6.783   6.168   0.818  0.00  0.00    +0.155 HD
BRANCH  20  23
ATOM     23  C   UNL     1      -7.175   8.545  -0.306  0.00  0.00    +0.073 A 
ATOM     24  C   UNL     1      -8.219   8.172   0.543  0.00  0.00    +0.031 A 
ATOM     25  C   UNL     1      -9.318   8.994   0.683  0.00  0.00    +0.019 A 
ATOM     26  C   UNL     1      -9.387  10.189  -0.014  0.00  0.00    +0.018 A 
ATOM     27  C   UNL     1      -8.358  10.566  -0.856  0.00  0.00    +0.040 A 
ATOM     28  C   UNL     1      -7.248   9.754  -1.004  0.00  0.00    +0.136 A 
ATOM     29  F   UNL     1      -6.240  10.127  -1.823  0.00  0.00    -0.205 F 
ATOM     30 BR   UNL     1     -10.732   8.490   1.832  0.00  0.00    -0.050 Br
ENDBRANCH  20  23
ENDBRANCH   4  19
TORSDOF 4
