REMARK  Name = ZINC16293283
REMARK  11 active torsions:
REMARK  status: ('A' for Active; 'I' for Inactive)
REMARK    1  A    between atoms: C_1  and  C_2
REMARK    2  A    between atoms: C_5  and  C_8
REMARK    3  A    between atoms: N_13  and  C_16
REMARK    4  A    between atoms: C_19  and  N_22
REMARK    5  A    between atoms: N_22  and  C_23
REMARK    6  A    between atoms: C_23  and  N_25
REMARK    7  A    between atoms: C_26  and  C_28
REMARK    8  A    between atoms: C_32  and  O_34
REMARK    9  A    between atoms: O_34  and  C_35
REMARK   10  A    between atoms: C_35  and  C_36
REMARK   11  A    between atoms: C_35  and  C_37
REMARK                            x       y       z     vdW  Elec       q    Type
REMARK                         _______ _______ _______ _____ _____    ______ ____
ROOT
ATOM      1  C   UNL     1      -6.692  -0.273   1.667  0.00  0.00    +0.030 A 
ATOM      2  C   UNL     1      -6.171   0.945   2.084  0.00  0.00    +0.025 A 
ATOM      3  C   UNL     1      -4.823   1.062   2.357  0.00  0.00    +0.025 A 
ATOM      4  C   UNL     1      -3.987  -0.038   2.216  0.00  0.00    +0.033 A 
ATOM      5  C   UNL     1      -4.507  -1.254   1.794  0.00  0.00    +0.025 A 
ATOM      6  C   UNL     1      -5.856  -1.373   1.525  0.00  0.00    +0.025 A 
ENDROOT
BRANCH   1  12
ATOM      7  C   UNL     1     -11.774  -1.939   2.019  0.00  0.00    +0.247 C 
ATOM      8  O   UNL     1     -11.991  -3.065   1.614  0.00  0.00    -0.270 OA
ATOM      9  N   UNL     1     -10.700  -1.258   1.573  0.00  0.00    -0.295 N 
ATOM     10  C   UNL     1      -9.852  -1.802   0.502  0.00  0.00    +0.127 C 
ATOM     11  C   UNL     1      -8.393  -1.758   0.967  0.00  0.00    +0.124 C 
ATOM     12  N   UNL     1      -8.058  -0.392   1.391  0.00  0.00    -0.327 N 
ATOM     13  C   UNL     1      -8.867   0.021   2.545  0.00  0.00    +0.124 C 
ATOM     14  C   UNL     1     -10.346   0.050   2.145  0.00  0.00    +0.127 C 
BRANCH   7  19
ATOM     15  C   UNL     1     -15.334   0.480   5.839  0.00  0.00    +0.044 C 
ATOM     16  C   UNL     1     -14.402  -0.153   4.839  0.00  0.00    -0.050 A 
ATOM     17  C   UNL     1     -14.272  -1.530   4.794  0.00  0.00    +0.004 A 
ATOM     18  C   UNL     1     -13.420  -2.117   3.881  0.00  0.00    +0.013 A 
ATOM     19  C   UNL     1     -12.689  -1.318   3.000  0.00  0.00    +0.037 A 
ATOM     20  C   UNL     1     -12.821   0.071   3.053  0.00  0.00    +0.013 A 
ATOM     21  C   UNL     1     -13.680   0.644   3.969  0.00  0.00    +0.004 A 
ENDBRANCH   7  19
ENDBRANCH   1  12
BRANCH   4  22
ATOM     22  N   UNL     1      -2.619   0.082   2.493  0.00  0.00    -0.297 N 
ATOM     23  H   UNL     1      -1.968  -0.354   1.921  0.00  0.00    +0.154 HD
BRANCH  22  24
ATOM     24  C   UNL     1      -2.207   0.801   3.555  0.00  0.00    +0.141 C 
ATOM     25  S   UNL     1      -3.356   1.462   4.640  0.00  0.00    -0.018 S 
BRANCH  24  26
ATOM     26  N   UNL     1      -0.891   1.002   3.764  0.00  0.00    -0.264 N 
ATOM     27  C   UNL     1      -0.478   1.722   4.826  0.00  0.00    +0.250 C 
ATOM     28  O   UNL     1      -1.294   2.191   5.596  0.00  0.00    -0.270 OA
ATOM     29  H   UNL     1      -0.240   0.628   3.149  0.00  0.00    +0.157 HD
BRANCH  27  30
ATOM     30  C   UNL     1       0.965   1.937   5.058  0.00  0.00    +0.041 A 
ATOM     31  C   UNL     1       1.905   1.395   4.178  0.00  0.00    +0.013 A 
ATOM     32  C   UNL     1       3.251   1.601   4.395  0.00  0.00    +0.004 A 
ATOM     33  C   UNL     1       3.675   2.335   5.488  0.00  0.00    +0.046 A 
ATOM     34  C   UNL     1       2.749   2.873   6.371  0.00  0.00    +0.122 A 
ATOM     35  C   UNL     1       1.395   2.677   6.160  0.00  0.00    +0.058 A 
BRANCH  34  36
ATOM     36  O   UNL     1       3.172   3.594   7.443  0.00  0.00    -0.489 OA
BRANCH  36  37
ATOM     37  C   UNL     1       4.584   3.723   7.621  0.00  0.00    +0.167 C 
ATOM     38  C   UNL     1       4.881   4.975   8.450  0.00  0.00    +0.051 C 
ATOM     39  C   UNL     1       5.121   2.490   8.350  0.00  0.00    +0.051 C 
ENDBRANCH  36  37
ENDBRANCH  34  36
ENDBRANCH  27  30
ENDBRANCH  24  26
ENDBRANCH  22  24
ENDBRANCH   4  22
TORSDOF 8
