REMARK  Name = ZINC51168953
REMARK  6 active torsions:
REMARK  status: ('A' for Active; 'I' for Inactive)
REMARK    1  A    between atoms: C_1  and  O_2
REMARK    2  A    between atoms: O_2  and  C_3
REMARK    3  A    between atoms: C_5  and  C_10
REMARK    4  A    between atoms: C_8  and  O_9
REMARK    5  A    between atoms: C_14  and  N_16
REMARK    6  A    between atoms: N_16  and  N_17
REMARK                            x       y       z     vdW  Elec       q    Type
REMARK                         _______ _______ _______ _____ _____    ______ ____
ROOT
ATOM      1  C   UNL     1       2.457   0.309   4.194  0.00  0.00    +0.162 A 
ATOM      2  N   UNL     1       3.064  -0.309   5.195  0.00  0.00    -0.232 NA
ATOM      3  C   UNL     1       3.633   0.374   6.184  0.00  0.00    +0.050 A 
ATOM      4  C   UNL     1       3.588   1.748   6.157  0.00  0.00    +0.015 A 
ATOM      5  C   UNL     1       2.936   2.376   5.088  0.00  0.00    +0.139 A 
ATOM      6  N   UNL     1       2.393   1.632   4.132  0.00  0.00    -0.211 NA
ATOM      7  C   UNL     1       4.215   2.605   7.222  0.00  0.00    +0.040 C 
ATOM      8  C   UNL     1       4.486   1.781   8.480  0.00  0.00    +0.005 C 
ATOM      9  C   UNL     1       5.247   0.513   8.076  0.00  0.00    +0.006 C 
ATOM     10  C   UNL     1       4.299  -0.393   7.294  0.00  0.00    +0.056 C 
ENDROOT
BRANCH   1  13
ATOM     11  C   UNL     1       0.626  -0.619   1.042  0.00  0.00    +0.162 A 
ATOM     12  C   UNL     1       1.200   0.136   2.048  0.00  0.00    +0.061 A 
ATOM     13  C   UNL     1       1.839  -0.497   3.114  0.00  0.00    +0.023 A 
ATOM     14  C   UNL     1       1.897  -1.889   3.161  0.00  0.00    +0.015 A 
ATOM     15  C   UNL     1       1.323  -2.639   2.155  0.00  0.00    +0.050 A 
ATOM     16  C   UNL     1       0.682  -2.010   1.098  0.00  0.00    +0.158 A 
BRANCH  11  18
ATOM     17  C   UNL     1      -0.017   1.425   0.010  0.00  0.00    +0.277 C 
ATOM     18  O   UNL     1       0.002  -0.004   0.002  0.00  0.00    -0.491 OA
ENDBRANCH  11  18
BRANCH  16  19
ATOM     19  O   UNL     1       0.113  -2.751   0.112  0.00  0.00    -0.503 OA
ATOM     20  H   UNL     1       0.709  -2.953  -0.623  0.00  0.00    +0.292 HD
ENDBRANCH  16  19
ENDBRANCH   1  13
BRANCH   5  21
ATOM     21  N   UNL     1       2.863   3.758   5.026  0.00  0.00    -0.267 N 
ATOM     22  H   UNL     1       3.265   4.296   5.725  0.00  0.00    +0.167 HD
BRANCH  21  23
ATOM     23  N   UNL     1       2.225   4.362   3.980  0.00  0.00    -0.255 NA
ATOM     24  H   UNL     1       1.275   4.033   3.897  0.00  0.00    +0.140 HD
ATOM     25  H   UNL     1       2.253   5.367   4.071  0.00  0.00    +0.140 HD
ENDBRANCH  21  23
ENDBRANCH   5  21
TORSDOF 5
