REMARK  Name = ZINC01884936
REMARK  7 active torsions:
REMARK  status: ('A' for Active; 'I' for Inactive)
REMARK    1  A    between atoms: C_1  and  C_2
REMARK    2  A    between atoms: C_5  and  S_8
REMARK    3  A    between atoms: S_8  and  N_11
REMARK    4  A    between atoms: N_11  and  C_12
REMARK    5  A    between atoms: C_12  and  C_30
REMARK    6  A    between atoms: N_18  and  C_23
REMARK    7  A    between atoms: C_23  and  C_24
REMARK                            x       y       z     vdW  Elec       q    Type
REMARK                         _______ _______ _______ _____ _____    ______ ____
ROOT
ATOM      1  C   UNL     1       2.681  -4.595   1.086  0.00  0.00    +0.243 C 
ATOM      2  C   UNL     1       4.133  -4.765   0.706  0.00  0.00    +0.096 A 
ATOM      3  C   UNL     1       4.915  -5.878   0.358  0.00  0.00    +0.284 A 
ATOM      4  N   UNL     1       6.216  -5.704   0.065  0.00  0.00    -0.153 NA
ATOM      5  C   UNL     1       6.754  -4.506   0.102  0.00  0.00    +0.353 A 
ATOM      6  O   UNL     1       8.061  -4.363  -0.198  0.00  0.00    -0.244 OA
ATOM      7  N   UNL     1       6.028  -3.408   0.434  0.00  0.00    -0.272 N 
ATOM      8  C   UNL     1       4.694  -3.524   0.744  0.00  0.00    +0.121 A 
ATOM      9  N   UNL     1       3.765  -2.575   1.105  0.00  0.00    -0.269 N 
ATOM     10  C   UNL     1       2.549  -3.105   1.328  0.00  0.00    +0.254 C 
ATOM     11  O   UNL     1       1.546  -2.509   1.658  0.00  0.00    -0.273 OA
ATOM     12  O   UNL     1       4.419  -6.995   0.323  0.00  0.00    -0.265 OA
ATOM     13  H   UNL     1       3.965  -1.629   1.189  0.00  0.00    +0.156 HD
ENDROOT
BRANCH   1  14
ATOM     14  C   UNL     1       2.359  -5.379   2.360  0.00  0.00    +0.422 C 
ATOM     15  F   UNL     1       2.423  -6.750   2.093  0.00  0.00    -0.168 F 
ATOM     16  F   UNL     1       3.288  -5.054   3.354  0.00  0.00    -0.168 F 
ATOM     17  F   UNL     1       1.072  -5.048   2.798  0.00  0.00    -0.168 F 
ENDBRANCH   1  14
BRANCH   1  18
ATOM     18  N   UNL     1       1.808  -5.019  -0.012  0.00  0.00    -0.162 NA
ATOM     19  H   UNL     1       1.151  -5.718   0.132  0.00  0.00    +0.150 HD
BRANCH  18  20
ATOM     20  S   UNL     1       1.944  -4.304  -1.500  0.00  0.00    +0.060 S 
ATOM     21  O   UNL     1       1.014  -4.960  -2.352  0.00  0.00    -0.153 OA
ATOM     22  O   UNL     1       3.332  -4.239  -1.794  0.00  0.00    -0.153 OA
BRANCH  20  27
ATOM     23  C   UNL     1       0.033   1.391  -0.927  0.00  0.00    +0.044 C 
ATOM     24  C   UNL     1       0.510  -0.032  -1.070  0.00  0.00    -0.050 A 
ATOM     25  C   UNL     1       1.863  -0.314  -1.036  0.00  0.00    +0.005 A 
ATOM     26  C   UNL     1       2.301  -1.618  -1.167  0.00  0.00    +0.029 A 
ATOM     27  C   UNL     1       1.386  -2.641  -1.332  0.00  0.00    +0.105 A 
ATOM     28  C   UNL     1       0.033  -2.359  -1.365  0.00  0.00    +0.029 A 
ATOM     29  C   UNL     1      -0.405  -1.055  -1.229  0.00  0.00    +0.005 A 
ENDBRANCH  20  27
ENDBRANCH  18  20
ENDBRANCH   1  18
BRANCH   7  30
ATOM     30  C   UNL     1       6.670  -2.092   0.462  0.00  0.00    +0.202 C 
BRANCH  30  31
ATOM     31  C   UNL     1       6.556  -1.448  -0.896  0.00  0.00    +0.125 A 
ATOM     32  C   UNL     1       5.552  -0.652  -1.307  0.00  0.00    +0.046 A 
ATOM     33  C   UNL     1       5.848  -0.274  -2.637  0.00  0.00    +0.041 A 
ATOM     34  C   UNL     1       7.014  -0.862  -2.959  0.00  0.00    +0.195 A 
ATOM     35  O   UNL     1       7.441  -1.567  -1.898  0.00  0.00    -0.466 OA
ENDBRANCH  30  31
ENDBRANCH   7  30
TORSDOF 6
