REMARK  Name = ZINC59418524
REMARK  11 active torsions:
REMARK  status: ('A' for Active; 'I' for Inactive)
REMARK    1  A    between atoms: C_1  and  C_2
REMARK    2  A    between atoms: C_2  and  O_3
REMARK    3  A    between atoms: O_3  and  C_4
REMARK    4  A    between atoms: C_4  and  C_6
REMARK    5  A    between atoms: C_7  and  C_37
REMARK    6  A    between atoms: C_14  and  C_15
REMARK    7  A    between atoms: C_17  and  N_22
REMARK    8  A    between atoms: C_26  and  C_28
REMARK    9  A    between atoms: C_31  and  N_34
REMARK   10  A    between atoms: N_34  and  C_35
REMARK   11  A    between atoms: N_34  and  C_36
REMARK                            x       y       z     vdW  Elec       q    Type
REMARK                         _______ _______ _______ _____ _____    ______ ____
ROOT
ATOM      1  C   UNL     1       2.439  -1.813  -1.716  0.00  0.00    +0.085 C 
ATOM      2  C   UNL     1       2.652  -3.162  -1.780  0.00  0.00    +0.053 C 
ATOM      3  N   UNL     1       3.115  -3.720  -2.892  0.00  0.00    -0.228 NA
ATOM      4  C   UNL     1       3.404  -3.068  -3.990  0.00  0.00    +0.178 A 
ATOM      5  N   UNL     1       3.264  -1.708  -4.139  0.00  0.00    -0.275 N 
ATOM      6  C   UNL     1       3.592  -1.152  -5.312  0.00  0.00    +0.268 A 
ATOM      7  O   UNL     1       3.485   0.047  -5.490  0.00  0.00    -0.266 OA
ATOM      8  C   UNL     1       4.086  -2.034  -6.379  0.00  0.00    +0.081 A 
ATOM      9  C   UNL     1       4.481  -1.724  -7.641  0.00  0.00    +0.032 C 
ATOM     10  S   UNL     1       4.027  -3.623  -5.565  0.00  0.00    -0.046 S 
ATOM     11  C   UNL     1       2.742  -0.986  -2.944  0.00  0.00    +0.162 C 
ATOM     12  C   UNL     1       2.358  -4.023  -0.579  0.00  0.00    +0.066 C 
ENDROOT
BRANCH   9  13
ATOM     13  C   UNL     1       5.133  -2.740  -8.476  0.00  0.00    +0.025 A 
ATOM     14  C   UNL     1       5.714  -3.869  -7.886  0.00  0.00    +0.044 A 
ATOM     15  C   UNL     1       6.325  -4.818  -8.676  0.00  0.00    +0.127 A 
ATOM     16  C   UNL     1       6.367  -4.661 -10.052  0.00  0.00    +0.036 A 
ATOM     17  C   UNL     1       5.798  -3.551 -10.648  0.00  0.00    +0.053 A 
ATOM     18  C   UNL     1       5.175  -2.588  -9.871  0.00  0.00    +0.186 A 
ATOM     19  O   UNL     1       4.611  -1.501 -10.456  0.00  0.00    -0.287 OA
BRANCH  15  20
ATOM     20  N   UNL     1       6.939  -6.011  -8.052  0.00  0.00    +0.056 N 
ATOM     21  O   UNL     1       6.904  -6.152  -6.852  0.00  0.00    -0.126 OA
ATOM     22  O   UNL     1       7.476  -6.846  -8.743  0.00  0.00    -0.126 OA
ENDBRANCH  15  20
ENDBRANCH   9  13
BRANCH  11  23
ATOM     23  C   UNL     1       3.757   0.060  -2.560  0.00  0.00    -0.020 A 
ATOM     24  C   UNL     1       5.096  -0.276  -2.480  0.00  0.00    +0.008 A 
ATOM     25  C   UNL     1       6.029   0.680  -2.129  0.00  0.00    +0.023 A 
ATOM     26  C   UNL     1       5.621   1.979  -1.855  0.00  0.00    +0.029 A 
ATOM     27  C   UNL     1       4.275   2.313  -1.937  0.00  0.00    +0.023 A 
ATOM     28  C   UNL     1       3.348   1.353  -2.294  0.00  0.00    +0.008 A 
BRANCH  26  29
ATOM     29  N   UNL     1       6.562   2.948  -1.499  0.00  0.00    -0.336 N 
ATOM     30  C   UNL     1       7.989   2.616  -1.491  0.00  0.00    +0.129 C 
ATOM     31  C   UNL     1       6.122   4.297  -1.133  0.00  0.00    +0.129 C 
ENDBRANCH  26  29
ENDBRANCH  11  23
BRANCH   1  32
ATOM     32  C   UNL     1       1.949  -1.214  -0.544  0.00  0.00    +0.339 C 
ATOM     33  O   UNL     1       1.583  -1.908   0.388  0.00  0.00    -0.245 OA
BRANCH  32  34
ATOM     34  O   UNL     1       1.883   0.132  -0.450  0.00  0.00    -0.462 OA
BRANCH  34  36
ATOM     35  C   UNL     1       1.375   2.201   0.691  0.00  0.00    +0.048 C 
ATOM     36  C   UNL     1       1.374   0.673   0.770  0.00  0.00    +0.229 C 
ENDBRANCH  34  36
ENDBRANCH  32  34
ENDBRANCH   1  32
TORSDOF 7
