REMARK  Name = ZINC43410725
REMARK  4 active torsions:
REMARK  status: ('A' for Active; 'I' for Inactive)
REMARK    1  A    between atoms: C_5  and  S_11
REMARK    2  A    between atoms: C_6  and  C_7
REMARK    3  A    between atoms: N_8  and  O_9
REMARK    4  A    between atoms: S_11  and  C_12
REMARK                            x       y       z     vdW  Elec       q    Type
REMARK                         _______ _______ _______ _____ _____    ______ ____
ROOT
ATOM      1  C   UNL     1      -0.024   1.389   0.152  0.00  0.00    +0.019 A 
ATOM      2  C   UNL     1       1.181   2.085   0.146  0.00  0.00    -0.025 A 
ATOM      3  C   UNL     1       2.362   1.392   0.002  0.00  0.00    +0.046 A 
ATOM      4  N   UNL     1       2.355   0.072  -0.137  0.00  0.00    -0.244 NA
ATOM      5  C   UNL     1       1.240  -0.636  -0.140  0.00  0.00    +0.108 A 
ATOM      6  C   UNL     1      -0.002   0.003   0.009  0.00  0.00    +0.050 A 
ATOM      7  C   UNL     1       3.704   2.080   0.005  0.00  0.00    +0.056 C 
ATOM      8  C   UNL     1       3.543   3.574  -0.267  0.00  0.00    +0.006 C 
ATOM      9  C   UNL     1       2.492   4.132   0.700  0.00  0.00    +0.005 C 
ATOM     10  C   UNL     1       1.126   3.582   0.294  0.00  0.00    +0.037 C 
ENDROOT
BRANCH   6  11
ATOM     11  C   UNL     1      -1.257  -0.777   0.013  0.00  0.00    +0.165 C 
ATOM     12  N   UNL     1      -2.202  -0.496  -0.837  0.00  0.00    -0.071 NA
ATOM     13  N   UNL     1      -1.429  -1.808   0.922  0.00  0.00    -0.340 N 
ATOM     14  H   UNL     1      -0.725  -2.018   1.556  0.00  0.00    +0.144 HD
ATOM     15  H   UNL     1      -2.253  -2.320   0.925  0.00  0.00    +0.144 HD
BRANCH  12  16
ATOM     16  O   UNL     1      -1.983   0.479  -1.841  0.00  0.00    -0.408 OA
ATOM     17  H   UNL     1      -2.764   0.674  -2.377  0.00  0.00    +0.328 HD
ENDBRANCH  12  16
ENDBRANCH   6  11
BRANCH   5  18
ATOM     18  S   UNL     1       1.311  -2.386  -0.330  0.00  0.00    -0.102 S 
BRANCH  18  19
ATOM     19  C   UNL     1       3.084  -2.740  -0.483  0.00  0.00    +0.053 C 
ATOM     20  C   UNL     1       3.621  -2.107  -1.768  0.00  0.00    +0.014 C 
ATOM     21  C   UNL     1       5.116  -2.405  -1.898  0.00  0.00    +0.001 C 
ATOM     22  C   UNL     1       5.332  -3.919  -1.946  0.00  0.00    +0.000 C 
ATOM     23  C   UNL     1       4.795  -4.551  -0.660  0.00  0.00    +0.001 C 
ATOM     24  C   UNL     1       3.300  -4.253  -0.531  0.00  0.00    +0.014 C 
ENDBRANCH  18  19
ENDBRANCH   5  18
TORSDOF 4
