REMARK  Name = ZINC63236996
REMARK  4 active torsions:
REMARK  status: ('A' for Active; 'I' for Inactive)
REMARK    1  A    between atoms: C_5  and  C_7
REMARK    2  A    between atoms: C_11  and  C_23
REMARK    3  A    between atoms: C_27  and  N_29
REMARK    4  A    between atoms: C_30  and  C_32
REMARK                            x       y       z     vdW  Elec       q    Type
REMARK                         _______ _______ _______ _____ _____    ______ ____
ROOT
ATOM      1  C   UNL     1       1.222  -2.151   0.016  0.00  0.00    +0.063 C 
ATOM      2  C   UNL     1       0.363  -2.686  -1.145  0.00  0.00    +0.094 C 
ATOM      3  N   UNL     1      -1.056  -2.427  -0.887  0.00  0.00    -0.307 NA
ATOM      4  C   UNL     1      -1.578  -3.153   0.282  0.00  0.00    +0.111 C 
ATOM      5  C   UNL     1      -0.899  -2.595   1.535  0.00  0.00    +0.128 C 
ATOM      6  C   UNL     1       0.605  -2.691   1.283  0.00  0.00    -0.028 C 
ATOM      7  C   UNL     1       1.121  -3.315   2.332  0.00  0.00    -0.000 A 
ATOM      8  C   UNL     1       2.513  -3.594   2.722  0.00  0.00    +0.010 A 
ATOM      9  C   UNL     1       2.683  -4.296   3.873  0.00  0.00    +0.001 A 
ATOM     10  C   UNL     1       1.622  -4.742   4.668  0.00  0.00    +0.002 A 
ATOM     11  C   UNL     1       0.312  -4.520   4.392  0.00  0.00    +0.026 A 
ATOM     12  C   UNL     1       0.006  -3.783   3.211  0.00  0.00    +0.043 A 
ATOM     13  N   UNL     1      -1.165  -3.393   2.729  0.00  0.00    -0.376 N 
ATOM     14  H   UNL     1      -1.234  -1.437  -0.807  0.00  0.00    +0.123 HD
ATOM     15  H   UNL     1      -2.041  -3.598   3.093  0.00  0.00    +0.160 HD
ENDROOT
BRANCH   1  20
ATOM     16  C   UNL     1      -0.017   1.406   0.275  0.00  0.00    +0.000 A 
ATOM     17  C   UNL     1       1.145   2.121   0.050  0.00  0.00    +0.001 A 
ATOM     18  C   UNL     1       2.332   1.454  -0.186  0.00  0.00    +0.020 A 
ATOM     19  C   UNL     1       2.358   0.070  -0.197  0.00  0.00    +0.045 A 
ATOM     20  C   UNL     1       1.195  -0.644   0.029  0.00  0.00    -0.021 A 
ATOM     21  C   UNL     1       0.008   0.024   0.264  0.00  0.00    +0.006 A 
ATOM     22 CL   UNL     1       3.848  -0.768  -0.494  0.00  0.00    -0.083 Cl
ENDBRANCH   1  20
BRANCH   4  23
ATOM     23  C   UNL     1      -3.069  -2.954   0.380  0.00  0.00    -0.026 A 
ATOM     24  C   UNL     1      -3.620  -1.716   0.103  0.00  0.00    +0.005 A 
ATOM     25  C   UNL     1      -4.987  -1.529   0.191  0.00  0.00    +0.002 A 
ATOM     26  C   UNL     1      -5.807  -2.579   0.556  0.00  0.00    +0.023 A 
ATOM     27  C   UNL     1      -5.257  -3.824   0.835  0.00  0.00    +0.034 A 
ATOM     28  C   UNL     1      -3.883  -4.009   0.739  0.00  0.00    +0.028 A 
BRANCH  27  29
ATOM     29  N   UNL     1      -6.084  -4.889   1.205  0.00  0.00    -0.281 N 
ATOM     30  C   UNL     1      -7.316  -5.003   0.671  0.00  0.00    +0.248 C 
ATOM     31  O   UNL     1      -7.672  -4.238  -0.205  0.00  0.00    -0.270 OA
ATOM     32  H   UNL     1      -5.771  -5.546   1.847  0.00  0.00    +0.155 HD
BRANCH  30  33
ATOM     33  C   UNL     1      -8.234  -6.057   1.149  0.00  0.00    +0.037 A 
ATOM     34  C   UNL     1      -7.830  -6.934   2.158  0.00  0.00    +0.014 A 
ATOM     35  C   UNL     1      -8.691  -7.915   2.600  0.00  0.00    +0.021 A 
ATOM     36  C   UNL     1      -9.955  -8.033   2.045  0.00  0.00    +0.041 A 
ATOM     37  C   UNL     1     -10.361  -7.167   1.043  0.00  0.00    +0.021 A 
ATOM     38  C   UNL     1      -9.511  -6.178   0.597  0.00  0.00    +0.014 A 
ATOM     39 CL   UNL     1     -11.034  -9.272   2.607  0.00  0.00    -0.084 Cl
ENDBRANCH  30  33
ENDBRANCH  27  29
ENDBRANCH   4  23
TORSDOF 4
