REMARK  Name = ZINC06826276
REMARK  7 active torsions:
REMARK  status: ('A' for Active; 'I' for Inactive)
REMARK    1  A    between atoms: C_1  and  C_2
REMARK    2  A    between atoms: C_5  and  C_28
REMARK    3  A    between atoms: C_6  and  C_12
REMARK    4  A    between atoms: C_10  and  C_11
REMARK    5  A    between atoms: N_14  and  C_15
REMARK    6  A    between atoms: C_16  and  C_24
REMARK    7  A    between atoms: N_26  and  C_27
REMARK                            x       y       z     vdW  Elec       q    Type
REMARK                         _______ _______ _______ _____ _____    ______ ____
ROOT
ATOM      1  C   UNL     1       0.056  -5.597  -2.279  0.00  0.00    +0.284 C 
ATOM      2  O   UNL     1       0.045  -5.661  -3.494  0.00  0.00    -0.266 OA
ATOM      3  N   UNL     1       0.078  -6.728  -1.545  0.00  0.00    -0.273 N 
ATOM      4  H   UNL     1       0.087  -6.677  -0.576  0.00  0.00    +0.156 HD
ENDROOT
BRANCH   1  10
ATOM      5  C   UNL     1      -0.018   1.503   0.010  0.00  0.00    +0.044 C 
ATOM      6  C   UNL     1       0.002  -0.004   0.002  0.00  0.00    -0.047 A 
ATOM      7  C   UNL     1      -0.006  -0.676  -1.188  0.00  0.00    +0.015 A 
ATOM      8  C   UNL     1       0.019  -2.073  -1.194  0.00  0.00    +0.024 A 
ATOM      9  C   UNL     1       0.023  -3.088  -2.247  0.00  0.00    +0.008 A 
ATOM     10  C   UNL     1       0.045  -4.289  -1.612  0.00  0.00    +0.194 A 
ATOM     11  O   UNL     1       0.055  -4.098  -0.276  0.00  0.00    -0.450 OA
ATOM     12  C   UNL     1       0.040  -2.784   0.021  0.00  0.00    +0.136 A 
ATOM     13  C   UNL     1       0.042  -2.078   1.218  0.00  0.00    +0.050 A 
ATOM     14  C   UNL     1       0.023  -0.700   1.203  0.00  0.00    -0.044 A 
ATOM     15  C   UNL     1       0.024   0.060   2.504  0.00  0.00    +0.044 C 
ATOM     16  C   UNL     1       0.005  -2.850  -3.735  0.00  0.00    +0.048 C 
ENDBRANCH   1  10
BRANCH   3  17
ATOM     17  C   UNL     1       0.088  -7.962  -2.174  0.00  0.00    +0.085 A 
ATOM     18  C   UNL     1       0.116  -9.224  -1.596  0.00  0.00    +0.069 A 
ATOM     19  C   UNL     1       0.118 -10.370  -2.489  0.00  0.00    -0.023 A 
ATOM     20  C   UNL     1       0.101 -10.074  -3.806  0.00  0.00    -0.004 A 
ATOM     21  S   UNL     1       0.077  -8.305  -3.872  0.00  0.00    -0.077 S 
ATOM     22  C   UNL     1       0.105 -11.041  -4.950  0.00  0.00    +0.043 C 
ATOM     23  C   UNL     1       0.507 -12.422  -4.414  0.00  0.00    +0.005 C 
ATOM     24  C   UNL     1      -0.314 -12.722  -3.156  0.00  0.00    +0.005 C 
ATOM     25  C   UNL     1       0.141 -11.817  -2.010  0.00  0.00    +0.037 C 
BRANCH  18  26
ATOM     26  C   UNL     1       0.139  -9.393  -0.140  0.00  0.00    +0.246 C 
ATOM     27  O   UNL     1      -0.905  -9.481   0.479  0.00  0.00    -0.270 OA
ATOM     28  N   UNL     1       1.316  -9.453   0.513  0.00  0.00    -0.314 N 
ATOM     29  C   UNL     1       1.339  -9.622   1.968  0.00  0.00    +0.128 C 
ATOM     30  H   UNL     1       2.149  -9.383   0.020  0.00  0.00    +0.149 HD
ENDBRANCH  18  26
ENDBRANCH   3  17
TORSDOF 3
