REMARK  Name = ZINC55188744
REMARK  4 active torsions:
REMARK  status: ('A' for Active; 'I' for Inactive)
REMARK    1  A    between atoms: C_1  and  C_2
REMARK    2  A    between atoms: C_2  and  C_4
REMARK    3  A    between atoms: C_2  and  N_11
REMARK    4  A    between atoms: C_12  and  C_14
REMARK                            x       y       z     vdW  Elec       q    Type
REMARK                         _______ _______ _______ _____ _____    ______ ____
ROOT
ATOM      1  N   UNL     1      -1.372  -0.511   0.012  0.00  0.00    -0.304 N 
ATOM      2  C   UNL     1      -2.051  -0.643  -1.145  0.00  0.00    +0.263 C 
ATOM      3  O   UNL     1      -1.522  -0.340  -2.198  0.00  0.00    -0.268 OA
ATOM      4  H   UNL     1      -1.794  -0.752   0.852  0.00  0.00    +0.150 HD
ENDROOT
BRANCH   2   5
ATOM      5  C   UNL     1      -3.432  -1.152  -1.134  0.00  0.00    +0.135 A 
ATOM      6  C   UNL     1      -4.130  -1.295  -2.307  0.00  0.00    +0.081 A 
ATOM      7  S   UNL     1      -5.686  -1.927  -1.694  0.00  0.00    -0.060 S 
ATOM      8  C   UNL     1      -5.259  -1.939   0.042  0.00  0.00    +0.156 A 
ATOM      9  N   UNL     1      -4.021  -1.487   0.016  0.00  0.00    -0.221 NA
ATOM     10  N   UNL     1      -6.025  -2.327   1.128  0.00  0.00    -0.338 N 
ATOM     11  H   UNL     1      -6.931  -2.648   0.992  0.00  0.00    +0.144 HD
ATOM     12  H   UNL     1      -5.656  -2.279   2.023  0.00  0.00    +0.144 HD
ENDBRANCH   2   5
BRANCH   1  14
ATOM     13  C   UNL     1      -0.019   1.526   0.010  0.00  0.00    +0.033 C 
ATOM     14  C   UNL     1       0.002  -0.004   0.002  0.00  0.00    +0.100 C 
BRANCH  14  15
ATOM     15  C   UNL     1       0.731  -0.503   1.223  0.00  0.00    -0.027 A 
ATOM     16  C   UNL     1       0.081  -0.558   2.442  0.00  0.00    +0.006 A 
ATOM     17  C   UNL     1       0.749  -1.017   3.562  0.00  0.00    +0.015 A 
ATOM     18  C   UNL     1       2.068  -1.420   3.463  0.00  0.00    +0.018 A 
ATOM     19  C   UNL     1       2.718  -1.365   2.243  0.00  0.00    +0.015 A 
ATOM     20  C   UNL     1       2.048  -0.911   1.123  0.00  0.00    +0.006 A 
ATOM     21 BR   UNL     1       2.983  -2.046   4.995  0.00  0.00    -0.050 Br
ENDBRANCH  14  15
ENDBRANCH   1  14
TORSDOF 3
