REMARK  Name = ZINC35858967
REMARK  8 active torsions:
REMARK  status: ('A' for Active; 'I' for Inactive)
REMARK    1  A    between atoms: C_1  and  C_2
REMARK    2  A    between atoms: C_2  and  C_3
REMARK    3  A    between atoms: C_3  and  C_5
REMARK    4  A    between atoms: C_3  and  O_15
REMARK    5  A    between atoms: C_11  and  C_14
REMARK    6  A    between atoms: O_15  and  C_16
REMARK    7  A    between atoms: C_22  and  C_35
REMARK    8  A    between atoms: C_27  and  C_29
REMARK                            x       y       z     vdW  Elec       q    Type
REMARK                         _______ _______ _______ _____ _____    ______ ____
ROOT
ATOM      1  C   UNL     1       2.006   1.240  -2.728  0.00  0.00    +0.122 A 
ATOM      2  C   UNL     1       1.153   2.166  -3.313  0.00  0.00    +0.046 A 
ATOM      3  C   UNL     1       1.621   3.424  -3.623  0.00  0.00    +0.007 A 
ATOM      4  C   UNL     1       2.938   3.779  -3.354  0.00  0.00    -0.040 A 
ATOM      5  C   UNL     1       3.781   2.863  -2.764  0.00  0.00    -0.016 A 
ATOM      6  C   UNL     1       3.315   1.594  -2.452  0.00  0.00    +0.051 A 
ATOM      7  C   UNL     1       5.212   3.191  -2.419  0.00  0.00    +0.137 C 
ATOM      8  N   UNL     1       5.595   4.459  -3.048  0.00  0.00    -0.286 N 
ATOM      9  C   UNL     1       4.634   5.572  -2.965  0.00  0.00    +0.113 C 
ATOM     10  C   UNL     1       3.378   5.167  -3.736  0.00  0.00    +0.054 C 
ATOM     11  C   UNL     1       6.778   4.601  -3.677  0.00  0.00    +0.247 C 
ATOM     12  O   UNL     1       7.040   5.639  -4.253  0.00  0.00    -0.270 OA
ENDROOT
BRANCH  11  13
ATOM     13  C   UNL     1       7.758   3.493  -3.668  0.00  0.00    +0.037 A 
ATOM     14  C   UNL     1       8.563   3.260  -4.784  0.00  0.00    +0.013 A 
ATOM     15  C   UNL     1       9.475   2.225  -4.768  0.00  0.00    +0.001 A 
ATOM     16  C   UNL     1       9.592   1.419  -3.650  0.00  0.00    +0.000 A 
ATOM     17  C   UNL     1       8.797   1.645  -2.540  0.00  0.00    +0.001 A 
ATOM     18  C   UNL     1       7.885   2.680  -2.541  0.00  0.00    +0.013 A 
ENDBRANCH  11  13
BRANCH   7  19
ATOM     19  C   UNL     1       5.351   3.312  -0.923  0.00  0.00    -0.023 A 
ATOM     20  C   UNL     1       5.254   2.186  -0.126  0.00  0.00    +0.006 A 
ATOM     21  C   UNL     1       5.381   2.297   1.246  0.00  0.00    +0.000 A 
ATOM     22  C   UNL     1       5.607   3.534   1.821  0.00  0.00    +0.000 A 
ATOM     23  C   UNL     1       5.706   4.659   1.024  0.00  0.00    +0.000 A 
ATOM     24  C   UNL     1       5.583   4.548  -0.348  0.00  0.00    +0.006 A 
ENDBRANCH   7  19
BRANCH   1  25
ATOM     25  O   UNL     1       1.556  -0.006  -2.422  0.00  0.00    -0.480 OA
BRANCH  25  26
ATOM     26  C   UNL     1       2.449  -0.861  -1.706  0.00  0.00    +0.258 C 
BRANCH  26  27
ATOM     27  C   UNL     1       1.672  -1.668  -0.698  0.00  0.00    +0.256 C 
ATOM     28  O   UNL     1       0.462  -1.593  -0.664  0.00  0.00    -0.272 OA
ATOM     29  N   UNL     1       2.321  -2.474   0.165  0.00  0.00    -0.302 N 
ATOM     30  C   UNL     1       3.789  -2.576   0.146  0.00  0.00    +0.089 C 
ATOM     31  C   UNL     1       4.308  -2.373   1.574  0.00  0.00    -0.063 C 
ATOM     32  N   UNL     1       3.646  -3.325   2.474  0.00  0.00    +0.383 N 
ATOM     33  C   UNL     1       2.206  -3.040   2.533  0.00  0.00    -0.057 C 
ATOM     34  C   UNL     1       1.583  -3.271   1.157  0.00  0.00    +0.092 C 
ATOM     35  C   UNL     1       1.544  -3.964   3.557  0.00  0.00    -0.012 C 
ATOM     36  H   UNL     1       3.787  -4.264   2.132  0.00  0.00    -0.085 HD
ATOM     37  H   UNL     1       4.042  -3.244   3.399  0.00  0.00    -0.085 HD
ENDBRANCH  26  27
BRANCH  26  39
ATOM     38  C   UNL     1       4.035  -0.993  -3.631  0.00  0.00    +0.008 C 
ATOM     39  C   UNL     1       3.147  -1.805  -2.686  0.00  0.00    +0.051 C 
ENDBRANCH  26  39
ENDBRANCH  25  26
ENDBRANCH   1  25
TORSDOF 6
