REMARK  Name = ZINC38574741
REMARK  12 active torsions:
REMARK  status: ('A' for Active; 'I' for Inactive)
REMARK    1  A    between atoms: C_1  and  C_2
REMARK    2  A    between atoms: C_2  and  C_4
REMARK    3  A    between atoms: C_2  and  N_24
REMARK    4  A    between atoms: C_4  and  C_6
REMARK    5  A    between atoms: C_4  and  N_11
REMARK    6  A    between atoms: N_14  and  C_17
REMARK    7  A    between atoms: C_17  and  C_18
REMARK    8  A    between atoms: C_25  and  C_27
REMARK    9  A    between atoms: C_30  and  C_33
REMARK   10  A    between atoms: C_33  and  C_34
REMARK   11  A    between atoms: C_33  and  C_35
REMARK   12  A    between atoms: C_33  and  C_36
REMARK                            x       y       z     vdW  Elec       q    Type
REMARK                         _______ _______ _______ _____ _____    ______ ____
ROOT
ATOM      1  C   UNL     1      -1.392  -0.633  -0.052  0.00  0.00    +0.113 C 
ENDROOT
BRANCH   1   2
ATOM      2  N   UNL     1      -2.057  -0.241  -1.302  0.00  0.00    -0.297 NA
ATOM      3  C   UNL     1      -2.012   1.216  -1.489  0.00  0.00    +0.066 C 
ATOM      4  C   UNL     1      -2.661   1.577  -2.827  0.00  0.00    -0.063 C 
ATOM      5  N   UNL     1      -4.053   1.107  -2.838  0.00  0.00    +0.384 N 
ATOM      6  C   UNL     1      -4.080  -0.353  -2.676  0.00  0.00    -0.063 C 
ATOM      7  C   UNL     1      -3.443  -0.729  -1.336  0.00  0.00    +0.066 C 
ATOM      8  H   UNL     1      -4.560   1.539  -2.080  0.00  0.00    -0.081 HD
BRANCH   5   9
ATOM      9  C   UNL     1      -4.681   1.469  -4.116  0.00  0.00    -0.043 C 
BRANCH   9  10
ATOM     10  C   UNL     1      -6.141   1.098  -4.081  0.00  0.00    -0.064 A 
ATOM     11  C   UNL     1      -6.545  -0.157  -4.497  0.00  0.00    +0.002 A 
ATOM     12  C   UNL     1      -7.884  -0.498  -4.465  0.00  0.00    +0.000 A 
ATOM     13  C   UNL     1      -8.819   0.416  -4.017  0.00  0.00    +0.000 A 
ATOM     14  C   UNL     1      -8.415   1.671  -3.600  0.00  0.00    +0.000 A 
ATOM     15  C   UNL     1      -7.075   2.010  -3.628  0.00  0.00    +0.002 A 
ENDBRANCH   9  10
ENDBRANCH   5   9
ENDBRANCH   1   2
BRANCH   1  16
ATOM     16  C   UNL     1      -1.436  -2.132   0.092  0.00  0.00    +0.009 A 
ATOM     17  C   UNL     1      -1.660  -2.877   1.202  0.00  0.00    +0.013 A 
ATOM     18  C   UNL     1      -1.656  -4.255   1.097  0.00  0.00    +0.008 A 
ATOM     19  C   UNL     1      -1.428  -4.821  -0.113  0.00  0.00    +0.045 A 
ATOM     20  S   UNL     1      -1.215  -3.389  -1.157  0.00  0.00    -0.100 S 
ENDBRANCH   1  16
BRANCH   1  22
ATOM     21  C   UNL     1       0.769  -0.610   1.202  0.00  0.00    +0.030 C 
ATOM     22  C   UNL     1       0.065  -0.166  -0.083  0.00  0.00    +0.092 C 
BRANCH  22  23
ATOM     23  N   UNL     1       0.743  -0.756  -1.239  0.00  0.00    -0.307 N 
ATOM     24  C   UNL     1       1.820  -0.146  -1.773  0.00  0.00    +0.244 C 
ATOM     25  O   UNL     1       2.229   0.893  -1.294  0.00  0.00    -0.270 OA
ATOM     26  H   UNL     1       0.417  -1.586  -1.622  0.00  0.00    +0.149 HD
BRANCH  24  27
ATOM     27  C   UNL     1       2.504  -0.742  -2.940  0.00  0.00    +0.037 A 
ATOM     28  C   UNL     1       2.034  -1.933  -3.496  0.00  0.00    +0.013 A 
ATOM     29  C   UNL     1       2.677  -2.483  -4.586  0.00  0.00    +0.005 A 
ATOM     30  C   UNL     1       3.785  -1.857  -5.127  0.00  0.00    -0.042 A 
ATOM     31  C   UNL     1       4.257  -0.677  -4.581  0.00  0.00    +0.005 A 
ATOM     32  C   UNL     1       3.620  -0.113  -3.495  0.00  0.00    +0.013 A 
BRANCH  30  33
ATOM     33  C   UNL     1       4.483  -2.464  -6.317  0.00  0.00    -0.013 C 
ATOM     34  C   UNL     1       3.502  -2.561  -7.488  0.00  0.00    +0.015 C 
ATOM     35  C   UNL     1       5.669  -1.584  -6.717  0.00  0.00    +0.015 C 
ATOM     36  C   UNL     1       4.985  -3.863  -5.955  0.00  0.00    +0.015 C 
ENDBRANCH  30  33
ENDBRANCH  24  27
ENDBRANCH  22  23
ENDBRANCH   1  22
TORSDOF 8
