REMARK  Name = ZINC11730794
REMARK  6 active torsions:
REMARK  status: ('A' for Active; 'I' for Inactive)
REMARK    1  A    between atoms: C_3  and  C_29
REMARK    2  A    between atoms: C_5  and  S_7
REMARK    3  A    between atoms: S_7  and  C_10
REMARK    4  A    between atoms: C_11  and  C_22
REMARK    5  A    between atoms: N_12  and  C_15
REMARK    6  A    between atoms: C_18  and  N_21
REMARK                            x       y       z     vdW  Elec       q    Type
REMARK                         _______ _______ _______ _____ _____    ______ ____
ROOT
ATOM      1  C   UNL     1      -0.050   5.842  -1.788  0.00  0.00    +0.231 A 
ATOM      2  C   UNL     1       0.983   6.491  -2.406  0.00  0.00    +0.120 A 
ATOM      3  N   UNL     1       0.431   7.115  -3.493  0.00  0.00    -0.210 N 
ATOM      4  N   UNL     1      -0.830   6.856  -3.502  0.00  0.00    -0.058 NA
ATOM      5  N   UNL     1      -1.144   6.106  -2.506  0.00  0.00    -0.109 NA
ENDROOT
BRANCH   2   6
ATOM      6  C   UNL     1       2.402   6.512  -1.989  0.00  0.00    +0.004 A 
ATOM      7  C   UNL     1       2.752   6.969  -0.718  0.00  0.00    +0.011 A 
ATOM      8  C   UNL     1       4.077   6.982  -0.333  0.00  0.00    +0.020 A 
ATOM      9  C   UNL     1       5.059   6.553  -1.209  0.00  0.00    +0.041 A 
ATOM     10  C   UNL     1       4.718   6.103  -2.474  0.00  0.00    +0.020 A 
ATOM     11  C   UNL     1       3.397   6.080  -2.868  0.00  0.00    +0.011 A 
ATOM     12 CL   UNL     1       6.725   6.578  -0.720  0.00  0.00    -0.084 Cl
ENDBRANCH   2   6
BRANCH   3  13
ATOM     13  C   UNL     1       1.118   7.902  -4.429  0.00  0.00    +0.068 A 
ATOM     14  C   UNL     1       2.179   8.699  -4.020  0.00  0.00    +0.029 A 
ATOM     15  C   UNL     1       2.858   9.470  -4.941  0.00  0.00    +0.025 A 
ATOM     16  C   UNL     1       2.473   9.457  -6.276  0.00  0.00    +0.025 A 
ATOM     17  C   UNL     1       1.409   8.663  -6.684  0.00  0.00    +0.025 A 
ATOM     18  C   UNL     1       0.734   7.888  -5.763  0.00  0.00    +0.029 A 
BRANCH  16  19
ATOM     19  N   UNL     1       3.157  10.243  -7.208  0.00  0.00    -0.358 N 
ATOM     20  H   UNL     1       2.888  10.234  -8.140  0.00  0.00    +0.142 HD
ATOM     21  H   UNL     1       3.900  10.797  -6.923  0.00  0.00    +0.142 HD
ENDBRANCH  16  19
ENDBRANCH   3  13
BRANCH   1  22
ATOM     22  S   UNL     1       0.043   4.859  -0.329  0.00  0.00    +0.046 S 
ATOM     23  O   UNL     1      -1.216   4.974   0.319  0.00  0.00    -0.163 OA
ATOM     24  O   UNL     1       1.265   5.200   0.313  0.00  0.00    -0.163 OA
BRANCH  22  29
ATOM     25  C   UNL     1       1.566   1.312  -1.446  0.00  0.00    +0.002 A 
ATOM     26  C   UNL     1       0.433   0.545  -1.642  0.00  0.00    +0.012 A 
ATOM     27  C   UNL     1      -0.819   1.096  -1.443  0.00  0.00    +0.057 A 
ATOM     28  C   UNL     1      -0.938   2.413  -1.038  0.00  0.00    +0.039 A 
ATOM     29  C   UNL     1       0.195   3.180  -0.841  0.00  0.00    +0.096 A 
ATOM     30  C   UNL     1       1.447   2.630  -1.045  0.00  0.00    +0.027 A 
BRANCH  27  31
ATOM     31  C   UNL     1      -2.054   0.261  -1.663  0.00  0.00    +0.417 C 
ATOM     32  F   UNL     1      -1.681  -1.027  -2.062  0.00  0.00    -0.166 F 
ATOM     33  F   UNL     1      -2.785   0.188  -0.473  0.00  0.00    -0.166 F 
ATOM     34  F   UNL     1      -2.842   0.848  -2.659  0.00  0.00    -0.166 F 
ENDBRANCH  27  31
ENDBRANCH  22  29
ENDBRANCH   1  22
TORSDOF 6
