REMARK  Name = ZINC04222001
REMARK  10 active torsions:
REMARK  status: ('A' for Active; 'I' for Inactive)
REMARK    1  A    between atoms: C_1  and  C_2
REMARK    2  A    between atoms: C_10  and  C_12
REMARK    3  A    between atoms: C_15  and  O_18
REMARK    4  A    between atoms: O_18  and  C_19
REMARK    5  A    between atoms: C_21  and  C_42
REMARK    6  A    between atoms: C_24  and  O_41
REMARK    7  A    between atoms: C_26  and  C_30
REMARK    8  A    between atoms: C_30  and  C_32
REMARK    9  A    between atoms: C_30  and  C_33
REMARK   10  A    between atoms: C_40  and  N_78
REMARK                            x       y       z     vdW  Elec       q    Type
REMARK                         _______ _______ _______ _____ _____    ______ ____
ROOT
ATOM      1  C   UNL     1      -0.942   4.673  -7.293  0.00  0.00    +0.014 C 
ATOM      2  C   UNL     1      -1.027   6.165  -6.965  0.00  0.00    +0.042 C 
ATOM      3  C   UNL     1      -0.752   6.985  -8.218  0.00  0.00    +0.057 A 
ATOM      4  C   UNL     1       0.023   8.098  -8.151  0.00  0.00    +0.015 A 
ATOM      5  S   UNL     1       0.032   8.668  -9.830  0.00  0.00    -0.057 S 
ATOM      6  C   UNL     1      -0.973   7.411 -10.487  0.00  0.00    +0.165 A 
ATOM      7  N   UNL     1      -1.231   6.679  -9.422  0.00  0.00    -0.229 NA
ATOM      8  N   UNL     1      -1.396   7.226 -11.797  0.00  0.00    -0.261 N 
ATOM      9  C   UNL     1      -1.020   8.095 -12.755  0.00  0.00    +0.250 C 
ATOM     10  O   UNL     1      -0.312   9.042 -12.473  0.00  0.00    -0.270 OA
ATOM     11  C   UNL     1       0.688   8.672  -6.951  0.00  0.00    +0.051 C 
ATOM     12  C   UNL     1       0.086   8.028  -5.687  0.00  0.00    -0.022 C 
ATOM     13  C   UNL     1       0.011   6.513  -5.889  0.00  0.00    +0.033 C 
ATOM     14  C   UNL     1      -0.428   5.828  -4.590  0.00  0.00    +0.123 C 
ATOM     15  C   UNL     1       0.536   6.171  -3.457  0.00  0.00    +0.029 C 
ATOM     16  C   UNL     1       0.525   7.688  -3.242  0.00  0.00    +0.007 C 
ATOM     17  C   UNL     1       1.023   8.360  -4.521  0.00  0.00    +0.008 C 
ATOM     18  C   UNL     1      -1.310   8.589  -5.412  0.00  0.00    +0.012 C 
ATOM     19  H   UNL     1      -1.961   6.470 -12.022  0.00  0.00    +0.157 HD
ENDROOT
BRANCH   9  20
ATOM     20  C   UNL     1      -1.469   7.899 -14.147  0.00  0.00    +0.037 A 
ATOM     21  C   UNL     1      -2.279   6.808 -14.474  0.00  0.00    +0.016 A 
ATOM     22  C   UNL     1      -2.702   6.632 -15.773  0.00  0.00    +0.046 A 
ATOM     23  C   UNL     1      -2.313   7.530 -16.760  0.00  0.00    +0.120 A 
ATOM     24  C   UNL     1      -1.503   8.613 -16.440  0.00  0.00    +0.046 A 
ATOM     25  C   UNL     1      -1.081   8.800 -15.143  0.00  0.00    +0.016 A 
BRANCH  23  26
ATOM     26  O   UNL     1      -2.727   7.349 -18.040  0.00  0.00    -0.495 OA
ATOM     27  C   UNL     1      -3.558   6.216 -18.300  0.00  0.00    +0.277 C 
ENDBRANCH  23  26
ENDBRANCH   9  20
BRANCH  15  28
ATOM     28  C   UNL     1       0.089   5.468  -2.173  0.00  0.00    +0.078 C 
ATOM     29  C   UNL     1      -1.288   5.990  -1.758  0.00  0.00    +0.017 C 
BRANCH  28  30
ATOM     30  C   UNL     1       1.084   5.746  -1.076  0.00  0.00    +0.219 C 
ATOM     31  O   UNL     1       0.869   6.629  -0.273  0.00  0.00    -0.275 OA
ATOM     32  N   UNL     1       2.212   5.014  -0.987  0.00  0.00    -0.305 N 
ATOM     33  C   UNL     1       3.247   5.340   0.006  0.00  0.00    +0.089 C 
ATOM     34  C   UNL     1       3.591   4.067   0.786  0.00  0.00    -0.060 C 
ATOM     35  C   UNL     1       2.816   2.653  -1.026  0.00  0.00    -0.060 C 
ATOM     36  C   UNL     1       2.440   3.868  -1.880  0.00  0.00    +0.089 C 
ATOM     37  C   UNL     1       4.451   1.815   0.553  0.00  0.00    -0.096 C 
ATOM     38  N   UNL     1       3.973   3.009  -0.175  0.00  0.00    +0.380 N 
ATOM     39  H   UNL     1       4.730   3.360  -0.773  0.00  0.00    -0.082 HD
ENDBRANCH  28  30
ENDBRANCH  15  28
BRANCH  14  40
ATOM     40  O   UNL     1      -0.446   4.413  -4.784  0.00  0.00    -0.391 OA
ATOM     41  H   UNL     1      -0.807   3.918  -4.036  0.00  0.00    +0.210 HD
ENDBRANCH  14  40
TORSDOF 5
