REMARK  Name = ZINC12530378
REMARK  8 active torsions:
REMARK  status: ('A' for Active; 'I' for Inactive)
REMARK    1  A    between atoms: C_1  and  C_2
REMARK    2  A    between atoms: C_2  and  O_3
REMARK    3  A    between atoms: O_3  and  C_4
REMARK    4  A    between atoms: C_4  and  C_6
REMARK    5  A    between atoms: C_9  and  N_12
REMARK    6  A    between atoms: C_24  and  C_26
REMARK    7  A    between atoms: C_28  and  C_31
REMARK    8  A    between atoms: C_34  and  C_37
REMARK                            x       y       z     vdW  Elec       q    Type
REMARK                         _______ _______ _______ _____ _____    ______ ____
ROOT
ATOM      1  N   UNL     1       3.368  -3.894  -5.884  0.00  0.00    -0.269 N 
ATOM      2  C   UNL     1       3.558  -5.224  -5.998  0.00  0.00    +0.307 C 
ATOM      3  O   UNL     1       3.092  -5.978  -5.167  0.00  0.00    -0.252 OA
ATOM      4  N   UNL     1       4.266  -5.716  -7.035  0.00  0.00    -0.267 N 
ATOM      5  C   UNL     1       4.937  -4.814  -7.987  0.00  0.00    +0.165 C 
ATOM      6  C   UNL     1       4.663  -5.343  -9.375  0.00  0.00    +0.054 A 
ATOM      7  C   UNL     1       4.122  -6.555  -9.622  0.00  0.00    +0.040 A 
ATOM      8  N   UNL     1       4.031  -6.682 -10.975  0.00  0.00    -0.349 N 
ATOM      9  H   UNL     1       3.684  -7.446 -11.461  0.00  0.00    +0.166 HD
ATOM     10  C   UNL     1       4.517  -5.540 -11.514  0.00  0.00    +0.171 A 
ATOM     11  N   UNL     1       4.892  -4.744 -10.546  0.00  0.00    -0.348 N 
ATOM     12  C   UNL     1       3.707  -7.544  -8.564  0.00  0.00    +0.087 C 
ATOM     13  C   UNL     1       4.392  -7.167  -7.238  0.00  0.00    +0.172 C 
ATOM     14  H   UNL     1       3.618  -3.304  -6.612  0.00  0.00    +0.156 HD
ATOM     15  H   UNL     1       5.275  -3.861 -10.661  0.00  0.00    +0.166 HD
ENDROOT
BRANCH   1  19
ATOM     16  C   UNL     1       1.703  -2.321  -2.406  0.00  0.00    +0.059 A 
ATOM     17  C   UNL     1       2.644  -1.581  -3.129  0.00  0.00    +0.017 A 
ATOM     18  C   UNL     1       3.192  -2.105  -4.278  0.00  0.00    +0.024 A 
ATOM     19  C   UNL     1       2.811  -3.368  -4.720  0.00  0.00    +0.035 A 
ATOM     20  C   UNL     1       1.874  -4.106  -4.003  0.00  0.00    +0.024 A 
ATOM     21  C   UNL     1       1.326  -3.592  -2.850  0.00  0.00    +0.017 A 
BRANCH  16  22
ATOM     22  C   UNL     1       1.114  -1.764  -1.174  0.00  0.00    +0.339 C 
ATOM     23  O   UNL     1       0.300  -2.410  -0.544  0.00  0.00    -0.245 OA
BRANCH  22  24
ATOM     24  O   UNL     1       1.478  -0.539  -0.747  0.00  0.00    -0.461 OA
BRANCH  24  26
ATOM     25  C   UNL     1       1.401   1.335   0.778  0.00  0.00    +0.048 C 
ATOM     26  C   UNL     1       0.867  -0.062   0.454  0.00  0.00    +0.229 C 
ENDBRANCH  24  26
ENDBRANCH  22  24
ENDBRANCH  16  22
ENDBRANCH   1  19
BRANCH  13  27
ATOM     27  C   UNL     1       5.850  -7.543  -7.295  0.00  0.00    +0.249 A 
ATOM     28  N   UNL     1       6.399  -8.556  -6.688  0.00  0.00    -0.190 NA
ATOM     29  C   UNL     1       7.717  -8.595  -6.957  0.00  0.00    +0.202 A 
ATOM     30  N   UNL     1       8.013  -7.593  -7.748  0.00  0.00    -0.056 NA
ATOM     31  O   UNL     1       6.799  -6.896  -7.984  0.00  0.00    -0.336 OA
BRANCH  29  32
ATOM     32  C   UNL     1       8.676  -9.605  -6.444  0.00  0.00    +0.022 A 
ATOM     33  C   UNL     1       8.232 -10.630  -5.610  0.00  0.00    +0.012 A 
ATOM     34  C   UNL     1       9.128 -11.566  -5.135  0.00  0.00    +0.004 A 
ATOM     35  C   UNL     1      10.464 -11.488  -5.485  0.00  0.00    -0.050 A 
ATOM     36  C   UNL     1      10.910 -10.473  -6.313  0.00  0.00    +0.004 A 
ATOM     37  C   UNL     1      10.021  -9.535  -6.798  0.00  0.00    +0.012 A 
ATOM     38  C   UNL     1      11.438 -12.513  -4.963  0.00  0.00    +0.044 C 
ENDBRANCH  29  32
ENDBRANCH  13  27
TORSDOF 6
