REMARK  Name = ZINC21883079
REMARK  9 active torsions:
REMARK  status: ('A' for Active; 'I' for Inactive)
REMARK    1  A    between atoms: C_1  and  C_2
REMARK    2  A    between atoms: C_5  and  C_8
REMARK    3  A    between atoms: C_10  and  C_13
REMARK    4  A    between atoms: C_13  and  C_14
REMARK    5  A    between atoms: C_14  and  C_15
REMARK    6  A    between atoms: N_17  and  C_18
REMARK    7  A    between atoms: C_25  and  N_27
REMARK    8  A    between atoms: N_27  and  S_28
REMARK    9  A    between atoms: S_28  and  C_31
REMARK                            x       y       z     vdW  Elec       q    Type
REMARK                         _______ _______ _______ _____ _____    ______ ____
ROOT
ATOM      1  C   UNL     1      -1.324  -8.995   3.025  0.00  0.00    +0.218 C 
ATOM      2  O   UNL     1      -0.285  -9.374   3.522  0.00  0.00    -0.275 OA
ATOM      3  N   UNL     1      -2.479  -9.628   3.311  0.00  0.00    -0.285 N 
ATOM      4  H   UNL     1      -3.320  -9.279   2.975  0.00  0.00    +0.155 HD
ENDROOT
BRANCH   3   5
ATOM      5  C   UNL     1      -2.466 -10.790   4.093  0.00  0.00    +0.035 A 
ATOM      6  C   UNL     1      -3.530 -11.081   4.943  0.00  0.00    +0.025 A 
ATOM      7  C   UNL     1      -3.542 -12.202   5.712  0.00  0.00    +0.031 A 
ATOM      8  C   UNL     1      -2.466 -13.119   5.677  0.00  0.00    +0.080 A 
ATOM      9  C   UNL     1      -1.400 -12.800   4.806  0.00  0.00    +0.043 A 
ATOM     10  C   UNL     1      -1.393 -11.670   4.027  0.00  0.00    +0.040 A 
ATOM     11  S   UNL     1      -0.288 -14.164   5.051  0.00  0.00    -0.049 S 
ATOM     12  C   UNL     1      -1.274 -15.044   6.254  0.00  0.00    +0.202 A 
ATOM     13  N   UNL     1      -2.328 -14.270   6.374  0.00  0.00    -0.222 NA
BRANCH  12  14
ATOM     14  N   UNL     1      -0.999 -16.236   6.895  0.00  0.00    -0.075 NA
BRANCH  14  15
ATOM     15  S   UNL     1      -2.080 -16.861   7.982  0.00  0.00    +0.061 S 
ATOM     16  O   UNL     1      -2.124 -15.910   9.037  0.00  0.00    -0.154 OA
ATOM     17  O   UNL     1      -3.241 -17.147   7.215  0.00  0.00    -0.154 OA
ATOM     18  C   UNL     1      -1.319 -18.402   8.562  0.00  0.00    +0.220 C 
ENDBRANCH  14  15
ENDBRANCH  12  14
ENDBRANCH   3   5
BRANCH   1  19
ATOM     19  C   UNL     1      -1.324  -7.815   2.087  0.00  0.00    +0.105 C 
BRANCH  19  20
ATOM     20  C   UNL     1       0.103  -7.285   1.935  0.00  0.00    +0.108 C 
BRANCH  20  23
ATOM     21  C   UNL     1       0.004  -4.069   0.255  0.00  0.00    +0.202 A 
ATOM     22  N   UNL     1      -0.050  -4.859   1.343  0.00  0.00    -0.191 NA
ATOM     23  C   UNL     1       0.104  -6.105   0.998  0.00  0.00    +0.228 A 
ATOM     24  O   UNL     1       0.263  -6.161  -0.331  0.00  0.00    -0.338 OA
ATOM     25  N   UNL     1       0.190  -4.823  -0.800  0.00  0.00    -0.056 NA
BRANCH  21  30
ATOM     26  C   UNL     1      -0.522   1.666   0.236  0.00  0.00    +0.044 C 
ATOM     27  C   UNL     1      -0.384   0.166   0.241  0.00  0.00    -0.050 A 
ATOM     28  C   UNL     1      -0.189  -0.512  -0.949  0.00  0.00    +0.004 A 
ATOM     29  C   UNL     1      -0.062  -1.887  -0.950  0.00  0.00    +0.012 A 
ATOM     30  C   UNL     1      -0.131  -2.591   0.250  0.00  0.00    +0.022 A 
ATOM     31  C   UNL     1      -0.328  -1.903   1.446  0.00  0.00    +0.012 A 
ATOM     32  C   UNL     1      -0.448  -0.528   1.436  0.00  0.00    +0.004 A 
ENDBRANCH  21  30
ENDBRANCH  20  23
ENDBRANCH  19  20
ENDBRANCH   1  19
TORSDOF 7
