REMARK  Name = ZINC15550730
REMARK  8 active torsions:
REMARK  status: ('A' for Active; 'I' for Inactive)
REMARK    1  A    between atoms: C_1  and  O_2
REMARK    2  A    between atoms: O_2  and  C_3
REMARK    3  A    between atoms: C_3  and  C_5
REMARK    4  A    between atoms: C_9  and  N_10
REMARK    5  A    between atoms: C_11  and  C_13
REMARK    6  A    between atoms: C_13  and  N_61
REMARK    7  A    between atoms: C_16  and  C_19
REMARK    8  A    between atoms: N_21  and  C_22
REMARK                            x       y       z     vdW  Elec       q    Type
REMARK                         _______ _______ _______ _____ _____    ______ ____
ROOT
ATOM      1  C   UNL     1       6.650   8.820   0.875  0.00  0.00    +0.019 C 
ENDROOT
BRANCH   1   7
ATOM      2  C   UNL     1       4.646   8.273  -0.368  0.00  0.00    -0.077 C 
ATOM      3  C   UNL     1       3.329   7.497  -0.307  0.00  0.00    -0.006 C 
ATOM      4  C   UNL     1       3.628   5.998  -0.216  0.00  0.00    +0.072 C 
ATOM      5  C   UNL     1       4.497   5.734   1.017  0.00  0.00    -0.006 C 
ATOM      6  C   UNL     1       5.781   6.561   0.917  0.00  0.00    -0.077 C 
ATOM      7  N   UNL     1       5.425   7.995   0.857  0.00  0.00    +0.385 N 
ATOM      8  H   UNL     1       4.852   8.230   1.676  0.00  0.00    -0.081 HD
BRANCH   4   9
ATOM      9  C   UNL     1       2.336   5.233  -0.094  0.00  0.00    +0.220 C 
ATOM     10  O   UNL     1       1.278   5.827  -0.082  0.00  0.00    -0.275 OA
ATOM     11  N   UNL     1       2.356   3.889   0.001  0.00  0.00    -0.285 N 
ATOM     12  H   UNL     1       3.202   3.419   0.068  0.00  0.00    +0.155 HD
BRANCH  11  13
ATOM     13  C   UNL     1       1.155   3.170   0.002  0.00  0.00    +0.033 A 
ATOM     14  C   UNL     1       0.070   3.626  -0.736  0.00  0.00    +0.023 A 
ATOM     15  C   UNL     1      -1.113   2.914  -0.733  0.00  0.00    +0.002 A 
ATOM     16  C   UNL     1      -1.220   1.751   0.008  0.00  0.00    +0.000 A 
ATOM     17  C   UNL     1      -0.141   1.292   0.740  0.00  0.00    +0.002 A 
ATOM     18  C   UNL     1       1.046   1.999   0.741  0.00  0.00    +0.023 A 
ENDBRANCH  11  13
ENDBRANCH   4   9
ENDBRANCH   1   7
BRANCH   1  20
ATOM     19  N   UNL     1       8.442   9.360   2.493  0.00  0.00    -0.281 N 
ATOM     20  C   UNL     1       7.309   8.682   2.224  0.00  0.00    +0.201 C 
ATOM     21  O   UNL     1       6.819   7.961   3.067  0.00  0.00    -0.278 OA
ATOM     22  H   UNL     1       8.834   9.937   1.819  0.00  0.00    +0.155 HD
BRANCH  19  27
ATOM     23  C   UNL     1      10.209   9.840   4.192  0.00  0.00    +0.091 A 
ATOM     24  C   UNL     1      10.631   9.539   5.550  0.00  0.00    -0.021 A 
ATOM     25  C   UNL     1       9.837   8.678   6.222  0.00  0.00    -0.004 A 
ATOM     26  S   UNL     1       8.542   8.274   5.085  0.00  0.00    -0.077 S 
ATOM     27  C   UNL     1       9.047   9.233   3.733  0.00  0.00    +0.086 A 
ATOM     28  C   UNL     1      10.024   8.183   7.623  0.00  0.00    +0.043 C 
ATOM     29  C   UNL     1      11.459   8.506   8.063  0.00  0.00    +0.005 C 
ATOM     30  C   UNL     1      11.765   9.966   7.717  0.00  0.00    +0.005 C 
ATOM     31  C   UNL     1      11.877  10.128   6.200  0.00  0.00    +0.037 C 
BRANCH  23  32
ATOM     32  C   UNL     1      10.978  10.751   3.342  0.00  0.00    +0.342 C 
ATOM     33  O   UNL     1      10.731  11.942   3.348  0.00  0.00    -0.245 OA
BRANCH  32  35
ATOM     34  C   UNL     1      12.679  11.230   1.735  0.00  0.00    +0.280 C 
ATOM     35  O   UNL     1      11.959  10.269   2.552  0.00  0.00    -0.464 OA
ENDBRANCH  32  35
ENDBRANCH  23  32
ENDBRANCH  19  27
ENDBRANCH   1  20
TORSDOF 7
