REMARK  Name = ZINC12657090
REMARK  7 active torsions:
REMARK  status: ('A' for Active; 'I' for Inactive)
REMARK    1  A    between atoms: C_1  and  C_2
REMARK    2  A    between atoms: C_15  and  O_30
REMARK    3  A    between atoms: C_18  and  C_29
REMARK    4  A    between atoms: C_23  and  C_24
REMARK    5  A    between atoms: C_23  and  O_28
REMARK    6  A    between atoms: C_24  and  C_26
REMARK    7  A    between atoms: C_26  and  O_27
REMARK                            x       y       z     vdW  Elec       q    Type
REMARK                         _______ _______ _______ _____ _____    ______ ____
ROOT
ATOM      1  C   UNL     1      -0.127   4.291   0.371  0.00  0.00    +0.016 C 
ATOM      2  C   UNL     1      -1.378   3.462   0.662  0.00  0.00    -0.005 C 
ATOM      3  C   UNL     1      -1.009   1.973   0.622  0.00  0.00    +0.019 C 
ATOM      4  C   UNL     1      -0.409   1.603  -0.732  0.00  0.00    +0.080 C 
ATOM      5  C   UNL     1      -1.305   2.076  -1.847  0.00  0.00    +0.156 C 
ATOM      6  O   UNL     1      -1.183   1.607  -2.962  0.00  0.00    -0.293 OA
ATOM      7  C   UNL     1      -2.319   3.097  -1.598  0.00  0.00    +0.046 C 
ATOM      8  C   UNL     1      -2.374   3.738  -0.439  0.00  0.00    -0.060 C 
ATOM      9  C   UNL     1      -3.455   4.755  -0.160  0.00  0.00    +0.032 C 
ATOM     10  C   UNL     1      -4.316   4.176   0.959  0.00  0.00    +0.008 C 
ATOM     11  C   UNL     1      -3.489   3.553   2.062  0.00  0.00    -0.001 C 
ATOM     12  C   UNL     1      -1.987   3.780   2.020  0.00  0.00    +0.031 C 
ATOM     13  C   UNL     1      -1.490   5.046   2.678  0.00  0.00    +0.119 C 
ATOM     14  C   UNL     1      -2.121   5.280   4.067  0.00  0.00    +0.041 C 
ATOM     15  C   UNL     1      -3.624   5.242   3.943  0.00  0.00    +0.006 C 
ATOM     16  C   UNL     1      -4.032   3.845   3.436  0.00  0.00    +0.002 C 
ATOM     17  C   UNL     1      -5.556   3.879   3.603  0.00  0.00    +0.007 C 
ATOM     18  C   UNL     1      -5.728   4.570   4.985  0.00  0.00    +0.040 C 
ATOM     19  C   UNL     1      -4.406   5.330   5.264  0.00  0.00    +0.095 C 
ATOM     20  C   UNL     1      -4.099   6.387   3.054  0.00  0.00    +0.015 C 
ENDROOT
BRANCH  19  21
ATOM     21  C   UNL     1      -4.687   6.770   5.599  0.00  0.00    -0.020 C 
ATOM     22  C   UNL     1      -5.919   7.168   5.800  0.00  0.00    +0.013 C 
BRANCH  21  23
ATOM     23  C   UNL     1      -3.551   7.755   5.702  0.00  0.00    +0.189 C 
BRANCH  23  24
ATOM     24  O   UNL     1      -4.077   9.071   5.882  0.00  0.00    -0.391 OA
ATOM     25  H   UNL     1      -3.401   9.758   5.956  0.00  0.00    +0.210 HD
ENDBRANCH  23  24
ENDBRANCH  21  23
ENDBRANCH  19  21
BRANCH  19  26
ATOM     26  O   UNL     1      -3.675   4.700   6.312  0.00  0.00    -0.384 OA
ATOM     27  H   UNL     1      -4.118   4.723   7.171  0.00  0.00    +0.211 HD
ENDBRANCH  19  26
BRANCH  13  28
ATOM     28  O   UNL     1      -0.076   4.940   2.946  0.00  0.00    -0.391 OA
ATOM     29  H   UNL     1       0.304   5.722   3.369  0.00  0.00    +0.210 HD
ENDBRANCH  13  28
TORSDOF 5
