REMARK  Name = ZINC22338394
REMARK  10 active torsions:
REMARK  status: ('A' for Active; 'I' for Inactive)
REMARK    1  A    between atoms: C_1  and  C_2
REMARK    2  A    between atoms: C_9  and  C_33
REMARK    3  A    between atoms: C_9  and  C_34
REMARK    4  A    between atoms: C_11  and  N_13
REMARK    5  A    between atoms: C_14  and  C_16
REMARK    6  A    between atoms: C_16  and  N_17
REMARK    7  A    between atoms: N_17  and  C_18
REMARK    8  A    between atoms: N_17  and  S_29
REMARK    9  A    between atoms: C_22  and  C_24
REMARK   10  A    between atoms: S_29  and  C_32
REMARK                            x       y       z     vdW  Elec       q    Type
REMARK                         _______ _______ _______ _____ _____    ______ ____
ROOT
ATOM      1  N   UNL     1      -1.433  -1.458  -3.072  0.00  0.00    -0.307 N 
ATOM      2  C   UNL     1      -0.629  -0.829  -2.191  0.00  0.00    +0.233 C 
ATOM      3  O   UNL     1       0.420  -0.347  -2.564  0.00  0.00    -0.274 OA
ATOM      4  H   UNL     1      -2.383  -1.895  -2.733  0.00  0.00    +0.149 HD
ENDROOT
BRANCH   1  15
ATOM      5  C   UNL     1      -2.610   3.306  -7.191  0.00  0.00    +0.044 C 
ATOM      6  C   UNL     1      -2.206   2.034  -6.493  0.00  0.00    -0.047 A 
ATOM      7  C   UNL     1      -1.644   2.086  -5.230  0.00  0.00    +0.004 A 
ATOM      8  C   UNL     1      -1.274   0.919  -4.590  0.00  0.00    +0.009 A 
ATOM      9  C   UNL     1      -1.461  -0.306  -5.208  0.00  0.00    +0.015 A 
ATOM     10  C   UNL     1      -2.025  -0.362  -6.470  0.00  0.00    +0.126 A 
ATOM     11  C   UNL     1      -2.396   0.816  -7.112  0.00  0.00    +0.049 A 
ATOM     12  O   UNL     1      -2.236  -1.542  -7.109  0.00  0.00    -0.486 OA
ATOM     13  C   UNL     1      -1.536  -2.693  -6.633  0.00  0.00    +0.107 C 
ATOM     14  C   UNL     1      -1.719  -2.775  -5.112  0.00  0.00    +0.074 C 
ATOM     15  C   UNL     1      -1.040  -1.558  -4.480  0.00  0.00    +0.110 C 
ATOM     16  C   UNL     1      -2.107  -3.951  -7.290  0.00  0.00    +0.055 C 
ATOM     17  C   UNL     1      -0.049  -2.566  -6.968  0.00  0.00    +0.055 C 
ENDBRANCH   1  15
BRANCH   2  18
ATOM     18  C   UNL     1      -1.032  -0.726  -0.743  0.00  0.00    +0.226 C 
BRANCH  18  19
ATOM     19  N   UNL     1       0.002  -0.004   0.002  0.00  0.00    -0.199 N 
BRANCH  19  20
ATOM     20  C   UNL     1       1.113  -0.691   0.499  0.00  0.00    +0.052 A 
ATOM     21  C   UNL     1       2.390  -0.349   0.072  0.00  0.00    +0.026 A 
ATOM     22  C   UNL     1       3.486  -1.030   0.565  0.00  0.00    +0.022 A 
ATOM     23  C   UNL     1       3.313  -2.050   1.484  0.00  0.00    +0.053 A 
ATOM     24  C   UNL     1       2.043  -2.392   1.911  0.00  0.00    +0.075 A 
ATOM     25  C   UNL     1       0.943  -1.711   1.425  0.00  0.00    +0.038 A 
ATOM     26 CL   UNL     1       4.694  -2.903   2.101  0.00  0.00    -0.083 Cl
BRANCH  24  27
ATOM     27  C   UNL     1       1.858  -3.503   2.913  0.00  0.00    +0.419 C 
ATOM     28  F   UNL     1       0.496  -3.662   3.188  0.00  0.00    -0.166 F 
ATOM     29  F   UNL     1       2.370  -4.694   2.387  0.00  0.00    -0.166 F 
ATOM     30  F   UNL     1       2.538  -3.184   4.093  0.00  0.00    -0.166 F 
ENDBRANCH  24  27
ENDBRANCH  19  20
BRANCH  19  31
ATOM     31  S   UNL     1      -0.145   1.626   0.255  0.00  0.00    +0.043 S 
ATOM     32  O   UNL     1       1.174   2.069   0.543  0.00  0.00    -0.155 OA
ATOM     33  O   UNL     1      -0.839   2.109  -0.888  0.00  0.00    -0.155 OA
ATOM     34  C   UNL     1      -1.191   1.776   1.730  0.00  0.00    +0.218 C 
ENDBRANCH  19  31
ENDBRANCH  18  19
ENDBRANCH   2  18
TORSDOF 6
