REMARK  Name = ZINC02953173
REMARK  12 active torsions:
REMARK  status: ('A' for Active; 'I' for Inactive)
REMARK    1  A    between atoms: C_1  and  C_2
REMARK    2  A    between atoms: C_2  and  C_3
REMARK    3  A    between atoms: C_8  and  N_9
REMARK    4  A    between atoms: C_10  and  C_12
REMARK    5  A    between atoms: C_15  and  C_34
REMARK    6  A    between atoms: C_18  and  C_33
REMARK    7  A    between atoms: N_22  and  C_23
REMARK    8  A    between atoms: C_25  and  O_31
REMARK    9  A    between atoms: C_27  and  O_29
REMARK   10  A    between atoms: O_29  and  C_30
REMARK   11  A    between atoms: O_31  and  C_32
REMARK   12  A    between atoms: C_34  and  O_35
REMARK                            x       y       z     vdW  Elec       q    Type
REMARK                         _______ _______ _______ _____ _____    ______ ____
ROOT
ATOM      1  C   UNL     1       4.692   4.191   0.268  0.00  0.00    +0.098 A 
ATOM      2  C   UNL     1       3.651   3.327   0.009  0.00  0.00    +0.030 A 
ATOM      3  C   UNL     1       2.296   3.881   0.036  0.00  0.00    +0.027 A 
ATOM      4  C   UNL     1       1.163   3.058   0.047  0.00  0.00    +0.007 A 
ATOM      5  C   UNL     1      -0.081   3.653   0.070  0.00  0.00    +0.117 A 
ATOM      6  N   UNL     1      -0.211   4.967   0.092  0.00  0.00    -0.256 NA
ATOM      7  C   UNL     1       0.824   5.783   0.081  0.00  0.00    +0.081 A 
ATOM      8  C   UNL     1       2.115   5.277   0.051  0.00  0.00    +0.159 A 
ATOM      9  O   UNL     1       3.194   6.095   0.035  0.00  0.00    -0.437 OA
ATOM     10  C   UNL     1       4.348   5.599   0.552  0.00  0.00    +0.212 A 
ATOM     11  N   UNL     1       5.137   6.352   1.287  0.00  0.00    -0.325 N 
ATOM     12  C   UNL     1       0.603   7.274   0.102  0.00  0.00    +0.069 C 
ATOM     13  H   UNL     1       6.024   5.915   1.767  0.00  0.00    +0.169 HD
ENDROOT
BRANCH  11  14
ATOM     14  C   UNL     1       4.854   7.680   1.454  0.00  0.00    +0.049 A 
ATOM     15  C   UNL     1       5.284   8.612   0.508  0.00  0.00    +0.071 A 
ATOM     16  C   UNL     1       4.990   9.955   0.678  0.00  0.00    +0.126 A 
ATOM     17  C   UNL     1       4.279  10.375   1.794  0.00  0.00    +0.091 A 
ATOM     18  C   UNL     1       3.853   9.453   2.739  0.00  0.00    +0.126 A 
ATOM     19  C   UNL     1       4.138   8.107   2.574  0.00  0.00    +0.071 A 
BRANCH  18  20
ATOM     20  O   UNL     1       3.157   9.870   3.829  0.00  0.00    -0.495 OA
ATOM     21  C   UNL     1       2.898  11.271   3.936  0.00  0.00    +0.277 C 
ENDBRANCH  18  20
BRANCH  16  22
ATOM     22  O   UNL     1       5.404  10.862  -0.244  0.00  0.00    -0.495 OA
ATOM     23  C   UNL     1       5.071  12.231  -0.003  0.00  0.00    +0.277 C 
ENDBRANCH  16  22
ENDBRANCH  11  14
BRANCH   1  25
ATOM     24  N   UNL     1       7.090   4.600   0.519  0.00  0.00    -0.281 N 
ATOM     25  C   UNL     1       6.093   3.730   0.262  0.00  0.00    +0.253 C 
ATOM     26  O   UNL     1       6.348   2.565   0.025  0.00  0.00    -0.270 OA
ATOM     27  H   UNL     1       6.868   5.670   0.643  0.00  0.00    +0.155 HD
BRANCH  24  33
ATOM     28  C   UNL     1       9.466   5.001   0.373  0.00  0.00    -0.026 A 
ATOM     29  C   UNL     1      10.765   4.547   0.487  0.00  0.00    +0.005 A 
ATOM     30  C   UNL     1      11.011   3.234   0.845  0.00  0.00    +0.000 A 
ATOM     31  C   UNL     1       9.958   2.374   1.096  0.00  0.00    +0.002 A 
ATOM     32  C   UNL     1       8.656   2.823   0.989  0.00  0.00    +0.023 A 
ATOM     33  C   UNL     1       8.406   4.141   0.629  0.00  0.00    +0.037 A 
BRANCH  28  35
ATOM     34  C   UNL     1       9.005   7.281   1.234  0.00  0.00    +0.009 C 
ATOM     35  C   UNL     1       9.199   6.431  -0.023  0.00  0.00    +0.033 C 
ENDBRANCH  28  35
ENDBRANCH  24  33
ENDBRANCH   1  25
BRANCH   4  36
ATOM     36  C   UNL     1       1.300   1.558   0.028  0.00  0.00    +0.193 C 
BRANCH  36  37
ATOM     37  O   UNL     1       0.002   0.961   0.045  0.00  0.00    -0.390 OA
ATOM     38  H   UNL     1      -0.100  -0.134   0.035  0.00  0.00    +0.210 HD
ENDBRANCH  36  37
ENDBRANCH   4  36
TORSDOF 8
