REMARK  Name = ZINC20560238
REMARK  11 active torsions:
REMARK  status: ('A' for Active; 'I' for Inactive)
REMARK    1  A    between atoms: C_1  and  C_2
REMARK    2  A    between atoms: C_2  and  O_3
REMARK    3  A    between atoms: O_3  and  C_4
REMARK    4  A    between atoms: C_4  and  C_6
REMARK    5  A    between atoms: C_7  and  C_21
REMARK    6  A    between atoms: C_12  and  C_14
REMARK    7  A    between atoms: C_17  and  C_20
REMARK    8  A    between atoms: C_21  and  N_22
REMARK    9  A    between atoms: N_25  and  C_28
REMARK   10  A    between atoms: C_31  and  C_35
REMARK   11  A    between atoms: C_33  and  C_34
REMARK                            x       y       z     vdW  Elec       q    Type
REMARK                         _______ _______ _______ _____ _____    ______ ____
ROOT
ATOM      1  C   UNL     1      -1.256   1.896   0.106  0.00  0.00    +0.079 C 
ATOM      2  C   UNL     1      -2.421   1.240  -0.086  0.00  0.00    +0.038 C 
ATOM      3  N   UNL     1      -3.606   1.915  -0.160  0.00  0.00    -0.271 N 
ATOM      4  C   UNL     1      -3.709   3.247  -0.062  0.00  0.00    +0.304 C 
ATOM      5  O   UNL     1      -4.808   3.759  -0.146  0.00  0.00    -0.252 OA
ATOM      6  N   UNL     1      -2.634   4.037   0.125  0.00  0.00    -0.288 N 
ATOM      7  C   UNL     1      -1.307   3.405   0.224  0.00  0.00    +0.144 C 
ATOM      8  H   UNL     1      -4.545   1.363  -0.308  0.00  0.00    +0.156 HD
ATOM      9  H   UNL     1      -2.729   5.130   0.204  0.00  0.00    +0.151 HD
ENDROOT
BRANCH   7  10
ATOM     10  C   UNL     1      -0.710   3.788   1.554  0.00  0.00    -0.022 A 
ATOM     11  C   UNL     1      -1.468   3.693   2.706  0.00  0.00    +0.006 A 
ATOM     12  C   UNL     1      -0.918   4.039   3.926  0.00  0.00    +0.004 A 
ATOM     13  C   UNL     1       0.387   4.491   3.993  0.00  0.00    -0.050 A 
ATOM     14  C   UNL     1       1.143   4.591   2.840  0.00  0.00    +0.004 A 
ATOM     15  C   UNL     1       0.595   4.240   1.621  0.00  0.00    +0.006 A 
ATOM     16  C   UNL     1       0.984   4.874   5.322  0.00  0.00    +0.044 C 
ENDBRANCH   7  10
BRANCH   1  17
ATOM     17  C   UNL     1      -0.029   1.197   0.189  0.00  0.00    +0.339 C 
ATOM     18  O   UNL     1       0.467   0.964   1.276  0.00  0.00    -0.245 OA
BRANCH  17  19
ATOM     19  O   UNL     1       0.590   0.784  -0.937  0.00  0.00    -0.462 OA
BRANCH  19  21
ATOM     20  C   UNL     1       2.371  -0.305  -2.155  0.00  0.00    +0.048 C 
ATOM     21  C   UNL     1       1.823   0.079  -0.779  0.00  0.00    +0.229 C 
ENDBRANCH  19  21
ENDBRANCH  17  19
ENDBRANCH   1  17
BRANCH   2  22
ATOM     22  C   UNL     1      -2.414  -0.262  -0.215  0.00  0.00    +0.136 C 
BRANCH  22  23
ATOM     23  N   UNL     1      -3.152  -0.853   0.909  0.00  0.00    -0.294 NA
ATOM     24  C   UNL     1      -2.456  -0.611   2.181  0.00  0.00    +0.103 C 
ATOM     25  C   UNL     1      -3.294  -1.172   3.332  0.00  0.00    +0.120 C 
ATOM     26  N   UNL     1      -3.514  -2.610   3.120  0.00  0.00    -0.327 N 
ATOM     27  C   UNL     1      -4.209  -2.851   1.848  0.00  0.00    +0.120 C 
ATOM     28  C   UNL     1      -3.371  -2.291   0.697  0.00  0.00    +0.103 C 
BRANCH  26  29
ATOM     29  C   UNL     1      -4.215  -3.172   4.189  0.00  0.00    +0.033 A 
ATOM     30  C   UNL     1      -5.515  -2.763   4.461  0.00  0.00    +0.023 A 
ATOM     31  C   UNL     1      -6.205  -3.321   5.518  0.00  0.00    +0.005 A 
ATOM     32  C   UNL     1      -5.605  -4.287   6.306  0.00  0.00    -0.050 A 
ATOM     33  C   UNL     1      -4.312  -4.697   6.037  0.00  0.00    +0.008 A 
ATOM     34  C   UNL     1      -3.618  -4.146   4.978  0.00  0.00    -0.029 A 
ATOM     35  C   UNL     1      -2.211  -4.598   4.682  0.00  0.00    +0.045 C 
ATOM     36  C   UNL     1      -6.362  -4.894   7.459  0.00  0.00    +0.044 C 
ENDBRANCH  26  29
ENDBRANCH  22  23
ENDBRANCH   2  22
TORSDOF 7
