REMARK  Name = ZINC01055753
REMARK  6 active torsions:
REMARK  status: ('A' for Active; 'I' for Inactive)
REMARK    1  A    between atoms: C_1  and  C_2
REMARK    2  A    between atoms: C_4  and  N_7
REMARK    3  A    between atoms: N_7  and  S_8
REMARK    4  A    between atoms: S_8  and  C_11
REMARK    5  A    between atoms: C_14  and  N_17
REMARK    6  A    between atoms: C_18  and  C_20
REMARK                            x       y       z     vdW  Elec       q    Type
REMARK                         _______ _______ _______ _____ _____    ______ ____
ROOT
ATOM      1  C   UNL     1      -4.675  -0.397   0.290  0.00  0.00    +0.111 A 
ATOM      2  C   UNL     1      -4.753   0.981   0.203  0.00  0.00    +0.031 A 
ATOM      3  C   UNL     1      -3.600   1.736   0.113  0.00  0.00    +0.025 A 
ATOM      4  C   UNL     1      -2.360   1.109   0.110  0.00  0.00    +0.034 A 
ATOM      5  C   UNL     1      -2.285  -0.275   0.192  0.00  0.00    +0.025 A 
ATOM      6  C   UNL     1      -3.442  -1.023   0.287  0.00  0.00    +0.031 A 
ENDROOT
BRANCH   4   7
ATOM      7  N   UNL     1      -1.191   1.871   0.018  0.00  0.00    -0.281 N 
ATOM      8  C   UNL     1      -1.125   3.080   0.609  0.00  0.00    +0.249 C 
ATOM      9  O   UNL     1      -2.110   3.546   1.151  0.00  0.00    -0.270 OA
ATOM     10  H   UNL     1      -0.324   1.482  -0.537  0.00  0.00    +0.155 HD
BRANCH   8  11
ATOM     11  C   UNL     1       0.135   3.832   0.606  0.00  0.00    +0.052 A 
ATOM     12  C   UNL     1       1.247   3.328   0.005  0.00  0.00    +0.059 A 
ATOM     13  S   UNL     1       2.457   4.540   0.251  0.00  0.00    -0.096 S 
ATOM     14  C   UNL     1       1.505   5.732   1.155  0.00  0.00    +0.020 A 
ATOM     15  C   UNL     1       0.228   5.148   1.243  0.00  0.00    +0.001 A 
ATOM     16  C   UNL     1      -0.765   5.878   1.929  0.00  0.00    +0.010 A 
ATOM     17  C   UNL     1      -0.478   7.107   2.467  0.00  0.00    +0.001 A 
ATOM     18  C   UNL     1       0.789   7.662   2.361  0.00  0.00    +0.001 A 
ATOM     19  C   UNL     1       1.783   6.968   1.700  0.00  0.00    +0.015 A 
ENDBRANCH   8  11
ENDBRANCH   4   7
BRANCH   1  20
ATOM     20  S   UNL     1      -6.148  -1.355   0.404  0.00  0.00    +0.093 S 
ATOM     21  O   UNL     1      -5.787  -2.583   1.024  0.00  0.00    -0.148 OA
ATOM     22  O   UNL     1      -7.150  -0.499   0.936  0.00  0.00    -0.148 OA
BRANCH  20  23
ATOM     23  N   UNL     1      -6.613  -1.725  -1.142  0.00  0.00    -0.074 NA
BRANCH  23  27
ATOM     24  C   UNL     1      -4.748  -4.414  -4.898  0.00  0.00    +0.089 C 
ATOM     25  C   UNL     1      -4.998  -3.715  -3.586  0.00  0.00    +0.136 A 
ATOM     26  C   UNL     1      -6.065  -2.946  -3.271  0.00  0.00    +0.094 A 
ATOM     27  C   UNL     1      -5.810  -2.538  -1.934  0.00  0.00    +0.205 A 
ATOM     28  N   UNL     1      -4.666  -3.076  -1.600  0.00  0.00    -0.060 NA
ATOM     29  O   UNL     1      -4.207  -3.736  -2.504  0.00  0.00    -0.358 OA
ENDBRANCH  23  27
ENDBRANCH  20  23
ENDBRANCH   1  20
TORSDOF 5
