REMARK  Name = ZINC36221439
REMARK  2 active torsions:
REMARK  status: ('A' for Active; 'I' for Inactive)
REMARK    1  A    between atoms: N_10  and  C_11
REMARK    2  A    between atoms: N_17  and  N_18
REMARK                            x       y       z     vdW  Elec       q    Type
REMARK                         _______ _______ _______ _____ _____    ______ ____
ROOT
ATOM      1  C   UNL     1       4.806   0.061  -0.342  0.00  0.00    +0.052 A 
ATOM      2  C   UNL     1       5.807   0.198   0.620  0.00  0.00    +0.028 A 
ATOM      3  C   UNL     1       6.953   0.894   0.285  0.00  0.00    +0.046 A 
ATOM      4  C   UNL     1       7.070   1.432  -0.993  0.00  0.00    +0.132 A 
ATOM      5  N   UNL     1       6.100   1.283  -1.881  0.00  0.00    -0.237 NA
ATOM      6  C   UNL     1       4.995   0.620  -1.597  0.00  0.00    +0.136 A 
ATOM      7  N   UNL     1       8.220   2.135  -1.341  0.00  0.00    -0.268 N 
ATOM      8  H   UNL     1       8.934   2.248  -0.695  0.00  0.00    +0.167 HD
ENDROOT
BRANCH   1  18
ATOM      9  C   UNL     1       0.005   1.406   0.163  0.00  0.00    +0.000 A 
ATOM     10  C   UNL     1       1.198   2.106   0.155  0.00  0.00    +0.002 A 
ATOM     11  C   UNL     1       2.396   1.425   0.088  0.00  0.00    +0.024 A 
ATOM     12  C   UNL     1       2.404   0.035   0.028  0.00  0.00    +0.037 A 
ATOM     13  C   UNL     1       1.208  -0.666   0.038  0.00  0.00    -0.026 A 
ATOM     14  C   UNL     1       0.010   0.026   0.104  0.00  0.00    +0.005 A 
ATOM     15  C   UNL     1       1.178  -2.171  -0.015  0.00  0.00    +0.038 C 
ATOM     16  C   UNL     1       2.491  -2.713  -0.580  0.00  0.00    +0.024 C 
ATOM     17  C   UNL     1       3.659  -2.086   0.192  0.00  0.00    +0.111 C 
ATOM     18  N   UNL     1       3.629  -0.637  -0.046  0.00  0.00    -0.299 N 
ENDBRANCH   1  18
BRANCH   7  19
ATOM     19  N   UNL     1       8.343   2.667  -2.594  0.00  0.00    -0.255 NA
ATOM     20  H   UNL     1       7.571   3.282  -2.803  0.00  0.00    +0.140 HD
ATOM     21  H   UNL     1       9.225   3.145  -2.699  0.00  0.00    +0.140 HD
ENDBRANCH   7  19
TORSDOF 2
