REMARK  Name = ZINC09714928
REMARK  6 active torsions:
REMARK  status: ('A' for Active; 'I' for Inactive)
REMARK    1  A    between atoms: C_1  and  C_2
REMARK    2  A    between atoms: N_4  and  C_5
REMARK    3  A    between atoms: C_15  and  C_17
REMARK    4  A    between atoms: C_20  and  N_23
REMARK    5  A    between atoms: N_23  and  S_24
REMARK    6  A    between atoms: S_24  and  C_27
REMARK                            x       y       z     vdW  Elec       q    Type
REMARK                         _______ _______ _______ _____ _____    ______ ____
ROOT
ATOM      1  C   UNL     1      10.302   0.800  -9.408  0.00  0.00    +0.035 A 
ATOM      2  C   UNL     1       9.937  -0.531  -9.599  0.00  0.00    +0.025 A 
ATOM      3  C   UNL     1       8.946  -1.109  -8.870  0.00  0.00    +0.031 A 
ATOM      4  C   UNL     1       8.245  -0.375  -7.885  0.00  0.00    +0.080 A 
ATOM      5  C   UNL     1       8.636   0.972  -7.712  0.00  0.00    +0.043 A 
ATOM      6  C   UNL     1       9.637   1.553  -8.449  0.00  0.00    +0.040 A 
ATOM      7  S   UNL     1       7.540   1.522  -6.426  0.00  0.00    -0.052 S 
ATOM      8  C   UNL     1       6.667  -0.021  -6.200  0.00  0.00    +0.166 A 
ATOM      9  N   UNL     1       7.244  -0.801  -7.083  0.00  0.00    -0.225 NA
ATOM     10  N   UNL     1       5.639  -0.317  -5.320  0.00  0.00    -0.261 N 
ATOM     11  C   UNL     1       5.101  -1.552  -5.303  0.00  0.00    +0.250 C 
ATOM     12  O   UNL     1       5.517  -2.407  -6.061  0.00  0.00    -0.270 OA
ATOM     13  H   UNL     1       5.307   0.366  -4.715  0.00  0.00    +0.157 HD
ENDROOT
BRANCH  11  14
ATOM     14  C   UNL     1       4.007  -1.867  -4.366  0.00  0.00    +0.037 A 
ATOM     15  C   UNL     1       3.447  -3.148  -4.347  0.00  0.00    +0.015 A 
ATOM     16  C   UNL     1       2.426  -3.438  -3.472  0.00  0.00    +0.025 A 
ATOM     17  C   UNL     1       1.950  -2.458  -2.605  0.00  0.00    +0.048 A 
ATOM     18  C   UNL     1       2.502  -1.179  -2.625  0.00  0.00    +0.025 A 
ATOM     19  C   UNL     1       3.526  -0.884  -3.494  0.00  0.00    +0.015 A 
BRANCH  17  20
ATOM     20  N   UNL     1       0.917  -2.754  -1.722  0.00  0.00    -0.216 N 
ATOM     21  H   UNL     1       0.024  -2.415  -1.889  0.00  0.00    +0.174 HD
BRANCH  20  22
ATOM     22  S   UNL     1       1.213  -3.687  -0.386  0.00  0.00    +0.072 S 
ATOM     23  O   UNL     1       1.875  -4.857  -0.846  0.00  0.00    -0.150 OA
ATOM     24  O   UNL     1      -0.001  -3.738   0.350  0.00  0.00    -0.150 OA
BRANCH  22  25
ATOM     25  C   UNL     1       2.371  -2.812   0.614  0.00  0.00    +0.109 A 
ATOM     26  C   UNL     1       1.928  -1.849   1.502  0.00  0.00    +0.031 A 
ATOM     27  C   UNL     1       2.836  -1.163   2.286  0.00  0.00    +0.040 A 
ATOM     28  C   UNL     1       4.188  -1.440   2.183  0.00  0.00    +0.124 A 
ATOM     29  C   UNL     1       4.630  -2.404   1.293  0.00  0.00    +0.040 A 
ATOM     30  C   UNL     1       3.721  -3.090   0.510  0.00  0.00    +0.031 A 
ATOM     31  F   UNL     1       5.076  -0.769   2.949  0.00  0.00    -0.205 F 
ENDBRANCH  22  25
ENDBRANCH  20  22
ENDBRANCH  17  20
ENDBRANCH  11  14
BRANCH   1  35
ATOM     32  C   UNL     1      13.146   3.017 -10.491  0.00  0.00    +0.109 C 
ATOM     33  C   UNL     1      12.121   2.319  -9.635  0.00  0.00    +0.214 C 
ATOM     34  O   UNL     1      12.010   2.610  -8.463  0.00  0.00    -0.276 OA
ATOM     35  N   UNL     1      11.327   1.371 -10.172  0.00  0.00    -0.286 N 
ATOM     36  H   UNL     1      11.466   1.085 -11.089  0.00  0.00    +0.155 HD
ENDBRANCH   1  35
TORSDOF 5
