REMARK  Name = ZINC12151399
REMARK  11 active torsions:
REMARK  status: ('A' for Active; 'I' for Inactive)
REMARK    1  A    between atoms: C_1  and  C_2
REMARK    2  A    between atoms: C_2  and  C_3
REMARK    3  A    between atoms: C_2  and  N_4
REMARK    4  A    between atoms: C_5  and  C_7
REMARK    5  A    between atoms: C_10  and  S_24
REMARK    6  A    between atoms: C_13  and  C_14
REMARK    7  A    between atoms: C_13  and  N_62
REMARK    8  A    between atoms: C_19  and  O_20
REMARK    9  A    between atoms: O_20  and  C_21
REMARK   10  A    between atoms: C_21  and  C_22
REMARK   11  A    between atoms: S_24  and  C_25
REMARK                            x       y       z     vdW  Elec       q    Type
REMARK                         _______ _______ _______ _____ _____    ______ ____
ROOT
ATOM      1  C   UNL     1      -1.300  -0.773  -0.054  0.00  0.00    +0.021 C 
ATOM      2  C   UNL     1      -2.023  -0.499   1.282  0.00  0.00    +0.006 C 
ATOM      3  C   UNL     1      -2.611  -1.889   1.649  0.00  0.00    +0.037 C 
ATOM      4  C   UNL     1      -1.507  -2.845   1.133  0.00  0.00    -0.063 C 
ATOM      5  N   UNL     1      -1.036  -2.219  -0.118  0.00  0.00    +0.391 N 
ATOM      6  H   UNL     1      -1.546  -2.623  -0.913  0.00  0.00    -0.080 HD
ENDROOT
BRANCH   1   8
ATOM      7  N   UNL     1       0.201   0.891  -1.101  0.00  0.00    -0.314 N 
ATOM      8  C   UNL     1      -0.011   0.005  -0.108  0.00  0.00    +0.200 C 
ATOM      9  O   UNL     1       0.837  -0.167   0.742  0.00  0.00    -0.278 OA
ATOM     10  H   UNL     1      -0.475   1.026  -1.783  0.00  0.00    +0.149 HD
BRANCH   7  12
ATOM     11  C   UNL     1       2.522   0.815  -1.867  0.00  0.00    +0.027 C 
ATOM     12  C   UNL     1       1.455   1.647  -1.153  0.00  0.00    +0.067 C 
ATOM     13  C   UNL     1       1.231   2.953  -1.918  0.00  0.00    +0.027 C 
ENDBRANCH   7  12
ENDBRANCH   1   8
BRANCH   5  14
ATOM     14  C   UNL     1       0.418  -2.467  -0.298  0.00  0.00    -0.038 C 
BRANCH  14  15
ATOM     15  C   UNL     1       0.676  -3.952  -0.297  0.00  0.00    -0.022 A 
ATOM     16  C   UNL     1       1.152  -4.570   0.843  0.00  0.00    +0.005 A 
ATOM     17  C   UNL     1       1.388  -5.932   0.845  0.00  0.00    +0.000 A 
ATOM     18  C   UNL     1       1.148  -6.679  -0.294  0.00  0.00    +0.004 A 
ATOM     19  C   UNL     1       0.671  -6.066  -1.436  0.00  0.00    +0.046 A 
ATOM     20  C   UNL     1       0.429  -4.700  -1.439  0.00  0.00    +0.122 A 
BRANCH  20  21
ATOM     21  O   UNL     1      -0.044  -4.095  -2.560  0.00  0.00    -0.488 OA
BRANCH  21  22
ATOM     22  C   UNL     1      -0.275  -4.927  -3.698  0.00  0.00    +0.256 C 
BRANCH  22  23
ATOM     23  C   UNL     1      -0.795  -4.088  -4.837  0.00  0.00    +0.006 C 
ATOM     24  C   UNL     1      -0.309  -4.247  -6.043  0.00  0.00    +0.007 C 
ENDBRANCH  22  23
ENDBRANCH  21  22
ENDBRANCH  20  21
ENDBRANCH  14  15
ENDBRANCH   5  14
BRANCH   3  25
ATOM     25  S   UNL     1      -2.825  -2.053   3.439  0.00  0.00    -0.086 S 
BRANCH  25  26
ATOM     26  C   UNL     1      -3.455  -3.696   3.524  0.00  0.00    +0.167 A 
ATOM     27  N   UNL     1      -3.799  -4.347   4.675  0.00  0.00    -0.333 N 
ATOM     28  H   UNL     1      -3.739  -3.981   5.603  0.00  0.00    +0.168 HD
ATOM     29  C   UNL     1      -4.247  -5.608   4.315  0.00  0.00    +0.067 A 
ATOM     30  C   UNL     1      -4.720  -6.699   5.027  0.00  0.00    +0.028 A 
ATOM     31  C   UNL     1      -5.098  -7.845   4.358  0.00  0.00    +0.002 A 
ATOM     32  C   UNL     1      -5.006  -7.913   2.976  0.00  0.00    +0.002 A 
ATOM     33  C   UNL     1      -4.538  -6.840   2.252  0.00  0.00    +0.030 A 
ATOM     34  C   UNL     1      -4.152  -5.672   2.915  0.00  0.00    +0.090 A 
ATOM     35  N   UNL     1      -3.668  -4.475   2.491  0.00  0.00    -0.222 NA
ENDBRANCH  25  26
ENDBRANCH   3  25
TORSDOF 9
