REMARK  Name = ZINC01631529
REMARK  15 active torsions:
REMARK  status: ('A' for Active; 'I' for Inactive)
REMARK    1  A    between atoms: C_1  and  O_2
REMARK    2  A    between atoms: O_2  and  C_3
REMARK    3  A    between atoms: C_5  and  C_11
REMARK    4  A    between atoms: C_7  and  O_9
REMARK    5  A    between atoms: O_9  and  C_10
REMARK    6  A    between atoms: C_11  and  N_69
REMARK    7  A    between atoms: C_12  and  N_69
REMARK    8  A    between atoms: C_18  and  O_36
REMARK    9  A    between atoms: C_19  and  O_34
REMARK   10  A    between atoms: C_20  and  O_32
REMARK   11  A    between atoms: C_27  and  S_30
REMARK   12  A    between atoms: S_30  and  C_31
REMARK   13  A    between atoms: O_32  and  C_33
REMARK   14  A    between atoms: O_34  and  C_35
REMARK   15  A    between atoms: O_36  and  C_37
REMARK                            x       y       z     vdW  Elec       q    Type
REMARK                         _______ _______ _______ _____ _____    ______ ____
ROOT
ATOM      1  C   UNL     1      -3.060   3.353   0.199  0.00  0.00    -0.039 C 
ATOM      2  C   UNL     1      -3.769   3.286  -1.150  0.00  0.00    -0.007 C 
ATOM      3  C   UNL     1      -3.407   2.006  -1.900  0.00  0.00    +0.035 C 
ATOM      4  C   UNL     1      -3.448   0.834  -0.954  0.00  0.00    -0.033 A 
ATOM      5  C   UNL     1      -4.503  -0.053  -0.995  0.00  0.00    +0.054 A 
ATOM      6  C   UNL     1      -4.532  -1.142  -0.133  0.00  0.00    +0.165 A 
ATOM      7  C   UNL     1      -3.499  -1.344   0.777  0.00  0.00    +0.204 A 
ATOM      8  C   UNL     1      -2.436  -0.453   0.828  0.00  0.00    +0.173 A 
ATOM      9  C   UNL     1      -2.415   0.643  -0.041  0.00  0.00    +0.031 A 
ATOM     10  C   UNL     1      -1.277   1.609   0.018  0.00  0.00    -0.012 A 
ATOM     11  C   UNL     1      -1.601   2.963   0.072  0.00  0.00    -0.050 A 
ATOM     12  C   UNL     1      -0.715   3.976   0.030  0.00  0.00    +0.054 A 
ATOM     13  C   UNL     1       0.647   4.016  -0.036  0.00  0.00    +0.192 A 
ATOM     14  O   UNL     1       1.142   5.132  -0.116  0.00  0.00    -0.287 OA
ATOM     15  C   UNL     1       1.548   2.953  -0.023  0.00  0.00    +0.054 A 
ATOM     16  C   UNL     1       1.211   1.631  -0.001  0.00  0.00    +0.019 A 
ATOM     17  C   UNL     1      -0.013   1.076   0.008  0.00  0.00    +0.010 A 
ENDROOT
BRANCH   1  18
ATOM     18  N   UNL     1      -3.147   4.732   0.715  0.00  0.00    +0.386 N 
ATOM     19  H   UNL     1      -2.368   5.284   0.339  0.00  0.00    -0.085 HD
ATOM     20  H   UNL     1      -4.038   5.148   0.418  0.00  0.00    -0.085 HD
BRANCH  18  21
ATOM     21  C   UNL     1      -3.078   4.732   2.188  0.00  0.00    -0.046 C 
BRANCH  21  24
ATOM     22  C   UNL     1      -4.491   8.011   3.430  0.00  0.00    +0.124 A 
ATOM     23  C   UNL     1      -4.404   6.704   2.971  0.00  0.00    +0.047 A 
ATOM     24  C   UNL     1      -3.170   6.152   2.686  0.00  0.00    -0.057 A 
ATOM     25  C   UNL     1      -2.019   6.896   2.863  0.00  0.00    +0.047 A 
ATOM     26  C   UNL     1      -2.102   8.205   3.317  0.00  0.00    +0.124 A 
ATOM     27  C   UNL     1      -3.339   8.762   3.604  0.00  0.00    +0.091 A 
BRANCH  22  29
ATOM     28  C   UNL     1      -5.720   9.903   4.180  0.00  0.00    +0.277 C 
ATOM     29  O   UNL     1      -5.705   8.553   3.711  0.00  0.00    -0.495 OA
ENDBRANCH  22  29
BRANCH  26  30
ATOM     30  O   UNL     1      -0.971   8.939   3.487  0.00  0.00    -0.495 OA
ATOM     31  C   UNL     1      -1.130  10.277   3.963  0.00  0.00    +0.277 C 
ENDBRANCH  26  30
ENDBRANCH  21  24
ENDBRANCH  18  21
ENDBRANCH   1  18
BRANCH  15  32
ATOM     32  S   UNL     1       3.265   3.350  -0.037  0.00  0.00    -0.125 S 
ATOM     33  C   UNL     1       3.972   1.684  -0.014  0.00  0.00    +0.090 C 
ENDBRANCH  15  32
BRANCH   8  34
ATOM     34  O   UNL     1      -1.424  -0.644   1.714  0.00  0.00    -0.491 OA
ATOM     35  C   UNL     1      -1.566  -0.038   3.001  0.00  0.00    +0.277 C 
ENDBRANCH   8  34
BRANCH   7  36
ATOM     36  O   UNL     1      -3.531  -2.416   1.615  0.00  0.00    -0.488 OA
ATOM     37  C   UNL     1      -2.921  -3.622   1.151  0.00  0.00    +0.277 C 
ENDBRANCH   7  36
BRANCH   6  38
ATOM     38  O   UNL     1      -5.574  -2.014  -0.179  0.00  0.00    -0.491 OA
ATOM     39  C   UNL     1      -6.601  -1.748  -1.137  0.00  0.00    +0.277 C 
ENDBRANCH   6  38
TORSDOF 9
