REMARK  Name = ZINC34923501
REMARK  11 active torsions:
REMARK  status: ('A' for Active; 'I' for Inactive)
REMARK    1  A    between atoms: C_1  and  C_2
REMARK    2  A    between atoms: C_3  and  C_32
REMARK    3  A    between atoms: C_4  and  C_24
REMARK    4  A    between atoms: C_7  and  C_12
REMARK    5  A    between atoms: C_13  and  N_15
REMARK    6  A    between atoms: N_15  and  C_16
REMARK    7  A    between atoms: C_16  and  C_17
REMARK    8  A    between atoms: C_27  and  O_30
REMARK    9  A    between atoms: O_30  and  C_31
REMARK   10  A    between atoms: C_32  and  O_34
REMARK   11  A    between atoms: O_34  and  C_35
REMARK                            x       y       z     vdW  Elec       q    Type
REMARK                         _______ _______ _______ _____ _____    ______ ____
ROOT
ATOM      1  C   UNL     1      -0.019   1.549   0.216  0.00  0.00    +0.066 C 
ATOM      2  C   UNL     1      -0.014   0.043   0.159  0.00  0.00    +0.053 C 
ATOM      3  C   UNL     1      -1.211  -0.647   0.145  0.00  0.00    +0.082 C 
ATOM      4  C   UNL     1      -1.154  -2.158   0.086  0.00  0.00    +0.150 C 
ATOM      5  N   UNL     1       0.195  -2.782   0.048  0.00  0.00    -0.267 N 
ATOM      6  C   UNL     1       0.485  -4.131  -0.007  0.00  0.00    +0.048 C 
ATOM      7  C   UNL     1       1.787  -4.492  -0.035  0.00  0.00    +0.072 C 
ATOM      8  S   UNL     1       2.609  -2.912   0.018  0.00  0.00    -0.060 S 
ATOM      9  C   UNL     1       1.256  -1.920   0.070  0.00  0.00    +0.166 C 
ATOM     10  N   UNL     1       1.136  -0.609   0.117  0.00  0.00    -0.230 NA
ENDROOT
BRANCH   4  11
ATOM     11  C   UNL     1      -1.905  -2.603  -1.142  0.00  0.00    -0.022 A 
ATOM     12  C   UNL     1      -1.343  -2.435  -2.394  0.00  0.00    +0.009 A 
ATOM     13  C   UNL     1      -2.030  -2.842  -3.521  0.00  0.00    +0.046 A 
ATOM     14  C   UNL     1      -3.285  -3.421  -3.396  0.00  0.00    +0.120 A 
ATOM     15  C   UNL     1      -3.846  -3.588  -2.139  0.00  0.00    +0.046 A 
ATOM     16  C   UNL     1      -3.153  -3.184  -1.014  0.00  0.00    +0.009 A 
BRANCH  14  17
ATOM     17  O   UNL     1      -3.963  -3.821  -4.504  0.00  0.00    -0.495 OA
ATOM     18  C   UNL     1      -5.249  -4.409  -4.300  0.00  0.00    +0.277 C 
ENDBRANCH  14  17
ENDBRANCH   4  11
BRANCH   6  19
ATOM     19  C   UNL     1      -0.585  -5.139  -0.035  0.00  0.00    +0.091 C 
ATOM     20  C   UNL     1      -0.279  -6.448   0.058  0.00  0.00    +0.239 C 
ATOM     21  O   UNL     1       0.996  -6.830   0.311  0.00  0.00    -0.271 OA
BRANCH  20  22
ATOM     22  N   UNL     1      -1.269  -7.402  -0.104  0.00  0.00    -0.308 N 
ATOM     23  H   UNL     1      -2.194  -7.129  -0.211  0.00  0.00    +0.149 HD
BRANCH  22  24
ATOM     24  C   UNL     1      -0.920  -8.825  -0.114  0.00  0.00    +0.142 C 
BRANCH  24  25
ATOM     25  C   UNL     1      -2.147  -9.642  -0.427  0.00  0.00    +0.005 A 
ATOM     26  C   UNL     1      -2.848 -10.255   0.595  0.00  0.00    +0.008 A 
ATOM     27  C   UNL     1      -3.974 -11.004   0.309  0.00  0.00    +0.000 A 
ATOM     28  C   UNL     1      -4.401 -11.140  -0.999  0.00  0.00    +0.003 A 
ATOM     29  C   UNL     1      -3.702 -10.528  -2.022  0.00  0.00    +0.038 A 
ATOM     30  C   UNL     1      -2.577  -9.773  -1.736  0.00  0.00    +0.128 A 
ATOM     31  F   UNL     1      -1.895  -9.170  -2.735  0.00  0.00    -0.205 F 
ENDBRANCH  24  25
ENDBRANCH  22  24
ENDBRANCH  20  22
ENDBRANCH   6  19
BRANCH   3  32
ATOM     32  C   UNL     1      -2.437   0.029   0.184  0.00  0.00    +0.339 C 
ATOM     33  O   UNL     1      -2.459   1.246   0.231  0.00  0.00    -0.245 OA
BRANCH  32  34
ATOM     34  O   UNL     1      -3.594  -0.669   0.169  0.00  0.00    -0.465 OA
ATOM     35  C   UNL     1      -4.807   0.086   0.210  0.00  0.00    +0.280 C 
ENDBRANCH  32  34
ENDBRANCH   3  32
TORSDOF 8
