REMARK  Name = ZINC35909988
REMARK  12 active torsions:
REMARK  status: ('A' for Active; 'I' for Inactive)
REMARK    1  A    between atoms: C_1  and  C_2
REMARK    2  A    between atoms: N_6  and  C_28
REMARK    3  A    between atoms: C_10  and  N_15
REMARK    4  A    between atoms: N_18  and  C_19
REMARK    5  A    between atoms: C_22  and  C_25
REMARK    6  A    between atoms: C_25  and  C_26
REMARK    7  A    between atoms: C_25  and  C_27
REMARK    8  A    between atoms: C_28  and  C_29
REMARK    9  A    between atoms: C_33  and  O_37
REMARK   10  A    between atoms: C_34  and  O_35
REMARK   11  A    between atoms: O_35  and  C_36
REMARK   12  A    between atoms: O_37  and  C_38
REMARK                            x       y       z     vdW  Elec       q    Type
REMARK                         _______ _______ _______ _____ _____    ______ ____
ROOT
ATOM      1  C   UNL     1       0.830   1.386  -0.830  0.00  0.00    +0.062 C 
ATOM      2  C   UNL     1       0.624  -0.117  -0.627  0.00  0.00    +0.256 C 
ATOM      3  C   UNL     1      -0.832  -0.391  -0.409  0.00  0.00    +0.257 C 
ATOM      4  O   UNL     1      -1.552   0.534  -0.721  0.00  0.00    -0.272 OA
ATOM      5  N   UNL     1      -1.464  -1.399   0.037  0.00  0.00    -0.290 N 
ATOM      6  C   UNL     1      -1.054  -2.576   0.727  0.00  0.00    +0.147 C 
ATOM      7  C   UNL     1       0.387  -2.734   1.101  0.00  0.00    +0.013 A 
ATOM      8  C   UNL     1       0.660  -3.967   1.714  0.00  0.00    +0.032 A 
ATOM      9  C   UNL     1       1.942  -4.320   2.081  0.00  0.00    +0.035 A 
ATOM     10  C   UNL     1       2.980  -3.432   1.827  0.00  0.00    +0.027 A 
ATOM     11  C   UNL     1       2.701  -2.223   1.248  0.00  0.00    +0.048 A 
ATOM     12  C   UNL     1       1.380  -1.846   0.903  0.00  0.00    +0.126 A 
ATOM     13  O   UNL     1       1.383  -0.545   0.486  0.00  0.00    -0.480 OA
ENDROOT
BRANCH   9  14
ATOM     14  N   UNL     1       2.193  -5.552   2.701  0.00  0.00    -0.269 N 
ATOM     15  C   UNL     1       3.195  -5.665   3.595  0.00  0.00    +0.308 C 
ATOM     16  O   UNL     1       3.820  -4.679   3.936  0.00  0.00    -0.252 OA
ATOM     17  N   UNL     1       3.504  -6.870   4.113  0.00  0.00    -0.269 N 
ATOM     18  H   UNL     1       1.646  -6.324   2.486  0.00  0.00    +0.156 HD
ATOM     19  H   UNL     1       3.057  -7.667   3.787  0.00  0.00    +0.156 HD
BRANCH  17  20
ATOM     20  C   UNL     1       4.469  -6.973   5.120  0.00  0.00    +0.035 A 
ATOM     21  C   UNL     1       4.608  -5.957   6.057  0.00  0.00    +0.023 A 
ATOM     22  C   UNL     1       5.562  -6.061   7.050  0.00  0.00    +0.006 A 
ATOM     23  C   UNL     1       6.379  -7.175   7.113  0.00  0.00    -0.045 A 
ATOM     24  C   UNL     1       6.243  -8.188   6.181  0.00  0.00    +0.006 A 
ATOM     25  C   UNL     1       5.287  -8.093   5.189  0.00  0.00    +0.023 A 
BRANCH  23  26
ATOM     26  C   UNL     1       7.419  -7.285   8.197  0.00  0.00    +0.013 C 
ATOM     27  C   UNL     1       7.145  -8.530   9.043  0.00  0.00    +0.012 C 
ATOM     28  C   UNL     1       8.807  -7.394   7.563  0.00  0.00    +0.012 C 
ENDBRANCH  23  26
ENDBRANCH  17  20
ENDBRANCH   9  14
BRANCH   5  29
ATOM     29  C   UNL     1      -2.908  -1.337  -0.206  0.00  0.00    +0.147 C 
BRANCH  29  30
ATOM     30  C   UNL     1      -3.221  -1.980  -1.533  0.00  0.00    +0.015 A 
ATOM     31  C   UNL     1      -3.426  -1.194  -2.651  0.00  0.00    +0.009 A 
ATOM     32  C   UNL     1      -3.714  -1.780  -3.869  0.00  0.00    +0.004 A 
ATOM     33  C   UNL     1      -3.798  -3.157  -3.974  0.00  0.00    +0.049 A 
ATOM     34  C   UNL     1      -3.594  -3.951  -2.858  0.00  0.00    +0.162 A 
ATOM     35  C   UNL     1      -3.298  -3.360  -1.633  0.00  0.00    +0.166 A 
BRANCH  35  36
ATOM     36  O   UNL     1      -3.091  -4.135  -0.535  0.00  0.00    -0.491 OA
ATOM     37  C   UNL     1      -4.235  -4.456   0.259  0.00  0.00    +0.277 C 
ENDBRANCH  35  36
BRANCH  34  38
ATOM     38  O   UNL     1      -3.676  -5.304  -2.960  0.00  0.00    -0.491 OA
ATOM     39  C   UNL     1      -3.978  -5.840  -4.249  0.00  0.00    +0.277 C 
ENDBRANCH  34  38
ENDBRANCH  29  30
ENDBRANCH   5  29
TORSDOF 7
