REMARK  Name = ZINC09320603
REMARK  6 active torsions:
REMARK  status: ('A' for Active; 'I' for Inactive)
REMARK    1  A    between atoms: C_1  and  C_2
REMARK    2  A    between atoms: C_7  and  C_12
REMARK    3  A    between atoms: C_12  and  C_14
REMARK    4  A    between atoms: C_19  and  C_21
REMARK    5  A    between atoms: C_25  and  O_27
REMARK    6  A    between atoms: O_27  and  C_28
REMARK                            x       y       z     vdW  Elec       q    Type
REMARK                         _______ _______ _______ _____ _____    ______ ____
ROOT
ATOM      1  C   UNL     1      -3.760   3.026  -0.023  0.00  0.00    +0.077 C 
ATOM      2  C   UNL     1      -5.047   3.445  -0.082  0.00  0.00    +0.250 C 
ATOM      3  C   UNL     1      -5.939   2.268  -0.104  0.00  0.00    +0.293 C 
ATOM      4  O   UNL     1      -7.152   2.314  -0.158  0.00  0.00    -0.266 OA
ATOM      5  N   UNL     1      -5.211   1.138  -0.052  0.00  0.00    -0.232 N 
ATOM      6  C   UNL     1      -3.794   1.516   0.003  0.00  0.00    +0.152 C 
ATOM      7  C   UNL     1      -5.710  -0.153  -0.050  0.00  0.00    +0.169 A 
ATOM      8  N   UNL     1      -5.055  -1.289  -0.007  0.00  0.00    -0.224 NA
ATOM      9  C   UNL     1      -5.678  -2.488  -0.006  0.00  0.00    +0.080 A 
ATOM     10  C   UNL     1      -5.094  -3.775   0.041  0.00  0.00    +0.032 A 
ATOM     11  C   UNL     1      -5.876  -4.900   0.028  0.00  0.00    +0.040 A 
ATOM     12  C   UNL     1      -7.262  -4.820  -0.034  0.00  0.00    +0.125 A 
ATOM     13  C   UNL     1      -7.867  -3.575  -0.083  0.00  0.00    +0.055 A 
ATOM     14  C   UNL     1      -7.090  -2.444  -0.069  0.00  0.00    +0.043 A 
ATOM     15  S   UNL     1      -7.412  -0.697  -0.115  0.00  0.00    -0.052 S 
ATOM     16  F   UNL     1      -8.011  -5.944  -0.047  0.00  0.00    -0.205 F 
ATOM     17  O   UNL     1      -5.450   4.736  -0.116  0.00  0.00    -0.282 OA
ENDROOT
BRANCH   6  18
ATOM     18  C   UNL     1      -3.062   0.960  -1.191  0.00  0.00    -0.019 A 
ATOM     19  C   UNL     1      -3.641   1.019  -2.446  0.00  0.00    +0.006 A 
ATOM     20  C   UNL     1      -2.970   0.514  -3.544  0.00  0.00    +0.004 A 
ATOM     21  C   UNL     1      -1.722  -0.059  -3.389  0.00  0.00    +0.045 A 
ATOM     22  C   UNL     1      -1.141  -0.123  -2.131  0.00  0.00    +0.120 A 
ATOM     23  C   UNL     1      -1.815   0.388  -1.031  0.00  0.00    +0.051 A 
BRANCH  22  24
ATOM     24  O   UNL     1       0.086  -0.687  -1.976  0.00  0.00    -0.495 OA
ATOM     25  C   UNL     1       0.721  -1.193  -3.152  0.00  0.00    +0.277 C 
ENDBRANCH  22  24
ENDBRANCH   6  18
BRANCH   1  26
ATOM     26  C   UNL     1      -2.566   3.875   0.014  0.00  0.00    +0.195 C 
ATOM     27  O   UNL     1      -2.279   4.564  -0.947  0.00  0.00    -0.287 OA
BRANCH  26  33
ATOM     28  C   UNL     1       1.007   6.465   4.884  0.00  0.00    +0.052 C 
ATOM     29  C   UNL     1       1.624   5.235   4.216  0.00  0.00    +0.175 C 
ATOM     30  C   UNL     1       1.563   5.360   2.675  0.00  0.00    +0.083 C 
ATOM     31  C   UNL     1       0.260   4.653   2.355  0.00  0.00    -0.002 A 
ATOM     32  C   UNL     1      -0.529   4.642   1.231  0.00  0.00    +0.019 A 
ATOM     33  C   UNL     1      -1.710   3.893   1.217  0.00  0.00    +0.023 A 
ATOM     34  C   UNL     1      -2.072   3.157   2.350  0.00  0.00    +0.015 A 
ATOM     35  C   UNL     1      -1.276   3.177   3.470  0.00  0.00    +0.046 A 
ATOM     36  C   UNL     1      -0.096   3.923   3.486  0.00  0.00    +0.124 A 
ATOM     37  O   UNL     1       0.830   4.064   4.472  0.00  0.00    -0.488 OA
ENDBRANCH  26  33
ENDBRANCH   1  26
TORSDOF 4
