REMARK  Name = ZINC34921062
REMARK  8 active torsions:
REMARK  status: ('A' for Active; 'I' for Inactive)
REMARK    1  A    between atoms: C_1  and  C_2
REMARK    2  A    between atoms: C_5  and  C_7
REMARK    3  A    between atoms: C_7  and  C_9
REMARK    4  A    between atoms: C_14  and  C_16
REMARK    5  A    between atoms: C_19  and  O_24
REMARK    6  A    between atoms: C_20  and  O_22
REMARK    7  A    between atoms: O_22  and  C_23
REMARK    8  A    between atoms: O_24  and  C_25
REMARK                            x       y       z     vdW  Elec       q    Type
REMARK                         _______ _______ _______ _____ _____    ______ ____
ROOT
ATOM      1  C   UNL     1       3.087  -3.130  -0.368  0.00  0.00    +0.080 C 
ATOM      2  C   UNL     1       4.147  -3.965  -0.465  0.00  0.00    +0.250 C 
ATOM      3  C   UNL     1       5.387  -3.208  -0.210  0.00  0.00    +0.293 C 
ATOM      4  O   UNL     1       6.507  -3.679  -0.225  0.00  0.00    -0.266 OA
ATOM      5  N   UNL     1       5.096  -1.919   0.041  0.00  0.00    -0.232 N 
ATOM      6  C   UNL     1       3.639  -1.761  -0.043  0.00  0.00    +0.152 C 
ATOM      7  C   UNL     1       6.009  -0.917   0.323  0.00  0.00    +0.169 A 
ATOM      8  N   UNL     1       5.786   0.350   0.581  0.00  0.00    -0.224 NA
ATOM      9  C   UNL     1       6.783   1.224   0.842  0.00  0.00    +0.080 A 
ATOM     10  C   UNL     1       6.681   2.604   1.132  0.00  0.00    +0.030 A 
ATOM     11  C   UNL     1       7.801   3.354   1.375  0.00  0.00    +0.022 A 
ATOM     12  C   UNL     1       9.071   2.792   1.344  0.00  0.00    +0.042 A 
ATOM     13  C   UNL     1       9.208   1.444   1.063  0.00  0.00    +0.037 A 
ATOM     14  C   UNL     1       8.090   0.686   0.820  0.00  0.00    +0.042 A 
ATOM     15  S   UNL     1       7.789  -1.023   0.436  0.00  0.00    -0.052 S 
ATOM     16 CL   UNL     1      10.471   3.770   1.654  0.00  0.00    -0.084 Cl
ATOM     17  O   UNL     1       4.080  -5.287  -0.749  0.00  0.00    -0.282 OA
ENDROOT
BRANCH   6  18
ATOM     18  C   UNL     1       3.283  -0.785  -1.135  0.00  0.00    -0.018 A 
ATOM     19  C   UNL     1       2.593   0.373  -0.826  0.00  0.00    +0.009 A 
ATOM     20  C   UNL     1       2.264   1.271  -1.824  0.00  0.00    +0.050 A 
ATOM     21  C   UNL     1       2.625   1.012  -3.136  0.00  0.00    +0.162 A 
ATOM     22  C   UNL     1       3.319  -0.153  -3.447  0.00  0.00    +0.162 A 
ATOM     23  C   UNL     1       3.650  -1.047  -2.441  0.00  0.00    +0.055 A 
BRANCH  22  24
ATOM     24  O   UNL     1       3.675  -0.412  -4.733  0.00  0.00    -0.491 OA
ATOM     25  C   UNL     1       4.291  -1.675  -4.994  0.00  0.00    +0.277 C 
ENDBRANCH  22  24
BRANCH  21  26
ATOM     26  O   UNL     1       2.301   1.894  -4.119  0.00  0.00    -0.491 OA
ATOM     27  C   UNL     1       1.587   3.069  -3.727  0.00  0.00    +0.277 C 
ENDBRANCH  21  26
ENDBRANCH   6  18
BRANCH   1  28
ATOM     28  C   UNL     1       1.674  -3.482  -0.550  0.00  0.00    +0.230 C 
ATOM     29  O   UNL     1       1.370  -4.596  -0.942  0.00  0.00    -0.283 OA
BRANCH  28  34
ATOM     30  C   UNL     1      -0.575   0.721   0.979  0.00  0.00    +0.086 C 
ATOM     31  C   UNL     1      -0.365  -0.657   0.406  0.00  0.00    +0.103 A 
ATOM     32  C   UNL     1      -1.337  -1.462  -0.079  0.00  0.00    +0.045 A 
ATOM     33  C   UNL     1      -0.718  -2.644  -0.511  0.00  0.00    +0.053 A 
ATOM     34  C   UNL     1       0.629  -2.496  -0.262  0.00  0.00    +0.175 A 
ATOM     35  O   UNL     1       0.816  -1.279   0.289  0.00  0.00    -0.457 OA
ENDBRANCH  28  34
ENDBRANCH   1  28
TORSDOF 5
