REMARK  Name = ZINC34923794
REMARK  10 active torsions:
REMARK  status: ('A' for Active; 'I' for Inactive)
REMARK    1  A    between atoms: C_1  and  C_2
REMARK    2  A    between atoms: C_3  and  C_34
REMARK    3  A    between atoms: C_4  and  C_29
REMARK    4  A    between atoms: C_7  and  C_12
REMARK    5  A    between atoms: C_13  and  N_15
REMARK    6  A    between atoms: N_15  and  C_16
REMARK    7  A    between atoms: N_19  and  C_22
REMARK    8  A    between atoms: C_22  and  C_23
REMARK    9  A    between atoms: C_34  and  O_36
REMARK   10  A    between atoms: O_36  and  C_37
REMARK                            x       y       z     vdW  Elec       q    Type
REMARK                         _______ _______ _______ _____ _____    ______ ____
ROOT
ATOM      1  C   UNL     1       5.726  -4.405  -0.986  0.00  0.00    +0.066 C 
ATOM      2  C   UNL     1       4.261  -4.472  -0.638  0.00  0.00    +0.053 C 
ATOM      3  C   UNL     1       3.640  -5.701  -0.518  0.00  0.00    +0.082 C 
ATOM      4  C   UNL     1       2.169  -5.716  -0.167  0.00  0.00    +0.150 C 
ATOM      5  N   UNL     1       1.504  -4.399   0.021  0.00  0.00    -0.267 N 
ATOM      6  C   UNL     1       0.180  -4.175   0.342  0.00  0.00    +0.048 C 
ATOM      7  C   UNL     1      -0.226  -2.892   0.468  0.00  0.00    +0.072 C 
ATOM      8  S   UNL     1       1.276  -1.996   0.130  0.00  0.00    -0.060 S 
ATOM      9  C   UNL     1       2.298  -3.299  -0.144  0.00  0.00    +0.166 C 
ATOM     10  N   UNL     1       3.579  -3.355  -0.446  0.00  0.00    -0.230 NA
ENDROOT
BRANCH   4  11
ATOM     11  C   UNL     1       1.439  -6.452  -1.262  0.00  0.00    -0.015 A 
ATOM     12  C   UNL     1       0.961  -7.731  -1.049  0.00  0.00    +0.013 A 
ATOM     13  C   UNL     1       0.308  -8.364  -2.054  0.00  0.00    +0.045 A 
ATOM     14  S   UNL     1       0.355  -7.141  -3.353  0.00  0.00    -0.105 S 
ATOM     15  C   UNL     1       1.236  -5.866  -2.467  0.00  0.00    +0.051 A 
ENDBRANCH   4  11
BRANCH   6  16
ATOM     16  C   UNL     1      -0.755  -5.292   0.540  0.00  0.00    +0.091 C 
ATOM     17  C   UNL     1      -2.066  -5.048   0.726  0.00  0.00    +0.239 C 
ATOM     18  O   UNL     1      -2.544  -3.785   0.606  0.00  0.00    -0.271 OA
BRANCH  17  19
ATOM     19  N   UNL     1      -2.926  -6.086   1.039  0.00  0.00    -0.309 N 
ATOM     20  H   UNL     1      -2.599  -6.999   1.054  0.00  0.00    +0.149 HD
BRANCH  19  21
ATOM     21  C   UNL     1      -4.331  -5.806   1.348  0.00  0.00    +0.070 C 
ATOM     22  C   UNL     1      -4.460  -5.399   2.818  0.00  0.00    +0.004 C 
ATOM     23  C   UNL     1      -5.938  -5.186   3.155  0.00  0.00    -0.077 C 
ATOM     24  N   UNL     1      -6.681  -6.430   2.923  0.00  0.00    +0.382 N 
ATOM     25  C   UNL     1      -6.621  -6.788   1.500  0.00  0.00    -0.077 C 
ATOM     26  C   UNL     1      -5.170  -7.064   1.100  0.00  0.00    +0.004 C 
ATOM     27  H   UNL     1      -6.274  -7.172   3.473  0.00  0.00    -0.081 HD
BRANCH  24  28
ATOM     28  C   UNL     1      -8.083  -6.243   3.320  0.00  0.00    -0.043 C 
BRANCH  28  29
ATOM     29  C   UNL     1      -8.818  -7.553   3.199  0.00  0.00    -0.064 A 
ATOM     30  C   UNL     1      -9.437  -7.890   2.009  0.00  0.00    +0.002 A 
ATOM     31  C   UNL     1     -10.112  -9.091   1.898  0.00  0.00    +0.000 A 
ATOM     32  C   UNL     1     -10.168  -9.955   2.975  0.00  0.00    +0.000 A 
ATOM     33  C   UNL     1      -9.549  -9.618   4.165  0.00  0.00    +0.000 A 
ATOM     34  C   UNL     1      -8.870  -8.419   4.275  0.00  0.00    +0.002 A 
ENDBRANCH  28  29
ENDBRANCH  24  28
ENDBRANCH  19  21
ENDBRANCH  17  19
ENDBRANCH   6  16
BRANCH   3  35
ATOM     35  C   UNL     1       4.349  -6.892  -0.714  0.00  0.00    +0.339 C 
ATOM     36  O   UNL     1       5.534  -6.856  -0.997  0.00  0.00    -0.245 OA
BRANCH  35  37
ATOM     37  O   UNL     1       3.720  -8.082  -0.591  0.00  0.00    -0.465 OA
ATOM     38  C   UNL     1       4.505  -9.256  -0.805  0.00  0.00    +0.280 C 
ENDBRANCH  35  37
ENDBRANCH   3  35
TORSDOF 8
