REMARK  Name = ZINC13652082
REMARK  8 active torsions:
REMARK  status: ('A' for Active; 'I' for Inactive)
REMARK    1  A    between atoms: C_1  and  C_2
REMARK    2  A    between atoms: C_3  and  C_22
REMARK    3  A    between atoms: C_6  and  C_9
REMARK    4  A    between atoms: C_7  and  N_8
REMARK    5  A    between atoms: C_11  and  C_13
REMARK    6  A    between atoms: C_11  and  C_14
REMARK    7  A    between atoms: C_14  and  S_15
REMARK    8  A    between atoms: S_15  and  C_16
REMARK                            x       y       z     vdW  Elec       q    Type
REMARK                         _______ _______ _______ _____ _____    ______ ____
ROOT
ATOM      1  C   UNL     1       2.480   1.462  -0.013  0.00  0.00    +0.046 C 
ATOM      2  C   UNL     1       1.169   2.205   0.003  0.00  0.00    -0.023 A 
ATOM      3  C   UNL     1      -0.018   1.503   0.010  0.00  0.00    -0.004 A 
ATOM      4  C   UNL     1      -1.235   2.179   0.020  0.00  0.00    +0.128 A 
ATOM      5  C   UNL     1      -1.234   3.568   0.024  0.00  0.00    +0.003 A 
ATOM      6  C   UNL     1      -0.052   4.273   0.019  0.00  0.00    -0.023 A 
ATOM      7  C   UNL     1       1.161   3.594   0.009  0.00  0.00    +0.031 A 
ATOM      8  C   UNL     1      -0.072   5.780   0.025  0.00  0.00    +0.046 C 
ATOM      9  C   UNL     1      -2.684   4.014   0.024  0.00  0.00    +0.087 C 
ATOM     10  C   UNL     1      -3.419   2.712  -0.373  0.00  0.00    +0.121 C 
ATOM     11  O   UNL     1      -2.506   1.687   0.055  0.00  0.00    -0.484 OA
ATOM     12  C   UNL     1      -3.637   2.652  -1.886  0.00  0.00    +0.057 C 
ATOM     13  C   UNL     1       0.002  -0.004   0.002  0.00  0.00    +0.048 C 
ENDROOT
BRANCH   7  14
ATOM     14  N   UNL     1       2.366   4.304   0.005  0.00  0.00    -0.358 N 
ATOM     15  H   UNL     1       3.210   3.827  -0.003  0.00  0.00    +0.142 HD
ATOM     16  H   UNL     1       2.357   5.274   0.009  0.00  0.00    +0.142 HD
ENDBRANCH   7  14
BRANCH  10  17
ATOM     17  C   UNL     1      -4.752   2.594   0.370  0.00  0.00    +0.122 C 
BRANCH  17  18
ATOM     18  S   UNL     1      -5.651   1.137  -0.229  0.00  0.00    -0.121 S 
BRANCH  18  19
ATOM     19  C   UNL     1      -7.142   1.141   0.710  0.00  0.00    +0.011 A 
ATOM     20  C   UNL     1      -7.386   2.131   1.662  0.00  0.00    +0.034 A 
ATOM     21  C   UNL     1      -8.568   2.102   2.371  0.00  0.00    +0.112 A 
ATOM     22  N   UNL     1      -9.457   1.147   2.167  0.00  0.00    -0.263 NA
ATOM     23  C   UNL     1      -9.260   0.189   1.280  0.00  0.00    +0.112 A 
ATOM     24  C   UNL     1      -8.107   0.149   0.525  0.00  0.00    +0.034 A 
ENDBRANCH  18  19
ENDBRANCH  17  18
ENDBRANCH  10  17
TORSDOF 4
