REMARK  Name = ZINC44176542
REMARK  9 active torsions:
REMARK  status: ('A' for Active; 'I' for Inactive)
REMARK    1  A    between atoms: C_1  and  C_2
REMARK    2  A    between atoms: C_2  and  C_3
REMARK    3  A    between atoms: C_2  and  C_4
REMARK    4  A    between atoms: C_2  and  C_5
REMARK    5  A    between atoms: C_8  and  C_11
REMARK    6  A    between atoms: C_18  and  C_20
REMARK    7  A    between atoms: N_22  and  C_23
REMARK    8  A    between atoms: C_23  and  C_24
REMARK    9  A    between atoms: N_32  and  C_33
REMARK                            x       y       z     vdW  Elec       q    Type
REMARK                         _______ _______ _______ _____ _____    ______ ____
ROOT
ATOM      1  C   UNL     1       2.507  -1.615  -5.412  0.00  0.00    +0.247 C 
ATOM      2  O   UNL     1       2.078  -2.702  -5.744  0.00  0.00    -0.270 OA
ATOM      3  N   UNL     1       3.787  -1.285  -5.679  0.00  0.00    -0.283 N 
ATOM      4  C   UNL     1       4.345  -0.011  -5.206  0.00  0.00    +0.128 C 
ATOM      5  C   UNL     1       5.607  -0.304  -4.384  0.00  0.00    +0.128 C 
ATOM      6  N   UNL     1       6.468  -1.213  -5.154  0.00  0.00    -0.282 N 
ATOM      7  C   UNL     1       5.909  -2.487  -5.628  0.00  0.00    +0.141 C 
ATOM      8  C   UNL     1       4.649  -2.196  -6.445  0.00  0.00    +0.179 C 
ATOM      9  C   UNL     1       7.747  -0.883  -5.421  0.00  0.00    +0.307 C 
ATOM     10  O   UNL     1       8.227   0.128  -4.945  0.00  0.00    -0.252 OA
ATOM     11  N   UNL     1       8.495  -1.673  -6.217  0.00  0.00    -0.269 N 
ATOM     12  H   UNL     1       8.091  -2.435  -6.662  0.00  0.00    +0.156 HD
ENDROOT
BRANCH  11  13
ATOM     13  C   UNL     1       9.855  -1.396  -6.401  0.00  0.00    +0.035 A 
ATOM     14  C   UNL     1      10.602  -0.860  -5.360  0.00  0.00    +0.026 A 
ATOM     15  C   UNL     1      11.944  -0.588  -5.543  0.00  0.00    +0.040 A 
ATOM     16  C   UNL     1      12.544  -0.849  -6.763  0.00  0.00    +0.124 A 
ATOM     17  C   UNL     1      11.801  -1.383  -7.803  0.00  0.00    +0.040 A 
ATOM     18  C   UNL     1      10.460  -1.662  -7.622  0.00  0.00    +0.026 A 
ATOM     19  F   UNL     1      13.856  -0.582  -6.941  0.00  0.00    -0.205 F 
ENDBRANCH  11  13
BRANCH   1  23
ATOM     20  C   UNL     1      -0.022   1.147  -3.407  0.00  0.00    -0.042 A 
ATOM     21  C   UNL     1      -0.042  -0.190  -3.051  0.00  0.00    +0.005 A 
ATOM     22  C   UNL     1       0.777  -1.092  -3.698  0.00  0.00    +0.013 A 
ATOM     23  C   UNL     1       1.627  -0.653  -4.714  0.00  0.00    +0.037 A 
ATOM     24  C   UNL     1       1.642   0.696  -5.069  0.00  0.00    +0.013 A 
ATOM     25  C   UNL     1       0.814   1.587  -4.418  0.00  0.00    +0.005 A 
BRANCH  20  27
ATOM     26  C   UNL     1      -1.867   2.776  -3.706  0.00  0.00    +0.015 C 
ATOM     27  C   UNL     1      -0.919   2.126  -2.696  0.00  0.00    -0.013 C 
ATOM     28  C   UNL     1      -0.067   3.207  -2.028  0.00  0.00    +0.015 C 
ATOM     29  C   UNL     1      -1.735   1.390  -1.631  0.00  0.00    +0.015 C 
ENDBRANCH  20  27
ENDBRANCH   1  23
BRANCH   8  30
ATOM     30  C   UNL     1       3.914  -3.484  -6.712  0.00  0.00    +0.235 C 
ATOM     31  O   UNL     1       3.683  -4.251  -5.801  0.00  0.00    -0.274 OA
ATOM     32  N   UNL     1       3.513  -3.784  -7.963  0.00  0.00    -0.311 N 
ATOM     33  H   UNL     1       3.698  -3.170  -8.692  0.00  0.00    +0.149 HD
BRANCH  32  34
ATOM     34  C   UNL     1       2.798  -5.036  -8.223  0.00  0.00    +0.135 C 
BRANCH  34  35
ATOM     35  C   UNL     1       2.460  -5.130  -9.712  0.00  0.00    +0.135 C 
ATOM     36  C   UNL     1       1.672  -6.432 -10.003  0.00  0.00    +0.035 C 
ATOM     37  C   UNL     1       0.910  -6.033 -11.296  0.00  0.00    +0.031 C 
ATOM     38  C   UNL     1       0.632  -4.532 -11.063  0.00  0.00    +0.160 C 
ATOM     39  O   UNL     1       1.577  -4.062 -10.092  0.00  0.00    -0.375 OA
ENDBRANCH  34  35
ENDBRANCH  32  34
ENDBRANCH   8  30
TORSDOF 6
