REMARK  Name = ZINC40295459
REMARK  5 active torsions:
REMARK  status: ('A' for Active; 'I' for Inactive)
REMARK    1  A    between atoms: C_1  and  C_2
REMARK    2  A    between atoms: C_4  and  N_8
REMARK    3  A    between atoms: N_5  and  C_7
REMARK    4  A    between atoms: C_9  and  C_11
REMARK    5  A    between atoms: C_15  and  N_17
REMARK                            x       y       z     vdW  Elec       q    Type
REMARK                         _______ _______ _______ _____ _____    ______ ____
ROOT
ATOM      1  N   UNL     1       0.038  -3.238  -1.546  0.00  0.00    -0.267 N 
ATOM      2  C   UNL     1       0.031  -3.094  -2.886  0.00  0.00    +0.249 C 
ATOM      3  O   UNL     1       0.014  -1.982  -3.378  0.00  0.00    -0.270 OA
ATOM      4  H   UNL     1       0.052  -4.125  -1.154  0.00  0.00    +0.157 HD
ENDROOT
BRANCH   1   8
ATOM      5  C   UNL     1      -0.018   1.503   0.010  0.00  0.00    +0.067 C 
ATOM      6  C   UNL     1       0.002  -0.004   0.002  0.00  0.00    +0.062 A 
ATOM      7  C   UNL     1       0.008  -0.815  -1.136  0.00  0.00    +0.068 A 
ATOM      8  C   UNL     1       0.027  -2.112  -0.724  0.00  0.00    +0.123 A 
ATOM      9  N   UNL     1       0.034  -2.109   0.634  0.00  0.00    -0.253 N 
ATOM     10  N   UNL     1       0.023  -0.775   1.059  0.00  0.00    -0.175 NA
ATOM     11  C   UNL     1       0.053  -3.291   1.500  0.00  0.00    +0.174 C 
ENDBRANCH   1   8
BRANCH   2  12
ATOM     12  C   UNL     1       0.042  -4.287  -3.758  0.00  0.00    +0.039 A 
ATOM     13  C   UNL     1       0.056  -5.566  -3.195  0.00  0.00    +0.014 A 
ATOM     14  C   UNL     1       0.067  -6.678  -4.010  0.00  0.00    +0.018 A 
ATOM     15  C   UNL     1       0.065  -6.534  -5.386  0.00  0.00    +0.039 A 
ATOM     16  C   UNL     1       0.051  -5.265  -5.956  0.00  0.00    +0.039 A 
ATOM     17  C   UNL     1       0.034  -4.141  -5.145  0.00  0.00    +0.037 A 
ATOM     18 BR   UNL     1       0.081  -8.065  -6.495  0.00  0.00    -0.048 Br
BRANCH  16  19
ATOM     19  N   UNL     1       0.049  -5.124  -7.346  0.00  0.00    -0.357 N 
ATOM     20  H   UNL     1       0.057  -5.910  -7.914  0.00  0.00    +0.142 HD
ATOM     21  H   UNL     1       0.040  -4.239  -7.744  0.00  0.00    +0.142 HD
ENDBRANCH  16  19
ENDBRANCH   2  12
TORSDOF 3
