REMARK  Name = ZINC13551248
REMARK  5 active torsions:
REMARK  status: ('A' for Active; 'I' for Inactive)
REMARK    1  A    between atoms: C_6  and  N_7
REMARK    2  A    between atoms: C_8  and  C_10
REMARK    3  A    between atoms: C_10  and  C_11
REMARK    4  A    between atoms: C_11  and  S_12
REMARK    5  A    between atoms: S_12  and  C_13
REMARK                            x       y       z     vdW  Elec       q    Type
REMARK                         _______ _______ _______ _____ _____    ______ ____
ROOT
ATOM      1  C   UNL     1      -3.660  -0.844   0.249  0.00  0.00    +0.107 C 
ENDROOT
BRANCH   1   3
ATOM      2  N   UNL     1      -1.202  -0.721   0.010  0.00  0.00    -0.285 N 
ATOM      3  C   UNL     1      -2.374  -0.068   0.127  0.00  0.00    +0.218 C 
ATOM      4  O   UNL     1      -2.395   1.145   0.134  0.00  0.00    -0.275 OA
ATOM      5  H   UNL     1      -1.191  -1.688  -0.072  0.00  0.00    +0.155 HD
BRANCH   2  11
ATOM      6  C   UNL     1       0.122   1.154   0.763  0.00  0.00    +0.027 A 
ATOM      7  C   UNL     1       1.309   1.862   0.762  0.00  0.00    +0.051 A 
ATOM      8  C   UNL     1       2.383   1.417   0.008  0.00  0.00    +0.166 A 
ATOM      9  C   UNL     1       2.266   0.255  -0.751  0.00  0.00    +0.168 A 
ATOM     10  C   UNL     1       1.076  -0.454  -0.750  0.00  0.00    +0.072 A 
ATOM     11  C   UNL     1       0.002  -0.004   0.008  0.00  0.00    +0.037 A 
ATOM     12  O   UNL     1       3.448   0.034  -1.396  0.00  0.00    -0.453 OA
ATOM     13  C   UNL     1       4.153   1.288  -1.348  0.00  0.00    +0.466 C 
ATOM     14  O   UNL     1       3.640   1.924  -0.162  0.00  0.00    -0.453 OA
ENDBRANCH   2  11
ENDBRANCH   1   3
BRANCH   1  15
ATOM     15  C   UNL     1      -4.835   0.130   0.368  0.00  0.00    +0.085 C 
BRANCH  15  16
ATOM     16  S   UNL     1      -6.383  -0.804   0.515  0.00  0.00    -0.103 S 
BRANCH  16  17
ATOM     17  C   UNL     1      -7.622   0.442   0.641  0.00  0.00    +0.127 A 
ATOM     18  C   UNL     1      -8.969   0.098   0.776  0.00  0.00    +0.117 A 
ATOM     19  C   UNL     1      -9.920   1.127   0.873  0.00  0.00    +0.183 A 
ATOM     20  N   UNL     1     -11.123   0.535   0.994  0.00  0.00    -0.216 NA
ATOM     21  H   UNL     1      -9.305  -1.980   0.808  0.00  0.00    +0.167 HD
ATOM     22  C   UNL     1     -10.982  -0.761   0.978  0.00  0.00    +0.199 A 
ATOM     23  N   UNL     1      -9.676  -1.084   0.847  0.00  0.00    -0.341 N 
ATOM     24  N   UNL     1      -9.500   2.396   0.832  0.00  0.00    -0.196 NA
ATOM     25  C   UNL     1      -8.220   2.673   0.703  0.00  0.00    +0.226 A 
ATOM     26  N   UNL     1      -7.295   1.732   0.614  0.00  0.00    -0.209 NA
ATOM     27 CL   UNL     1      -7.726   4.336   0.654  0.00  0.00    -0.041 Cl
ENDBRANCH  16  17
ENDBRANCH  15  16
ENDBRANCH   1  15
TORSDOF 5
