REMARK  Name = ZINC63350181
REMARK  6 active torsions:
REMARK  status: ('A' for Active; 'I' for Inactive)
REMARK    1  A    between atoms: C_1  and  O_2
REMARK    2  A    between atoms: O_2  and  C_3
REMARK    3  A    between atoms: C_6  and  C_18
REMARK    4  A    between atoms: C_8  and  C_9
REMARK    5  A    between atoms: C_9  and  O_10
REMARK    6  A    between atoms: O_10  and  C_11
REMARK                            x       y       z     vdW  Elec       q    Type
REMARK                         _______ _______ _______ _____ _____    ______ ____
ROOT
ATOM      1  C   UNL     1      -1.200  -0.637   0.010  0.00  0.00    +0.126 A 
ATOM      2  C   UNL     1      -2.375   0.101   0.015  0.00  0.00    +0.046 A 
ATOM      3  C   UNL     1      -3.596  -0.545   0.023  0.00  0.00    +0.009 A 
ATOM      4  C   UNL     1      -3.648  -1.927   0.026  0.00  0.00    -0.028 A 
ATOM      5  C   UNL     1      -2.479  -2.665   0.021  0.00  0.00    +0.015 A 
ATOM      6  C   UNL     1      -1.255  -2.023   0.007  0.00  0.00    +0.032 A 
ENDROOT
BRANCH   4   7
ATOM      7  C   UNL     1      -4.981  -2.629   0.034  0.00  0.00    +0.111 C 
ATOM      8  C   UNL     1      -5.841  -2.117  -1.124  0.00  0.00    +0.128 C 
ATOM      9  C   UNL     1      -6.143  -0.655  -0.816  0.00  0.00    -0.035 C 
ATOM     10  C   UNL     1      -5.761   0.039  -1.879  0.00  0.00    -0.001 A 
ATOM     11  C   UNL     1      -5.874   1.469  -2.211  0.00  0.00    +0.010 A 
ATOM     12  C   UNL     1      -5.353   1.850  -3.406  0.00  0.00    +0.001 A 
ATOM     13  C   UNL     1      -4.737   0.963  -4.295  0.00  0.00    +0.002 A 
ATOM     14  C   UNL     1      -4.595  -0.368  -4.074  0.00  0.00    +0.026 A 
ATOM     15  C   UNL     1      -5.109  -0.890  -2.852  0.00  0.00    +0.043 A 
ATOM     16  N   UNL     1      -5.130  -2.129  -2.401  0.00  0.00    -0.376 N 
ATOM     17  C   UNL     1      -6.678  -0.223   0.528  0.00  0.00    +0.048 C 
ATOM     18  C   UNL     1      -5.794  -0.911   1.584  0.00  0.00    +0.086 C 
ATOM     19  N   UNL     1      -5.684  -2.344   1.295  0.00  0.00    -0.307 NA
ATOM     20  H   UNL     1      -6.590  -2.787   1.312  0.00  0.00    +0.123 HD
ATOM     21  H   UNL     1      -4.745  -2.910  -2.828  0.00  0.00    +0.160 HD
ENDBRANCH   4   7
BRANCH   1  23
ATOM     22  C   UNL     1      -0.017   1.425   0.005  0.00  0.00    +0.277 C 
ATOM     23  O   UNL     1       0.002  -0.004   0.002  0.00  0.00    -0.495 OA
ENDBRANCH   1  23
BRANCH   6  24
ATOM     24  C   UNL     1       0.018  -2.829  -0.004  0.00  0.00    +0.268 C 
BRANCH  24  25
ATOM     25  O   UNL     1      -0.299  -4.222  -0.005  0.00  0.00    -0.487 OA
BRANCH  25  26
ATOM     26  C   UNL     1       0.745  -5.093  -0.014  0.00  0.00    +0.121 A 
ATOM     27  C   UNL     1       2.047  -4.615  -0.017  0.00  0.00    +0.047 A 
ATOM     28  C   UNL     1       3.107  -5.502  -0.027  0.00  0.00    +0.019 A 
ATOM     29  C   UNL     1       2.869  -6.865  -0.034  0.00  0.00    +0.018 A 
ATOM     30  C   UNL     1       1.571  -7.343  -0.032  0.00  0.00    +0.019 A 
ATOM     31  C   UNL     1       0.509  -6.460  -0.015  0.00  0.00    +0.047 A 
ATOM     32 BR   UNL     1       4.321  -8.076  -0.048  0.00  0.00    -0.050 Br
ENDBRANCH  25  26
ENDBRANCH  24  25
ENDBRANCH   6  24
TORSDOF 5
