REMARK  Name = ZINC04730281
REMARK  7 active torsions:
REMARK  status: ('A' for Active; 'I' for Inactive)
REMARK    1  A    between atoms: C_1  and  N_2
REMARK    2  A    between atoms: C_9  and  C_21
REMARK    3  A    between atoms: C_11  and  C_17
REMARK    4  A    between atoms: C_11  and  C_19
REMARK    5  A    between atoms: C_12  and  N_16
REMARK    6  A    between atoms: C_13  and  C_14
REMARK    7  A    between atoms: C_24  and  N_27
REMARK                            x       y       z     vdW  Elec       q    Type
REMARK                         _______ _______ _______ _____ _____    ______ ____
ROOT
ATOM      1  C   UNL     1      -0.777   1.497   0.081  0.00  0.00    +0.105 C 
ATOM      2  N   UNL     1      -0.545   0.047   0.039  0.00  0.00    -0.301 NA
ATOM      3  C   UNL     1       0.049  -0.355  -1.249  0.00  0.00    +0.111 C 
ATOM      4  C   UNL     1       0.091  -1.863  -1.280  0.00  0.00    -0.007 C 
ATOM      5  C   UNL     1       0.282  -2.540  -0.163  0.00  0.00    -0.026 C 
ATOM      6  C   UNL     1       0.517  -1.877   1.164  0.00  0.00    +0.044 C 
ATOM      7  C   UNL     1       0.314  -0.379   1.147  0.00  0.00    +0.093 C 
ATOM      8  C   UNL     1      -0.369  -2.566   2.203  0.00  0.00    +0.067 C 
ATOM      9  C   UNL     1       0.060  -4.029   2.328  0.00  0.00    +0.188 C 
ATOM     10  C   UNL     1       0.149  -4.699   0.990  0.00  0.00    +0.054 C 
ATOM     11  C   UNL     1       0.265  -4.024  -0.182  0.00  0.00    +0.074 C 
ENDROOT
BRANCH   8  12
ATOM     12  C   UNL     1      -0.215  -1.877   3.535  0.00  0.00    -0.041 A 
ATOM     13  C   UNL     1      -1.331  -1.596   4.300  0.00  0.00    +0.006 A 
ATOM     14  C   UNL     1      -1.190  -0.964   5.522  0.00  0.00    +0.033 A 
ATOM     15  C   UNL     1       0.067  -0.614   5.978  0.00  0.00    +0.126 A 
ATOM     16  C   UNL     1       1.183  -0.897   5.213  0.00  0.00    +0.033 A 
ATOM     17  C   UNL     1       1.042  -1.532   3.993  0.00  0.00    +0.006 A 
BRANCH  15  18
ATOM     18  N   UNL     1       0.218   0.063   7.285  0.00  0.00    +0.056 N 
ATOM     19  O   UNL     1      -0.758   0.310   7.954  0.00  0.00    -0.126 OA
ATOM     20  O   UNL     1       1.317   0.369   7.684  0.00  0.00    -0.126 OA
ENDBRANCH  15  18
ENDBRANCH   8  12
BRANCH  10  21
ATOM     21  N   UNL     1       0.112  -6.065   0.948  0.00  0.00    -0.358 N 
ATOM     22  H   UNL     1       0.029  -6.573   1.770  0.00  0.00    +0.142 HD
ATOM     23  H   UNL     1       0.167  -6.525   0.096  0.00  0.00    +0.142 HD
ENDBRANCH  10  21
BRANCH  11  24
ATOM     24  C   UNL     1       0.370  -4.734  -1.421  0.00  0.00    +0.101 C 
ATOM     25  N   UNL     1       0.453  -5.298  -2.404  0.00  0.00    -0.191 NA
ENDBRANCH  11  24
BRANCH   9  26
ATOM     26  C   UNL     1       1.377  -4.088   2.982  0.00  0.00    +0.091 C 
ATOM     27  N   UNL     1       2.394  -4.133   3.487  0.00  0.00    -0.194 NA
ENDBRANCH   9  26
BRANCH   9  28
ATOM     28  C   UNL     1      -0.919  -4.747   3.160  0.00  0.00    +0.091 C 
ATOM     29  N   UNL     1      -1.675  -5.301   3.802  0.00  0.00    -0.194 NA
ENDBRANCH   9  28
TORSDOF 6
