REMARK  Name = ZINC55339666
REMARK  7 active torsions:
REMARK  status: ('A' for Active; 'I' for Inactive)
REMARK    1  A    between atoms: C_1  and  C_2
REMARK    2  A    between atoms: C_2  and  C_4
REMARK    3  A    between atoms: C_2  and  N_20
REMARK    4  A    between atoms: C_7  and  N_10
REMARK    5  A    between atoms: C_11  and  C_13
REMARK    6  A    between atoms: N_23  and  C_24
REMARK    7  A    between atoms: C_24  and  C_25
REMARK                            x       y       z     vdW  Elec       q    Type
REMARK                         _______ _______ _______ _____ _____    ______ ____
ROOT
ATOM      1  C   UNL     1       0.730  -0.487   1.230  0.00  0.00    -0.027 A 
ATOM      2  C   UNL     1       0.143  -0.383   2.478  0.00  0.00    +0.007 A 
ATOM      3  C   UNL     1       0.809  -0.845   3.597  0.00  0.00    +0.023 A 
ATOM      4  C   UNL     1       2.069  -1.414   3.467  0.00  0.00    +0.034 A 
ATOM      5  C   UNL     1       2.655  -1.518   2.212  0.00  0.00    +0.023 A 
ATOM      6  C   UNL     1       1.982  -1.059   1.097  0.00  0.00    +0.007 A 
ENDROOT
BRANCH   4   7
ATOM      7  N   UNL     1       2.746  -1.883   4.598  0.00  0.00    -0.282 N 
ATOM      8  C   UNL     1       2.054  -2.412   5.626  0.00  0.00    +0.248 C 
ATOM      9  O   UNL     1       0.852  -2.571   5.533  0.00  0.00    -0.270 OA
ATOM     10  H   UNL     1       3.713  -1.827   4.641  0.00  0.00    +0.155 HD
BRANCH   8  11
ATOM     11  C   UNL     1       2.756  -2.799   6.867  0.00  0.00    +0.037 A 
ATOM     12  C   UNL     1       4.135  -2.612   6.979  0.00  0.00    +0.016 A 
ATOM     13  C   UNL     1       4.785  -2.975   8.139  0.00  0.00    +0.039 A 
ATOM     14  C   UNL     1       4.072  -3.524   9.194  0.00  0.00    +0.123 A 
ATOM     15  C   UNL     1       2.702  -3.711   9.088  0.00  0.00    +0.039 A 
ATOM     16  C   UNL     1       2.042  -3.348   7.934  0.00  0.00    +0.016 A 
ATOM     17  F   UNL     1       4.714  -3.878  10.328  0.00  0.00    -0.205 F 
ENDBRANCH   8  11
ENDBRANCH   4   7
BRANCH   1  19
ATOM     18  C   UNL     1       0.163   1.536  -0.086  0.00  0.00    +0.033 C 
ATOM     19  C   UNL     1       0.000   0.018   0.012  0.00  0.00    +0.102 C 
BRANCH  19  20
ATOM     20  N   UNL     1      -1.422  -0.315   0.121  0.00  0.00    -0.293 N 
ATOM     21  C   UNL     1      -2.173  -0.437  -0.991  0.00  0.00    +0.300 C 
ATOM     22  O   UNL     1      -1.670  -0.270  -2.085  0.00  0.00    -0.253 OA
ATOM     23  N   UNL     1      -3.482  -0.743  -0.890  0.00  0.00    -0.295 N 
ATOM     24  H   UNL     1      -1.823  -0.448   0.995  0.00  0.00    +0.151 HD
ATOM     25  H   UNL     1      -3.883  -0.876  -0.017  0.00  0.00    +0.151 HD
BRANCH  23  26
ATOM     26  C   UNL     1      -4.298  -0.875  -2.100  0.00  0.00    +0.148 C 
BRANCH  26  27
ATOM     27  C   UNL     1      -5.714  -1.220  -1.715  0.00  0.00    +0.007 A 
ATOM     28  C   UNL     1      -6.753  -0.390  -1.454  0.00  0.00    +0.013 A 
ATOM     29  C   UNL     1      -7.978  -0.935  -1.117  0.00  0.00    +0.008 A 
ATOM     30  C   UNL     1      -8.103  -2.283  -1.056  0.00  0.00    +0.045 A 
ATOM     31  S   UNL     1      -6.459  -2.826  -1.491  0.00  0.00    -0.100 S 
ENDBRANCH  26  27
ENDBRANCH  23  26
ENDBRANCH  19  20
ENDBRANCH   1  19
TORSDOF 6
