REMARK  Name = ZINC58984914
REMARK  6 active torsions:
REMARK  status: ('A' for Active; 'I' for Inactive)
REMARK    1  A    between atoms: C_1  and  C_2
REMARK    2  A    between atoms: C_2  and  C_4
REMARK    3  A    between atoms: C_2  and  S_16
REMARK    4  A    between atoms: S_16  and  C_17
REMARK    5  A    between atoms: C_19  and  C_23
REMARK    6  A    between atoms: N_21  and  N_22
REMARK                            x       y       z     vdW  Elec       q    Type
REMARK                         _______ _______ _______ _____ _____    ______ ____
ROOT
ATOM      1  C   UNL     1      -0.019   1.526   0.010  0.00  0.00    +0.029 C 
ATOM      2  C   UNL     1       0.002  -0.004   0.002  0.00  0.00    +0.137 C 
ENDROOT
BRANCH   2   3
ATOM      3  C   UNL     1       0.707  -0.490  -1.238  0.00  0.00    +0.232 C 
ATOM      4  O   UNL     1       0.067  -0.782  -2.225  0.00  0.00    -0.274 OA
ATOM      5  N   UNL     1       2.051  -0.601  -1.250  0.00  0.00    -0.264 N 
ATOM      6  C   UNL     1       2.699  -1.047  -2.389  0.00  0.00    +0.165 A 
ATOM      7  N   UNL     1       2.185  -1.401  -3.544  0.00  0.00    -0.225 NA
ATOM      8  C   UNL     1       2.944  -1.821  -4.579  0.00  0.00    +0.080 A 
ATOM      9  C   UNL     1       2.519  -2.227  -5.865  0.00  0.00    +0.029 A 
ATOM     10  C   UNL     1       3.429  -2.629  -6.808  0.00  0.00    +0.002 A 
ATOM     11  C   UNL     1       4.790  -2.651  -6.540  0.00  0.00    +0.001 A 
ATOM     12  C   UNL     1       5.241  -2.260  -5.293  0.00  0.00    +0.017 A 
ATOM     13  C   UNL     1       4.337  -1.856  -4.342  0.00  0.00    +0.041 A 
ATOM     14  S   UNL     1       4.449  -1.281  -2.664  0.00  0.00    -0.052 S 
ATOM     15  H   UNL     1       2.563  -0.367  -0.460  0.00  0.00    +0.157 HD
ENDBRANCH   2   3
BRANCH   2  16
ATOM     16  S   UNL     1      -1.700  -0.632   0.015  0.00  0.00    -0.074 S 
BRANCH  16  17
ATOM     17  C   UNL     1      -2.335  -0.110   1.573  0.00  0.00    +0.187 A 
ATOM     18  N   UNL     1      -1.677   0.580   2.474  0.00  0.00    -0.221 NA
ATOM     19  C   UNL     1      -2.484   0.798   3.543  0.00  0.00    +0.092 A 
ATOM     20  C   UNL     1      -3.683   0.219   3.286  0.00  0.00    +0.138 A 
ATOM     21  N   UNL     1      -3.592  -0.351   2.039  0.00  0.00    -0.251 N 
BRANCH  19  22
ATOM     22  C   UNL     1      -2.119   1.540   4.774  0.00  0.00    +0.002 A 
ATOM     23  C   UNL     1      -3.047   1.685   5.804  0.00  0.00    +0.010 A 
ATOM     24  C   UNL     1      -2.702   2.375   6.948  0.00  0.00    +0.001 A 
ATOM     25  C   UNL     1      -1.438   2.922   7.074  0.00  0.00    +0.000 A 
ATOM     26  C   UNL     1      -0.513   2.781   6.056  0.00  0.00    +0.001 A 
ATOM     27  C   UNL     1      -0.845   2.088   4.909  0.00  0.00    +0.010 A 
ENDBRANCH  19  22
BRANCH  21  28
ATOM     28  N   UNL     1      -4.578  -1.036   1.388  0.00  0.00    -0.296 N 
ATOM     29  H   UNL     1      -4.540  -2.020   1.607  0.00  0.00    +0.163 HD
ATOM     30  H   UNL     1      -5.487  -0.653   1.603  0.00  0.00    +0.163 HD
ENDBRANCH  21  28
ENDBRANCH  16  17
ENDBRANCH   2  16
TORSDOF 5
