REMARK  Name = ZINC20459039
REMARK  9 active torsions:
REMARK  status: ('A' for Active; 'I' for Inactive)
REMARK    1  A    between atoms: C_1  and  O_2
REMARK    2  A    between atoms: O_2  and  C_3
REMARK    3  A    between atoms: C_3  and  C_5
REMARK    4  A    between atoms: C_11  and  C_12
REMARK    5  A    between atoms: C_20  and  C_29
REMARK    6  A    between atoms: C_22  and  C_25
REMARK    7  A    between atoms: C_23  and  N_24
REMARK    8  A    between atoms: C_25  and  O_27
REMARK    9  A    between atoms: O_27  and  C_28
REMARK                            x       y       z     vdW  Elec       q    Type
REMARK                         _______ _______ _______ _____ _____    ______ ____
ROOT
ATOM      1  C   UNL     1       3.143  -3.305  -1.473  0.00  0.00    +0.110 C 
ATOM      2  C   UNL     1       3.364  -2.982  -0.140  0.00  0.00    +0.100 A 
ATOM      3  N   UNL     1       2.556  -2.144   0.583  0.00  0.00    -0.289 N 
ATOM      4  C   UNL     1       2.872  -1.906   1.868  0.00  0.00    +0.267 A 
ATOM      5  O   UNL     1       2.197  -1.172   2.566  0.00  0.00    -0.266 OA
ATOM      6  C   UNL     1       4.072  -2.574   2.391  0.00  0.00    +0.079 A 
ATOM      7  C   UNL     1       4.621  -2.518   3.632  0.00  0.00    +0.031 C 
ATOM      8  S   UNL     1       4.612  -3.480   0.952  0.00  0.00    -0.065 S 
ATOM      9  C   UNL     1       1.384  -1.561  -0.122  0.00  0.00    +0.163 C 
ATOM     10  C   UNL     1       1.134  -1.903  -1.565  0.00  0.00    +0.085 C 
ATOM     11  C   UNL     1       2.007  -2.761  -2.216  0.00  0.00    +0.054 C 
ENDROOT
BRANCH   7  12
ATOM     12  C   UNL     1       3.916  -1.820   4.715  0.00  0.00    +0.011 A 
ATOM     13  C   UNL     1       2.532  -1.968   4.865  0.00  0.00    +0.011 A 
ATOM     14  C   UNL     1       1.878  -1.310   5.884  0.00  0.00    +0.001 A 
ATOM     15  C   UNL     1       2.586  -0.504   6.761  0.00  0.00    +0.003 A 
ATOM     16  C   UNL     1       3.953  -0.351   6.622  0.00  0.00    +0.039 A 
ATOM     17  C   UNL     1       4.626  -1.007   5.609  0.00  0.00    +0.131 A 
ATOM     18  F   UNL     1       5.963  -0.861   5.478  0.00  0.00    -0.205 F 
ENDBRANCH   7  12
BRANCH   9  19
ATOM     19  C   UNL     1       1.504  -0.062  -0.029  0.00  0.00    +0.015 A 
ATOM     20  C   UNL     1       0.480   0.680   0.530  0.00  0.00    +0.009 A 
ATOM     21  C   UNL     1       0.590   2.055   0.615  0.00  0.00    +0.001 A 
ATOM     22  C   UNL     1       1.724   2.690   0.143  0.00  0.00    +0.003 A 
ATOM     23  C   UNL     1       2.748   1.951  -0.416  0.00  0.00    +0.039 A 
ATOM     24  C   UNL     1       2.640   0.573  -0.502  0.00  0.00    +0.129 A 
ATOM     25  F   UNL     1       3.641  -0.151  -1.048  0.00  0.00    -0.205 F 
ENDBRANCH   9  19
BRANCH  11  26
ATOM     26  N   UNL     1       1.807  -3.096  -3.537  0.00  0.00    -0.357 N 
ATOM     27  H   UNL     1       0.949  -2.680  -4.086  0.00  0.00    +0.142 HD
ATOM     28  H   UNL     1       2.506  -3.778  -4.043  0.00  0.00    +0.142 HD
ENDBRANCH  11  26
BRANCH   1  29
ATOM     29  C   UNL     1       4.041  -4.183  -2.130  0.00  0.00    +0.343 C 
ATOM     30  O   UNL     1       5.034  -4.582  -1.551  0.00  0.00    -0.245 OA
BRANCH  29  32
ATOM     31  C   UNL     1       4.742  -5.462  -3.997  0.00  0.00    +0.280 C 
ATOM     32  O   UNL     1       3.795  -4.576  -3.397  0.00  0.00    -0.464 OA
ENDBRANCH  29  32
ENDBRANCH   1  29
BRANCH  10  33
ATOM     33  C   UNL     1       0.035  -1.362  -2.241  0.00  0.00    +0.339 C 
ATOM     34  O   UNL     1      -0.218  -1.723  -3.378  0.00  0.00    -0.245 OA
BRANCH  33  35
ATOM     35  O   UNL     1      -0.745  -0.441  -1.635  0.00  0.00    -0.465 OA
ATOM     36  C   UNL     1      -1.850   0.069  -2.384  0.00  0.00    +0.280 C 
ENDBRANCH  33  35
ENDBRANCH  10  33
TORSDOF 7
