REMARK  Name = ZINC03522808
REMARK  8 active torsions:
REMARK  status: ('A' for Active; 'I' for Inactive)
REMARK    1  A    between atoms: C_1  and  C_2
REMARK    2  A    between atoms: C_11  and  S_15
REMARK    3  A    between atoms: S_15  and  C_16
REMARK    4  A    between atoms: C_16  and  C_18
REMARK    5  A    between atoms: C_16  and  C_19
REMARK    6  A    between atoms: N_21  and  C_22
REMARK    7  A    between atoms: C_25  and  S_28
REMARK    8  A    between atoms: S_28  and  N_31
REMARK                            x       y       z     vdW  Elec       q    Type
REMARK                         _______ _______ _______ _____ _____    ______ ____
ROOT
ATOM      1  C   UNL     1      -4.736   0.102   0.054  0.00  0.00    +0.136 C 
ATOM      2  C   UNL     1      -5.246   0.739  -1.240  0.00  0.00    +0.029 C 
ENDROOT
BRANCH   1   3
ATOM      3  C   UNL     1      -5.272  -1.302   0.169  0.00  0.00    +0.230 C 
ATOM      4  O   UNL     1      -4.571  -2.245  -0.129  0.00  0.00    -0.274 OA
ATOM      5  N   UNL     1      -6.532  -1.508   0.603  0.00  0.00    -0.285 N 
ATOM      6  H   UNL     1      -7.070  -0.760   0.904  0.00  0.00    +0.155 HD
BRANCH   5   7
ATOM      7  C   UNL     1      -7.062  -2.803   0.617  0.00  0.00    +0.034 A 
ATOM      8  C   UNL     1      -8.409  -3.006   0.346  0.00  0.00    +0.025 A 
ATOM      9  C   UNL     1      -8.929  -4.285   0.355  0.00  0.00    +0.030 A 
ATOM     10  C   UNL     1      -8.112  -5.363   0.645  0.00  0.00    +0.105 A 
ATOM     11  C   UNL     1      -6.772  -5.164   0.921  0.00  0.00    +0.030 A 
ATOM     12  C   UNL     1      -6.245  -3.887   0.908  0.00  0.00    +0.025 A 
BRANCH  10  13
ATOM     13  S   UNL     1      -8.781  -6.993   0.663  0.00  0.00    +0.056 S 
ATOM     14  O   UNL     1      -9.937  -6.967  -0.162  0.00  0.00    -0.153 OA
ATOM     15  O   UNL     1      -7.696  -7.880   0.426  0.00  0.00    -0.153 OA
BRANCH  13  16
ATOM     16  N   UNL     1      -9.306  -7.290   2.205  0.00  0.00    -0.204 NA
ATOM     17  H   UNL     1      -9.209  -6.610   2.890  0.00  0.00    +0.144 HD
ATOM     18  H   UNL     1      -9.711  -8.144   2.424  0.00  0.00    +0.144 HD
ENDBRANCH  13  16
ENDBRANCH  10  13
ENDBRANCH   5   7
ENDBRANCH   1   3
BRANCH   1  19
ATOM     19  S   UNL     1      -2.927   0.057   0.033  0.00  0.00    -0.093 S 
BRANCH  19  29
ATOM     20  C   UNL     1       3.820  -0.485  -0.139  0.00  0.00    +0.008 C 
ATOM     21  C   UNL     1       2.468   0.180  -0.406  0.00  0.00    -0.009 C 
ATOM     22  C   UNL     1       1.385  -0.500   0.436  0.00  0.00    +0.008 C 
ATOM     23  C   UNL     1       0.004  -0.014  -0.004  0.00  0.00    +0.037 C 
ATOM     24  C   UNL     1      -0.014   1.512   0.015  0.00  0.00    -0.025 A 
ATOM     25  C   UNL     1       1.144   2.212   0.010  0.00  0.00    -0.004 A 
ATOM     26  S   UNL     1       0.658   3.920   0.036  0.00  0.00    -0.073 S 
ATOM     27  C   UNL     1      -1.091   3.696   0.053  0.00  0.00    +0.113 A 
ATOM     28  C   UNL     1      -1.244   2.287   0.033  0.00  0.00    +0.043 A 
ATOM     29  C   UNL     1      -2.577   1.784   0.048  0.00  0.00    +0.109 A 
ATOM     30  N   UNL     1      -3.543   2.701   0.070  0.00  0.00    -0.229 NA
ATOM     31  C   UNL     1      -3.324   4.001   0.082  0.00  0.00    +0.223 A 
ATOM     32  N   UNL     1      -2.108   4.535   0.074  0.00  0.00    -0.228 NA
ATOM     33  C   UNL     1       2.537   1.663  -0.014  0.00  0.00    +0.046 C 
ENDBRANCH  19  29
ENDBRANCH   1  19
TORSDOF 6
