REMARK  Name = ZINC13404147
REMARK  6 active torsions:
REMARK  status: ('A' for Active; 'I' for Inactive)
REMARK    1  A    between atoms: C_3  and  N_11
REMARK    2  A    between atoms: C_6  and  C_7
REMARK    3  A    between atoms: C_8  and  C_9
REMARK    4  A    between atoms: C_12  and  C_14
REMARK    5  A    between atoms: N_19  and  S_20
REMARK    6  A    between atoms: S_20  and  C_23
REMARK                            x       y       z     vdW  Elec       q    Type
REMARK                         _______ _______ _______ _____ _____    ______ ____
ROOT
ATOM      1  C   UNL     1       3.830   4.018  -2.140  0.00  0.00    +0.166 C 
ATOM      2  C   UNL     1       4.288   3.127  -3.313  0.00  0.00    +0.031 C 
ATOM      3  C   UNL     1       4.462   1.737  -2.647  0.00  0.00    +0.019 C 
ATOM      4  C   UNL     1       4.997   2.131  -1.245  0.00  0.00    +0.110 C 
ATOM      5  N   UNL     1       4.267   3.363  -0.898  0.00  0.00    -0.165 NA
ENDROOT
BRANCH   1   7
ATOM      6  N   UNL     1       1.738   5.068  -2.941  0.00  0.00    -0.284 N 
ATOM      7  C   UNL     1       2.329   4.151  -2.149  0.00  0.00    +0.236 C 
ATOM      8  O   UNL     1       1.653   3.433  -1.443  0.00  0.00    -0.274 OA
ATOM      9  H   UNL     1       2.281   5.681  -3.460  0.00  0.00    +0.155 HD
BRANCH   6  12
ATOM     10  C   UNL     1      -1.652   6.431  -3.285  0.00  0.00    +0.010 A 
ATOM     11  C   UNL     1      -0.280   6.361  -3.213  0.00  0.00    +0.024 A 
ATOM     12  C   UNL     1       0.347   5.134  -3.013  0.00  0.00    +0.033 A 
ATOM     13  C   UNL     1      -0.410   3.973  -2.891  0.00  0.00    +0.024 A 
ATOM     14  C   UNL     1      -1.783   4.034  -2.957  0.00  0.00    +0.010 A 
ATOM     15  C   UNL     1      -2.418   5.266  -3.157  0.00  0.00    -0.025 A 
BRANCH  15  16
ATOM     16  C   UNL     1      -3.884   5.335  -3.234  0.00  0.00    +0.015 C 
ATOM     17  C   UNL     1      -4.621   4.210  -3.110  0.00  0.00    +0.096 C 
BRANCH  17  18
ATOM     18  C   UNL     1      -6.035   4.277  -3.184  0.00  0.00    +0.380 C 
ATOM     19  O   UNL     1      -6.585   5.348  -3.358  0.00  0.00    -0.241 OA
ATOM     20  O   UNL     1      -6.772   3.153  -3.061  0.00  0.00    -0.241 OA
ENDBRANCH  17  18
ENDBRANCH  15  16
ENDBRANCH   6  12
ENDBRANCH   1   7
BRANCH   5  21
ATOM     21  S   UNL     1       3.990   3.921   0.636  0.00  0.00    +0.062 S 
ATOM     22  O   UNL     1       3.940   2.780   1.481  0.00  0.00    -0.153 OA
ATOM     23  O   UNL     1       2.917   4.848   0.544  0.00  0.00    -0.153 OA
BRANCH  21  24
ATOM     24  C   UNL     1       5.412   4.844   1.119  0.00  0.00    +0.109 A 
ATOM     25  C   UNL     1       5.522   6.176   0.768  0.00  0.00    +0.032 A 
ATOM     26  C   UNL     1       6.636   6.902   1.144  0.00  0.00    +0.051 A 
ATOM     27  C   UNL     1       7.647   6.295   1.874  0.00  0.00    +0.162 A 
ATOM     28  C   UNL     1       7.535   4.957   2.229  0.00  0.00    +0.164 A 
ATOM     29  C   UNL     1       6.415   4.233   1.848  0.00  0.00    +0.078 A 
ATOM     30  O   UNL     1       8.511   4.344   2.954  0.00  0.00    -0.485 OA
ATOM     31  C   UNL     1       9.786   4.995   2.996  0.00  0.00    +0.270 C 
ATOM     32  C   UNL     1       9.555   6.486   3.281  0.00  0.00    +0.270 C 
ATOM     33  O   UNL     1       8.742   7.022   2.232  0.00  0.00    -0.485 OA
ENDBRANCH  21  24
ENDBRANCH   5  21
TORSDOF 6
