REMARK  Name = ZINC20832050
REMARK  12 active torsions:
REMARK  status: ('A' for Active; 'I' for Inactive)
REMARK    1  A    between atoms: C_1  and  C_2
REMARK    2  A    between atoms: C_2  and  C_36
REMARK    3  A    between atoms: C_4  and  N_10
REMARK    4  A    between atoms: C_6  and  C_8
REMARK    5  A    between atoms: C_6  and  C_9
REMARK    6  A    between atoms: C_11  and  C_13
REMARK    7  A    between atoms: C_13  and  S_14
REMARK    8  A    between atoms: S_14  and  C_15
REMARK    9  A    between atoms: N_20  and  N_21
REMARK   10  A    between atoms: C_22  and  C_23
REMARK   11  A    between atoms: C_27  and  O_29
REMARK   12  A    between atoms: O_29  and  C_30
REMARK                            x       y       z     vdW  Elec       q    Type
REMARK                         _______ _______ _______ _____ _____    ______ ____
ROOT
ATOM      1  C   UNL     1      -1.549   9.581  -3.908  0.00  0.00    +0.211 A 
ATOM      2  N   UNL     1      -1.401  10.461  -4.943  0.00  0.00    -0.186 NA
ATOM      3  C   UNL     1      -1.335  11.722  -4.420  0.00  0.00    +0.232 A 
ATOM      4  N   UNL     1      -1.438  11.626  -3.116  0.00  0.00    -0.245 N 
ATOM      5  N   UNL     1      -1.579  10.270  -2.792  0.00  0.00    -0.144 NA
ATOM      6  N   UNL     1      -1.184  12.898  -5.141  0.00  0.00    -0.205 N 
ATOM      7  H   UNL     1      -1.106  12.864  -6.238  0.00  0.00    +0.177 HD
ATOM      8  H   UNL     1      -1.405  12.532  -2.493  0.00  0.00    +0.192 HD
ENDROOT
BRANCH   6   9
ATOM      9  N   UNL     1      -1.131  14.128  -4.473  0.00  0.00    -0.188 NA
ATOM     10  C   UNL     1      -0.990  15.228  -5.148  0.00  0.00    +0.138 C 
BRANCH  10  11
ATOM     11  C   UNL     1      -0.935  16.523  -4.445  0.00  0.00    -0.002 A 
ATOM     12  C   UNL     1      -1.040  16.570  -3.052  0.00  0.00    +0.010 A 
ATOM     13  C   UNL     1      -0.983  17.782  -2.398  0.00  0.00    +0.004 A 
ATOM     14  C   UNL     1      -0.832  18.955  -3.116  0.00  0.00    +0.046 A 
ATOM     15  C   UNL     1      -0.732  18.919  -4.501  0.00  0.00    +0.129 A 
ATOM     16  C   UNL     1      -0.783  17.707  -5.168  0.00  0.00    +0.055 A 
BRANCH  15  17
ATOM     17  O   UNL     1      -0.585  20.075  -5.201  0.00  0.00    -0.456 OA
BRANCH  17  18
ATOM     18  C   UNL     1      -0.527  21.240  -4.504  0.00  0.00    +0.128 A 
ATOM     19  C   UNL     1      -1.690  21.944  -4.230  0.00  0.00    +0.046 A 
ATOM     20  C   UNL     1      -1.629  23.126  -3.517  0.00  0.00    +0.004 A 
ATOM     21  C   UNL     1      -0.409  23.612  -3.086  0.00  0.00    +0.000 A 
ATOM     22  C   UNL     1       0.753  22.915  -3.362  0.00  0.00    +0.004 A 
ATOM     23  C   UNL     1       0.697  21.730  -4.070  0.00  0.00    +0.046 A 
ENDBRANCH  17  18
ENDBRANCH  15  17
ENDBRANCH  10  11
ENDBRANCH   6   9
BRANCH   1  24
ATOM     24  S   UNL     1      -1.684   7.830  -4.048  0.00  0.00    -0.075 S 
BRANCH  24  25
ATOM     25  C   UNL     1      -1.856   7.265  -2.334  0.00  0.00    +0.173 C 
BRANCH  25  27
ATOM     26  N   UNL     1      -2.122   5.117  -1.136  0.00  0.00    -0.312 N 
ATOM     27  C   UNL     1      -1.982   5.763  -2.310  0.00  0.00    +0.224 C 
ATOM     28  O   UNL     1      -1.959   5.136  -3.348  0.00  0.00    -0.275 OA
ATOM     29  H   UNL     1      -2.143   5.685  -0.194  0.00  0.00    +0.149 HD
BRANCH  26  33
ATOM     30  C   UNL     1      -3.406   1.138  -2.562  0.00  0.00    -0.010 C 
ATOM     31  C   UNL     1      -3.880   1.752  -1.240  0.00  0.00    -0.072 C 
ATOM     32  C   UNL     1      -3.713   3.269  -1.293  0.00  0.00    +0.009 C 
ATOM     33  C   UNL     1      -2.245   3.654  -1.113  0.00  0.00    +0.070 C 
ATOM     34  C   UNL     1      -1.773   3.131   0.245  0.00  0.00    +0.009 C 
ATOM     35  C   UNL     1      -1.891   1.608   0.286  0.00  0.00    -0.072 C 
ATOM     36  N   UNL     1      -3.207   1.145  -0.110  0.00  0.00    +0.386 N 
ATOM     37  C   UNL     1      -1.642   1.162   1.744  0.00  0.00    -0.010 C 
ATOM     38  C   UNL     1      -0.793   0.980  -0.577  0.00  0.00    -0.010 C 
ATOM     39  C   UNL     1      -5.391   1.456  -1.115  0.00  0.00    -0.010 C 
ATOM     40  H   UNL     1      -3.818   1.277   0.795  0.00  0.00    -0.084 HD
ATOM     41  H   UNL     1      -3.063   0.072  -0.302  0.00  0.00    -0.084 HD
ENDBRANCH  26  33
ENDBRANCH  25  27
ENDBRANCH  24  25
ENDBRANCH   1  24
TORSDOF 8
