REMARK  Name = ZINC02143058
REMARK  12 active torsions:
REMARK  status: ('A' for Active; 'I' for Inactive)
REMARK    1  A    between atoms: C_1  and  C_2
REMARK    2  A    between atoms: C_2  and  O_3
REMARK    3  A    between atoms: O_3  and  C_4
REMARK    4  A    between atoms: C_4  and  C_6
REMARK    5  A    between atoms: C_6  and  C_8
REMARK    6  A    between atoms: C_6  and  O_9
REMARK    7  A    between atoms: O_9  and  C_10
REMARK    8  A    between atoms: C_13  and  C_16
REMARK    9  A    between atoms: C_18  and  C_30
REMARK   10  A    between atoms: C_19  and  C_24
REMARK   11  A    between atoms: N_32  and  C_33
REMARK   12  A    between atoms: C_36  and  C_39
REMARK                            x       y       z     vdW  Elec       q    Type
REMARK                         _______ _______ _______ _____ _____    ______ ____
ROOT
ATOM      1  C   UNL     1      -2.479  -1.808  -1.365  0.00  0.00    +0.139 C 
ATOM      2  C   UNL     1      -2.320  -0.449  -0.713  0.00  0.00    +0.061 C 
ATOM      3  C   UNL     1      -3.246  -0.082   0.220  0.00  0.00    +0.050 C 
ATOM      4  N   UNL     1      -4.289  -0.917   0.542  0.00  0.00    -0.296 N 
ATOM      5  C   UNL     1      -4.466  -2.125  -0.009  0.00  0.00    +0.135 C 
ATOM      6  S   UNL     1      -5.805  -3.069   0.487  0.00  0.00    -0.019 S 
ATOM      7  N   UNL     1      -3.630  -2.623  -0.940  0.00  0.00    -0.315 N 
ATOM      8  H   UNL     1      -5.034  -0.605   1.288  0.00  0.00    +0.154 HD
ATOM      9  H   UNL     1      -3.792  -3.617  -1.381  0.00  0.00    +0.149 HD
ENDROOT
BRANCH   1  13
ATOM     10  C   UNL     1      -2.775  -1.217  -5.587  0.00  0.00    +0.122 A 
ATOM     11  C   UNL     1      -1.581  -1.648  -5.027  0.00  0.00    +0.046 A 
ATOM     12  C   UNL     1      -1.488  -1.839  -3.662  0.00  0.00    +0.009 A 
ATOM     13  C   UNL     1      -2.584  -1.600  -2.853  0.00  0.00    -0.022 A 
ATOM     14  C   UNL     1      -3.777  -1.175  -3.409  0.00  0.00    +0.009 A 
ATOM     15  C   UNL     1      -3.873  -0.978  -4.773  0.00  0.00    +0.046 A 
BRANCH  10  16
ATOM     16  O   UNL     1      -2.869  -1.029  -6.929  0.00  0.00    -0.478 OA
BRANCH  16  17
ATOM     17  C   UNL     1      -1.668  -1.172  -7.690  0.00  0.00    +0.278 C 
ATOM     18  C   UNL     1      -1.431  -2.652  -7.995  0.00  0.00    +0.064 C 
BRANCH  17  19
ATOM     19  C   UNL     1      -1.798  -0.407  -8.982  0.00  0.00    +0.348 C 
ATOM     20  O   UNL     1      -2.815   0.199  -9.226  0.00  0.00    -0.247 OA
BRANCH  19  21
ATOM     21  O   UNL     1      -0.784  -0.398  -9.861  0.00  0.00    -0.462 OA
BRANCH  21  23
ATOM     22  C   UNL     1       0.274   0.253 -11.956  0.00  0.00    +0.048 C 
ATOM     23  C   UNL     1      -0.979   0.360 -11.085  0.00  0.00    +0.229 C 
ENDBRANCH  21  23
ENDBRANCH  19  21
ENDBRANCH  17  19
ENDBRANCH  16  17
ENDBRANCH  10  16
ENDBRANCH   1  13
BRANCH   3  24
ATOM     24  C   UNL     1      -3.129   1.231   0.886  0.00  0.00    -0.003 A 
ATOM     25  C   UNL     1      -4.087   2.221   0.657  0.00  0.00    +0.010 A 
ATOM     26  C   UNL     1      -3.975   3.443   1.287  0.00  0.00    +0.001 A 
ATOM     27  C   UNL     1      -2.911   3.693   2.135  0.00  0.00    +0.000 A 
ATOM     28  C   UNL     1      -1.955   2.718   2.363  0.00  0.00    +0.001 A 
ATOM     29  C   UNL     1      -2.058   1.489   1.744  0.00  0.00    +0.010 A 
ENDBRANCH   3  24
BRANCH   2  30
ATOM     30  C   UNL     1      -1.248   0.403  -1.054  0.00  0.00    +0.248 C 
ATOM     31  O   UNL     1      -0.130   0.176  -0.628  0.00  0.00    -0.270 OA
ATOM     32  N   UNL     1      -1.463   1.468  -1.852  0.00  0.00    -0.282 N 
ATOM     33  H   UNL     1      -2.487   1.735  -2.151  0.00  0.00    +0.155 HD
BRANCH  32  34
ATOM     34  C   UNL     1      -0.382   2.235  -2.300  0.00  0.00    +0.034 A 
ATOM     35  C   UNL     1       0.746   2.379  -1.503  0.00  0.00    +0.023 A 
ATOM     36  C   UNL     1       1.813   3.133  -1.951  0.00  0.00    +0.005 A 
ATOM     37  C   UNL     1       1.755   3.752  -3.186  0.00  0.00    -0.050 A 
ATOM     38  C   UNL     1       0.631   3.615  -3.979  0.00  0.00    +0.005 A 
ATOM     39  C   UNL     1      -0.438   2.858  -3.540  0.00  0.00    +0.023 A 
ATOM     40  C   UNL     1       2.919   4.578  -3.669  0.00  0.00    +0.044 C 
ENDBRANCH  32  34
ENDBRANCH   2  30
TORSDOF 9
