REMARK  Name = ZINC00693359
REMARK  13 active torsions:
REMARK  status: ('A' for Active; 'I' for Inactive)
REMARK    1  A    between atoms: C_1  and  C_2
REMARK    2  A    between atoms: C_5  and  C_8
REMARK    3  A    between atoms: C_10  and  O_32
REMARK    4  A    between atoms: N_12  and  C_13
REMARK    5  A    between atoms: C_16  and  N_19
REMARK    6  A    between atoms: C_20  and  C_22
REMARK    7  A    between atoms: C_24  and  O_30
REMARK    8  A    between atoms: C_26  and  O_28
REMARK    9  A    between atoms: O_28  and  C_29
REMARK   10  A    between atoms: O_30  and  C_31
REMARK   11  A    between atoms: O_32  and  C_33
REMARK   12  A    between atoms: C_33  and  C_34
REMARK   13  A    between atoms: C_33  and  C_35
REMARK                            x       y       z     vdW  Elec       q    Type
REMARK                         _______ _______ _______ _____ _____    ______ ____
ROOT
ATOM      1  C   UNL     1       0.804  -4.843   2.354  0.00  0.00    +0.068 A 
ATOM      2  C   UNL     1       1.481  -3.662   2.631  0.00  0.00    +0.029 A 
ATOM      3  C   UNL     1       1.855  -3.369   3.927  0.00  0.00    +0.025 A 
ATOM      4  C   UNL     1       1.555  -4.255   4.954  0.00  0.00    +0.034 A 
ATOM      5  C   UNL     1       0.877  -5.436   4.676  0.00  0.00    +0.025 A 
ATOM      6  C   UNL     1       0.498  -5.726   3.382  0.00  0.00    +0.029 A 
ENDROOT
BRANCH   1  11
ATOM      7  C   UNL     1       1.183  -5.003  -0.081  0.00  0.00    +0.167 A 
ATOM      8  N   UNL     1       0.457  -5.397  -1.110  0.00  0.00    -0.174 NA
ATOM      9  C   UNL     1      -0.749  -5.779  -0.690  0.00  0.00    +0.338 A 
ATOM     10  N   UNL     1      -0.819  -5.638   0.612  0.00  0.00    -0.108 NA
ATOM     11  N   UNL     1       0.424  -5.140   1.039  0.00  0.00    -0.209 N 
BRANCH   7  16
ATOM     12  C   UNL     1       6.601  -3.074  -0.293  0.00  0.00    +0.044 C 
ATOM     13  C   UNL     1       5.182  -3.579  -0.237  0.00  0.00    -0.050 A 
ATOM     14  C   UNL     1       4.695  -4.138   0.931  0.00  0.00    +0.004 A 
ATOM     15  C   UNL     1       3.397  -4.602   0.988  0.00  0.00    +0.012 A 
ATOM     16  C   UNL     1       2.575  -4.507  -0.135  0.00  0.00    +0.019 A 
ATOM     17  C   UNL     1       3.072  -3.942  -1.311  0.00  0.00    +0.012 A 
ATOM     18  C   UNL     1       4.371  -3.478  -1.353  0.00  0.00    +0.004 A 
ENDBRANCH   7  16
BRANCH   9  19
ATOM     19  O   UNL     1      -1.748  -6.241  -1.486  0.00  0.00    -0.459 OA
BRANCH  19  20
ATOM     20  C   UNL     1      -2.973  -6.603  -0.845  0.00  0.00    +0.171 C 
ATOM     21  C   UNL     1      -4.139  -6.374  -1.808  0.00  0.00    +0.052 C 
ATOM     22  C   UNL     1      -2.924  -8.079  -0.445  0.00  0.00    +0.052 C 
ENDBRANCH  19  20
ENDBRANCH   9  19
ENDBRANCH   1  11
BRANCH   4  23
ATOM     23  N   UNL     1       1.935  -3.958   6.267  0.00  0.00    -0.281 N 
ATOM     24  C   UNL     1       1.911  -2.683   6.704  0.00  0.00    +0.248 C 
ATOM     25  O   UNL     1       1.642  -1.782   5.934  0.00  0.00    -0.270 OA
ATOM     26  H   UNL     1       2.215  -4.670   6.864  0.00  0.00    +0.155 HD
BRANCH  24  27
ATOM     27  C   UNL     1       2.214  -2.381   8.119  0.00  0.00    +0.044 A 
ATOM     28  C   UNL     1       2.530  -3.413   9.003  0.00  0.00    +0.059 A 
ATOM     29  C   UNL     1       2.813  -3.125  10.328  0.00  0.00    +0.124 A 
ATOM     30  C   UNL     1       2.783  -1.813  10.776  0.00  0.00    +0.091 A 
ATOM     31  C   UNL     1       2.470  -0.783   9.900  0.00  0.00    +0.124 A 
ATOM     32  C   UNL     1       2.191  -1.062   8.573  0.00  0.00    +0.059 A 
BRANCH  31  33
ATOM     33  O   UNL     1       2.442   0.501  10.345  0.00  0.00    -0.495 OA
ATOM     34  C   UNL     1       2.745   0.717  11.725  0.00  0.00    +0.277 C 
ENDBRANCH  31  33
BRANCH  29  35
ATOM     35  O   UNL     1       3.120  -4.130  11.190  0.00  0.00    -0.495 OA
ATOM     36  C   UNL     1       3.401  -3.762  12.541  0.00  0.00    +0.277 C 
ENDBRANCH  29  35
ENDBRANCH  24  27
ENDBRANCH   4  23
TORSDOF 8
