REMARK  Name = ZINC20119452
REMARK  9 active torsions:
REMARK  status: ('A' for Active; 'I' for Inactive)
REMARK    1  A    between atoms: C_1  and  C_2
REMARK    2  A    between atoms: C_2  and  C_4
REMARK    3  A    between atoms: C_2  and  N_10
REMARK    4  A    between atoms: C_11  and  C_13
REMARK    5  A    between atoms: C_16  and  N_19
REMARK    6  A    between atoms: N_19  and  C_20
REMARK    7  A    between atoms: C_20  and  N_22
REMARK    8  A    between atoms: C_23  and  C_25
REMARK    9  A    between atoms: C_26  and  C_27
REMARK                            x       y       z     vdW  Elec       q    Type
REMARK                         _______ _______ _______ _____ _____    ______ ____
ROOT
ATOM      1  N   UNL     1      -2.345   0.934   0.018  0.00  0.00    -0.297 N 
ATOM      2  H   UNL     1      -2.228   0.048   0.659  0.00  0.00    +0.154 HD
ENDROOT
BRANCH   1   6
ATOM      3  C   UNL     1      -5.837   3.195   0.211  0.00  0.00    +0.037 A 
ATOM      4  C   UNL     1      -5.905   1.799   0.230  0.00  0.00    +0.015 A 
ATOM      5  C   UNL     1      -4.749   1.055   0.166  0.00  0.00    +0.024 A 
ATOM      6  C   UNL     1      -3.514   1.691   0.083  0.00  0.00    +0.033 A 
ATOM      7  C   UNL     1      -3.443   3.080   0.069  0.00  0.00    +0.024 A 
ATOM      8  C   UNL     1      -4.595   3.830   0.127  0.00  0.00    +0.015 A 
BRANCH   3  10
ATOM      9  N   UNL     1      -7.008   5.342   0.260  0.00  0.00    -0.305 N 
ATOM     10  C   UNL     1      -7.075   3.996   0.278  0.00  0.00    +0.245 C 
ATOM     11  O   UNL     1      -8.155   3.442   0.350  0.00  0.00    -0.270 OA
ATOM     12  H   UNL     1      -6.031   5.843   0.194  0.00  0.00    +0.150 HD
BRANCH   9  14
ATOM     13  C   UNL     1      -8.820   6.294  -1.079  0.00  0.00    +0.033 C 
ATOM     14  C   UNL     1      -8.237   6.138   0.327  0.00  0.00    +0.100 C 
BRANCH  14  15
ATOM     15  C   UNL     1      -7.924   7.498   0.895  0.00  0.00    -0.027 A 
ATOM     16  C   UNL     1      -6.761   8.150   0.527  0.00  0.00    +0.005 A 
ATOM     17  C   UNL     1      -6.477   9.400   1.045  0.00  0.00    +0.000 A 
ATOM     18  C   UNL     1      -7.350   9.993   1.937  0.00  0.00    +0.000 A 
ATOM     19  C   UNL     1      -8.510   9.340   2.308  0.00  0.00    +0.000 A 
ATOM     20  C   UNL     1      -8.797   8.092   1.787  0.00  0.00    +0.005 A 
ENDBRANCH  14  15
ENDBRANCH   9  14
ENDBRANCH   3  10
ENDBRANCH   1   6
BRANCH   1  21
ATOM     21  C   UNL     1      -1.359   1.289  -0.829  0.00  0.00    +0.141 C 
ATOM     22  S   UNL     1      -1.595   2.582  -1.925  0.00  0.00    -0.018 S 
BRANCH  21  23
ATOM     23  N   UNL     1      -0.185   0.625  -0.812  0.00  0.00    -0.264 N 
ATOM     24  C   UNL     1       0.799   0.976  -1.663  0.00  0.00    +0.242 C 
ATOM     25  O   UNL     1       0.631   1.896  -2.442  0.00  0.00    -0.270 OA
ATOM     26  H   UNL     1      -0.032  -0.203  -0.104  0.00  0.00    +0.157 HD
BRANCH  24  27
ATOM     27  C   UNL     1       2.069   0.253  -1.649  0.00  0.00    +0.068 C 
ATOM     28  C   UNL     1       3.057   0.605  -2.502  0.00  0.00    +0.013 C 
BRANCH  28  29
ATOM     29  C   UNL     1       4.332  -0.120  -2.488  0.00  0.00    -0.017 A 
ATOM     30  C   UNL     1       4.540  -1.174  -1.603  0.00  0.00    +0.008 A 
ATOM     31  C   UNL     1       5.747  -1.859  -1.593  0.00  0.00    +0.001 A 
ATOM     32  C   UNL     1       6.764  -1.534  -2.438  0.00  0.00    +0.008 A 
ATOM     33  C   UNL     1       6.625  -0.481  -3.358  0.00  0.00    -0.017 A 
ATOM     34  C   UNL     1       5.409   0.243  -3.409  0.00  0.00    -0.011 A 
ATOM     35  C   UNL     1       5.263   1.288  -4.328  0.00  0.00    +0.009 A 
ATOM     36  C   UNL     1       6.293   1.594  -5.169  0.00  0.00    +0.001 A 
ATOM     37  C   UNL     1       7.488   0.881  -5.125  0.00  0.00    +0.001 A 
ATOM     38  C   UNL     1       7.667  -0.134  -4.235  0.00  0.00    +0.008 A 
ENDBRANCH  28  29
ENDBRANCH  24  27
ENDBRANCH  21  23
ENDBRANCH   1  21
TORSDOF 8
