REMARK  Name = ZINC01421141
REMARK  9 active torsions:
REMARK  status: ('A' for Active; 'I' for Inactive)
REMARK    1  A    between atoms: C_1  and  C_2
REMARK    2  A    between atoms: C_5  and  N_8
REMARK    3  A    between atoms: C_9  and  C_11
REMARK    4  A    between atoms: C_11  and  O_12
REMARK    5  A    between atoms: O_12  and  C_13
REMARK    6  A    between atoms: C_15  and  C_38
REMARK    7  A    between atoms: C_22  and  C_24
REMARK    8  A    between atoms: C_31  and  C_36
REMARK    9  A    between atoms: C_31  and  C_37
REMARK                            x       y       z     vdW  Elec       q    Type
REMARK                         _______ _______ _______ _____ _____    ______ ____
ROOT
ATOM      1  C   UNL     1      -3.328   2.663  -2.449  0.00  0.00    +0.125 A 
ATOM      2  C   UNL     1      -4.404   1.833  -2.731  0.00  0.00    +0.049 A 
ATOM      3  C   UNL     1      -5.573   1.950  -2.006  0.00  0.00    -0.040 A 
ATOM      4  C   UNL     1      -5.680   2.893  -0.996  0.00  0.00    +0.005 A 
ATOM      5  C   UNL     1      -4.610   3.724  -0.713  0.00  0.00    +0.131 A 
ATOM      6  C   UNL     1      -3.430   3.603  -1.438  0.00  0.00    +0.091 A 
ATOM      7  O   UNL     1      -4.676   4.666   0.265  0.00  0.00    -0.468 OA
ATOM      8  C   UNL     1      -5.712   4.543   1.238  0.00  0.00    +0.182 C 
ATOM      9  C   UNL     1      -7.043   4.324   0.510  0.00  0.00    +0.081 C 
ATOM     10  C   UNL     1      -6.973   2.983  -0.226  0.00  0.00    +0.058 C 
ATOM     11  C   UNL     1      -5.791   5.822   2.075  0.00  0.00    +0.094 C 
ATOM     12  C   UNL     1      -4.497   5.959   2.884  0.00  0.00    +0.036 C 
ATOM     13  N   UNL     1      -4.293   4.744   3.674  0.00  0.00    -0.294 N 
ATOM     14  C   UNL     1      -4.755   3.555   3.260  0.00  0.00    +0.303 C 
ATOM     15  O   UNL     1      -4.546   2.575   3.949  0.00  0.00    -0.253 OA
ATOM     16  N   UNL     1      -5.439   3.405   2.116  0.00  0.00    -0.262 N 
ATOM     17  C   UNL     1      -4.603   7.165   3.818  0.00  0.00    +0.031 C 
ATOM     18  C   UNL     1      -3.315   6.153   1.931  0.00  0.00    +0.031 C 
ATOM     19  C   UNL     1      -6.739   1.046  -2.314  0.00  0.00    +0.044 C 
ATOM     20  H   UNL     1      -3.813   4.800   4.515  0.00  0.00    +0.151 HD
ATOM     21  H   UNL     1      -5.759   2.524   1.865  0.00  0.00    +0.154 HD
ENDROOT
BRANCH  10  22
ATOM     22  C   UNL     1      -8.134   2.875  -1.180  0.00  0.00    -0.040 A 
ATOM     23  C   UNL     1      -8.272   3.788  -2.208  0.00  0.00    +0.004 A 
ATOM     24  C   UNL     1      -9.334   3.685  -3.087  0.00  0.00    +0.000 A 
ATOM     25  C   UNL     1     -10.265   2.675  -2.930  0.00  0.00    +0.000 A 
ATOM     26  C   UNL     1     -10.130   1.764  -1.899  0.00  0.00    +0.000 A 
ATOM     27  C   UNL     1      -9.065   1.864  -1.024  0.00  0.00    +0.004 A 
ENDBRANCH  10  22
BRANCH   1  28
ATOM     28  O   UNL     1      -2.175   2.549  -3.159  0.00  0.00    -0.483 OA
BRANCH  28  29
ATOM     29  C   UNL     1      -1.110   3.436  -2.814  0.00  0.00    +0.324 C 
BRANCH  29  31
ATOM     30  N   UNL     1       1.204   3.890  -3.560  0.00  0.00    -0.283 N 
ATOM     31  C   UNL     1       0.077   3.165  -3.701  0.00  0.00    +0.255 C 
ATOM     32  O   UNL     1       0.017   2.297  -4.547  0.00  0.00    -0.272 OA
ATOM     33  H   UNL     1       1.232   4.625  -2.927  0.00  0.00    +0.155 HD
BRANCH  30  38
ATOM     34  C   UNL     1       5.788   2.647  -6.663  0.00  0.00    +0.044 C 
ATOM     35  C   UNL     1       4.570   2.977  -5.839  0.00  0.00    -0.050 A 
ATOM     36  C   UNL     1       4.302   4.291  -5.500  0.00  0.00    +0.005 A 
ATOM     37  C   UNL     1       3.187   4.597  -4.744  0.00  0.00    +0.023 A 
ATOM     38  C   UNL     1       2.335   3.583  -4.325  0.00  0.00    +0.034 A 
ATOM     39  C   UNL     1       2.610   2.265  -4.662  0.00  0.00    +0.023 A 
ATOM     40  C   UNL     1       3.723   1.966  -5.423  0.00  0.00    +0.005 A 
ENDBRANCH  30  38
ENDBRANCH  29  31
ENDBRANCH  28  29
ENDBRANCH   1  28
TORSDOF 5
