REMARK  Name = ZINC67101733
REMARK  6 active torsions:
REMARK  status: ('A' for Active; 'I' for Inactive)
REMARK    1  A    between atoms: C_1  and  C_2
REMARK    2  A    between atoms: C_3  and  C_7
REMARK    3  A    between atoms: N_17  and  N_18
REMARK    4  A    between atoms: C_19  and  C_21
REMARK    5  A    between atoms: C_21  and  C_22
REMARK    6  A    between atoms: C_22  and  C_23
REMARK                            x       y       z     vdW  Elec       q    Type
REMARK                         _______ _______ _______ _____ _____    ______ ____
ROOT
ATOM      1  C   UNL     1      -5.000  -8.982   2.388  0.00  0.00    +0.250 C 
ATOM      2  O   UNL     1      -5.876  -9.819   2.283  0.00  0.00    -0.270 OA
ATOM      3  N   UNL     1      -5.322  -7.678   2.493  0.00  0.00    -0.294 N 
ATOM      4  C   UNL     1      -4.275  -6.647   2.496  0.00  0.00    +0.127 C 
ATOM      5  C   UNL     1      -4.578  -5.638   1.381  0.00  0.00    +0.128 C 
ATOM      6  N   UNL     1      -5.983  -5.221   1.494  0.00  0.00    -0.281 N 
ATOM      7  C   UNL     1      -7.030  -6.253   1.491  0.00  0.00    +0.128 C 
ATOM      8  C   UNL     1      -6.727  -7.261   2.600  0.00  0.00    +0.127 C 
ATOM      9  C   UNL     1      -6.306  -3.917   1.599  0.00  0.00    +0.319 C 
ATOM     10  O   UNL     1      -5.440  -3.067   1.508  0.00  0.00    -0.251 OA
ATOM     11  N   UNL     1      -7.587  -3.554   1.804  0.00  0.00    -0.218 N 
ATOM     12  H   UNL     1      -8.288  -4.225   1.803  0.00  0.00    +0.174 HD
ENDROOT
BRANCH   1  15
ATOM     13  C   UNL     1      -3.720 -11.284   0.684  0.00  0.00    +0.087 C 
ATOM     14  C   UNL     1      -3.010 -10.392   1.669  0.00  0.00    +0.114 A 
ATOM     15  C   UNL     1      -3.585  -9.395   2.402  0.00  0.00    +0.077 A 
ATOM     16  C   UNL     1      -2.498  -8.819   3.207  0.00  0.00    +0.054 A 
ATOM     17  C   UNL     1      -1.395  -9.511   2.887  0.00  0.00    +0.196 A 
ATOM     18  O   UNL     1      -1.710 -10.446   1.977  0.00  0.00    -0.467 OA
ENDBRANCH   1  15
BRANCH  11  19
ATOM     19  N   UNL     1      -7.908  -2.207   2.019  0.00  0.00    -0.233 N 
ATOM     20  C   UNL     1      -9.173  -1.856   2.325  0.00  0.00    +0.229 C 
ATOM     21  O   UNL     1     -10.033  -2.706   2.414  0.00  0.00    -0.274 OA
ATOM     22  H   UNL     1      -7.220  -1.527   1.947  0.00  0.00    +0.173 HD
BRANCH  20  23
ATOM     23  C   UNL     1      -9.518  -0.407   2.555  0.00  0.00    +0.097 C 
BRANCH  23  24
ATOM     24  C   UNL     1     -11.007  -0.284   2.884  0.00  0.00    +0.013 C 
BRANCH  24  25
ATOM     25  C   UNL     1     -11.357   1.187   3.119  0.00  0.00    -0.011 C 
ATOM     26  C   UNL     1     -10.625   1.694   4.363  0.00  0.00    +0.003 C 
ATOM     27  C   UNL     1     -10.976   3.164   4.597  0.00  0.00    +0.000 C 
ATOM     28  C   UNL     1     -12.485   3.303   4.802  0.00  0.00    +0.000 C 
ATOM     29  C   UNL     1     -13.218   2.796   3.558  0.00  0.00    +0.000 C 
ATOM     30  C   UNL     1     -12.867   1.325   3.324  0.00  0.00    +0.003 C 
ENDBRANCH  24  25
ENDBRANCH  23  24
ENDBRANCH  20  23
ENDBRANCH  11  19
TORSDOF 5
