REMARK  Name = ZINC36214354
REMARK  9 active torsions:
REMARK  status: ('A' for Active; 'I' for Inactive)
REMARK    1  A    between atoms: C_1  and  C_2
REMARK    2  A    between atoms: C_2  and  C_3
REMARK    3  A    between atoms: C_3  and  C_5
REMARK    4  A    between atoms: C_3  and  N_6
REMARK    5  A    between atoms: C_7  and  C_9
REMARK    6  A    between atoms: C_9  and  C_11
REMARK    7  A    between atoms: C_9  and  N_27
REMARK    8  A    between atoms: N_19  and  C_20
REMARK    9  A    between atoms: C_28  and  C_30
REMARK                            x       y       z     vdW  Elec       q    Type
REMARK                         _______ _______ _______ _____ _____    ______ ____
ROOT
ATOM      1  C   UNL     1      -0.579   1.250  -5.420  0.00  0.00    +0.162 C 
ENDROOT
BRANCH   1   2
ATOM      2  C   UNL     1      -1.269  -0.108  -5.554  0.00  0.00    +0.021 C 
ATOM      3  C   UNL     1      -0.300  -1.113  -6.181  0.00  0.00    +0.025 C 
ATOM      4  C   UNL     1      -0.984  -2.480  -6.283  0.00  0.00    +0.109 C 
ATOM      5  N   UNL     1      -2.248  -2.324  -7.015  0.00  0.00    -0.285 N 
ATOM      6  C   UNL     1      -3.214  -1.320  -6.549  0.00  0.00    +0.109 C 
ATOM      7  C   UNL     1      -2.506   0.035  -6.445  0.00  0.00    +0.025 C 
ATOM      8  C   UNL     1      -2.516  -3.087  -8.093  0.00  0.00    +0.306 C 
ATOM      9  O   UNL     1      -1.671  -3.846  -8.526  0.00  0.00    -0.252 OA
ATOM     10  N   UNL     1      -3.721  -3.008  -8.691  0.00  0.00    -0.269 N 
ATOM     11  H   UNL     1      -4.368  -2.348  -8.395  0.00  0.00    +0.156 HD
BRANCH  10  12
ATOM     12  C   UNL     1      -4.040  -3.878  -9.740  0.00  0.00    +0.036 A 
ATOM     13  C   UNL     1      -3.538  -5.173  -9.747  0.00  0.00    +0.023 A 
ATOM     14  C   UNL     1      -3.854  -6.029 -10.783  0.00  0.00    +0.003 A 
ATOM     15  C   UNL     1      -4.670  -5.599 -11.814  0.00  0.00    +0.020 A 
ATOM     16  C   UNL     1      -5.171  -4.309 -11.811  0.00  0.00    +0.043 A 
ATOM     17  C   UNL     1      -4.863  -3.450 -10.773  0.00  0.00    +0.043 A 
ATOM     18 CL   UNL     1      -6.194  -3.773 -13.107  0.00  0.00    -0.083 Cl
ENDBRANCH  10  12
ENDBRANCH   1   2
BRANCH   1  20
ATOM     19  N   UNL     1       0.508   0.684  -3.271  0.00  0.00    -0.311 N 
ATOM     20  C   UNL     1       0.639   1.110  -4.543  0.00  0.00    +0.234 C 
ATOM     21  O   UNL     1       1.737   1.381  -4.982  0.00  0.00    -0.274 OA
ATOM     22  H   UNL     1      -0.370   0.467  -2.920  0.00  0.00    +0.149 HD
BRANCH  19  23
ATOM     23  C   UNL     1       1.692   0.547  -2.418  0.00  0.00    +0.070 C 
ATOM     24  C   UNL     1       2.336  -0.820  -2.655  0.00  0.00    +0.028 C 
BRANCH  23  26
ATOM     25  C   UNL     1       0.750   2.080  -0.684  0.00  0.00    +0.005 C 
ATOM     26  C   UNL     1       1.280   0.669  -0.950  0.00  0.00    +0.018 C 
ENDBRANCH  23  26
ENDBRANCH  19  23
ENDBRANCH   1  20
BRANCH   1  27
ATOM     27  N   UNL     1      -0.174   1.726  -6.745  0.00  0.00    -0.300 N 
ATOM     28  C   UNL     1      -0.020   3.046  -6.969  0.00  0.00    +0.245 C 
ATOM     29  O   UNL     1      -0.216   3.842  -6.071  0.00  0.00    -0.270 OA
ATOM     30  H   UNL     1      -0.017   1.091  -7.461  0.00  0.00    +0.150 HD
BRANCH  28  31
ATOM     31  C   UNL     1       0.388   3.525  -8.304  0.00  0.00    +0.040 A 
ATOM     32  C   UNL     1       0.609   2.612  -9.338  0.00  0.00    +0.017 A 
ATOM     33  C   UNL     1       0.989   3.062 -10.584  0.00  0.00    +0.050 A 
ATOM     34  C   UNL     1       1.153   4.420 -10.817  0.00  0.00    +0.166 A 
ATOM     35  C   UNL     1       0.935   5.337  -9.788  0.00  0.00    +0.167 A 
ATOM     36  C   UNL     1       0.548   4.893  -8.538  0.00  0.00    +0.062 A 
ATOM     37  O   UNL     1       1.161   6.595 -10.270  0.00  0.00    -0.453 OA
ATOM     38  C   UNL     1       1.914   6.411 -11.483  0.00  0.00    +0.466 C 
ATOM     39  O   UNL     1       1.515   5.105 -11.940  0.00  0.00    -0.453 OA
ENDBRANCH  28  31
ENDBRANCH   1  27
TORSDOF 7
