REMARK  Name = ZINC03045911
REMARK  9 active torsions:
REMARK  status: ('A' for Active; 'I' for Inactive)
REMARK    1  A    between atoms: C_1  and  C_2
REMARK    2  A    between atoms: C_5  and  N_9
REMARK    3  A    between atoms: C_7  and  C_8
REMARK    4  A    between atoms: N_9  and  C_10
REMARK    5  A    between atoms: C_10  and  N_12
REMARK    6  A    between atoms: N_12  and  C_13
REMARK    7  A    between atoms: C_15  and  C_35
REMARK    8  A    between atoms: C_18  and  N_19
REMARK    9  A    between atoms: N_37  and  C_38
REMARK                            x       y       z     vdW  Elec       q    Type
REMARK                         _______ _______ _______ _____ _____    ______ ____
ROOT
ATOM      1  C   UNL     1       0.832   0.985   0.329  0.00  0.00    +0.055 A 
ATOM      2  C   UNL     1       0.606   2.267   0.795  0.00  0.00    +0.038 A 
ATOM      3  C   UNL     1       1.654   2.995   1.365  0.00  0.00    +0.039 A 
ATOM      4  C   UNL     1       2.927   2.425   1.462  0.00  0.00    +0.015 A 
ATOM      5  C   UNL     1       3.148   1.148   0.996  0.00  0.00    +0.026 A 
ATOM      6  C   UNL     1       2.106   0.419   0.434  0.00  0.00    +0.051 A 
ENDROOT
BRANCH   6   7
ATOM      7  N   UNL     1       2.332  -0.874  -0.030  0.00  0.00    -0.328 N 
ATOM      8  C   UNL     1       3.767  -1.171  -0.077  0.00  0.00    +0.110 C 
ATOM      9  C   UNL     1       4.019  -2.562  -0.642  0.00  0.00    +0.027 C 
ATOM     10  C   UNL     1       3.249  -3.625   0.169  0.00  0.00    +0.018 C 
ATOM     11  C   UNL     1       1.766  -3.237   0.121  0.00  0.00    +0.053 C 
ATOM     12  C   UNL     1       1.612  -1.861   0.789  0.00  0.00    +0.114 C 
ATOM     13  C   UNL     1       1.324  -3.098  -1.318  0.00  0.00    +0.027 A 
ATOM     14  C   UNL     1       0.022  -3.361  -1.604  0.00  0.00    +0.022 A 
ATOM     15  C   UNL     1      -0.470  -3.188  -2.903  0.00  0.00    +0.007 A 
ATOM     16  C   UNL     1       0.373  -2.725  -3.870  0.00  0.00    +0.070 A 
ATOM     17  C   UNL     1       1.710  -2.460  -3.541  0.00  0.00    +0.251 A 
ATOM     18  O   UNL     1       2.457  -1.984  -4.381  0.00  0.00    -0.268 OA
ATOM     19  N   UNL     1       2.181  -2.728  -2.298  0.00  0.00    -0.312 N 
ATOM     20  C   UNL     1       3.630  -2.654  -2.108  0.00  0.00    +0.130 C 
ENDBRANCH   6   7
BRANCH   3  21
ATOM     21  C   UNL     1       1.418   4.363   1.864  0.00  0.00    +0.244 C 
ATOM     22  O   UNL     1       0.310   4.857   1.780  0.00  0.00    -0.270 OA
ATOM     23  N   UNL     1       2.429   5.064   2.413  0.00  0.00    -0.308 N 
ATOM     24  H   UNL     1       3.431   4.616   2.490  0.00  0.00    +0.149 HD
BRANCH  23  25
ATOM     25  C   UNL     1       2.194   6.422   2.909  0.00  0.00    +0.073 C 
ATOM     26  C   UNL     1       3.241   7.487   2.576  0.00  0.00    +0.024 C 
ATOM     27  C   UNL     1       3.127   6.947   4.003  0.00  0.00    +0.024 C 
ENDBRANCH  23  25
ENDBRANCH   3  21
BRANCH   1  28
ATOM     28  N   UNL     1      -0.216   0.252  -0.243  0.00  0.00    -0.295 N 
ATOM     29  H   UNL     1      -0.066  -0.266  -1.202  0.00  0.00    +0.154 HD
BRANCH  28  30
ATOM     30  C   UNL     1      -1.408   0.181   0.381  0.00  0.00    +0.139 C 
ATOM     31  S   UNL     1      -1.683   1.088   1.807  0.00  0.00    -0.018 S 
BRANCH  30  32
ATOM     32  N   UNL     1      -2.384  -0.604  -0.116  0.00  0.00    -0.297 N 
ATOM     33  H   UNL     1      -2.243  -1.112  -1.082  0.00  0.00    +0.154 HD
BRANCH  32  38
ATOM     34  C   UNL     1      -7.222  -1.287   2.766  0.00  0.00    +0.044 C 
ATOM     35  C   UNL     1      -5.937  -1.106   2.000  0.00  0.00    -0.047 A 
ATOM     36  C   UNL     1      -4.726  -1.129   2.669  0.00  0.00    +0.005 A 
ATOM     37  C   UNL     1      -3.547  -0.968   1.969  0.00  0.00    +0.023 A 
ATOM     38  C   UNL     1      -3.577  -0.772   0.594  0.00  0.00    +0.033 A 
ATOM     39  C   UNL     1      -4.794  -0.750  -0.074  0.00  0.00    +0.027 A 
ATOM     40  C   UNL     1      -5.971  -0.917   0.631  0.00  0.00    -0.046 A 
ATOM     41  C   UNL     1      -7.292  -0.894  -0.093  0.00  0.00    +0.044 C 
ENDBRANCH  32  38
ENDBRANCH  30  32
ENDBRANCH  28  30
ENDBRANCH   1  28
TORSDOF 7
