REMARK  Name = ZINC63541084
REMARK  6 active torsions:
REMARK  status: ('A' for Active; 'I' for Inactive)
REMARK    1  A    between atoms: C_7  and  C_10
REMARK    2  A    between atoms: C_10  and  C_11
REMARK    3  A    between atoms: C_11  and  N_12
REMARK    4  A    between atoms: C_13  and  C_15
REMARK    5  A    between atoms: C_22  and  C_31
REMARK    6  A    between atoms: C_24  and  C_27
REMARK                            x       y       z     vdW  Elec       q    Type
REMARK                         _______ _______ _______ _____ _____    ______ ____
ROOT
ATOM      1  C   UNL     1      -1.752  -6.557  -2.622  0.00  0.00    +0.180 C 
ATOM      2  C   UNL     1      -3.231  -6.083  -2.548  0.00  0.00    +0.151 C 
ATOM      3  C   UNL     1      -3.497  -5.763  -4.033  0.00  0.00    +0.226 C 
ATOM      4  N   UNL     1      -4.864  -6.122  -4.413  0.00  0.00    -0.258 NA
ATOM      5  C   UNL     1      -5.092  -6.613  -5.613  0.00  0.00    +0.076 C 
ATOM      6  C   UNL     1      -4.008  -6.805  -6.585  0.00  0.00    +0.057 C 
ATOM      7  C   UNL     1      -2.725  -6.842  -6.140  0.00  0.00    +0.129 C 
ATOM      8  N   UNL     1      -2.576  -6.651  -4.776  0.00  0.00    -0.236 N 
ATOM      9  N   UNL     1      -1.708  -7.270  -3.924  0.00  0.00    -0.225 NA
ATOM     10 CL   UNL     1      -4.311  -7.402  -1.960  0.00  0.00    -0.116 Cl
ATOM     11  H   UNL     1      -1.945  -8.245  -3.811  0.00  0.00    +0.145 HD
ENDROOT
BRANCH   5  12
ATOM     12  C   UNL     1      -6.469  -6.980  -5.990  0.00  0.00    +0.037 A 
ATOM     13  C   UNL     1      -7.622  -6.883  -5.252  0.00  0.00    +0.017 A 
ATOM     14  C   UNL     1      -8.775  -7.308  -5.875  0.00  0.00    +0.008 A 
ATOM     15  C   UNL     1      -8.700  -7.782  -7.141  0.00  0.00    +0.046 A 
ATOM     16  S   UNL     1      -7.069  -7.658  -7.525  0.00  0.00    -0.095 S 
ENDBRANCH   5  12
BRANCH   1  18
ATOM     17  N   UNL     1      -0.458  -4.798  -1.460  0.00  0.00    -0.314 N 
ATOM     18  C   UNL     1      -0.811  -5.380  -2.623  0.00  0.00    +0.233 C 
ATOM     19  O   UNL     1      -0.371  -4.957  -3.671  0.00  0.00    -0.274 OA
ATOM     20  H   UNL     1      -0.810  -5.136  -0.622  0.00  0.00    +0.149 HD
BRANCH  17  21
ATOM     21  C   UNL     1       0.457  -3.653  -1.462  0.00  0.00    +0.108 C 
BRANCH  21  22
ATOM     22  C   UNL     1       0.691  -3.186  -0.024  0.00  0.00    +0.052 C 
BRANCH  22  29
ATOM     23  C   UNL     1      -0.016   1.348   0.009  0.00  0.00    +0.001 A 
ATOM     24  C   UNL     1       1.166   2.101   0.002  0.00  0.00    +0.002 A 
ATOM     25  C   UNL     1       2.391   1.535  -0.013  0.00  0.00    +0.026 A 
ATOM     26  C   UNL     1       2.529   0.120  -0.022  0.00  0.00    +0.043 A 
ATOM     27  N   UNL     1       3.587  -0.654  -0.037  0.00  0.00    -0.380 N 
ATOM     28  C   UNL     1       3.143  -2.053  -0.041  0.00  0.00    +0.144 C 
ATOM     29  C   UNL     1       1.631  -2.008  -0.025  0.00  0.00    -0.040 C 
ATOM     30  C   UNL     1       1.295  -0.698  -0.014  0.00  0.00    -0.001 A 
ATOM     31  C   UNL     1       0.002  -0.004   0.002  0.00  0.00    +0.010 A 
ATOM     32  H   UNL     1       4.509  -0.353  -0.045  0.00  0.00    +0.160 HD
ENDBRANCH  22  29
ENDBRANCH  21  22
ENDBRANCH  17  21
ENDBRANCH   1  18
BRANCH   7  33
ATOM     33  C   UNL     1      -1.550  -7.062  -7.057  0.00  0.00    +0.431 C 
ATOM     34  F   UNL     1      -2.005  -7.210  -8.371  0.00  0.00    -0.165 F 
ATOM     35  F   UNL     1      -0.689  -5.962  -6.982  0.00  0.00    -0.165 F 
ATOM     36  F   UNL     1      -0.864  -8.217  -6.668  0.00  0.00    -0.165 F 
ENDBRANCH   7  33
TORSDOF 6
