REMARK  Name = ZINC21657394
REMARK  5 active torsions:
REMARK  status: ('A' for Active; 'I' for Inactive)
REMARK    1  A    between atoms: C_1  and  C_2
REMARK    2  A    between atoms: N_4  and  C_5
REMARK    3  A    between atoms: C_9  and  N_11
REMARK    4  A    between atoms: C_13  and  C_18
REMARK    5  A    between atoms: N_20  and  C_21
REMARK                            x       y       z     vdW  Elec       q    Type
REMARK                         _______ _______ _______ _____ _____    ______ ____
ROOT
ATOM      1  N   UNL     1      -7.083   0.914   1.181  0.00  0.00    -0.271 N 
ATOM      2  C   UNL     1      -6.187   1.641   0.274  0.00  0.00    +0.127 C 
ATOM      3  C   UNL     1      -5.121   0.612  -0.164  0.00  0.00    +0.102 C 
ATOM      4  C   UNL     1      -5.136  -0.382   1.020  0.00  0.00    +0.110 C 
ATOM      5  C   UNL     1      -6.516  -0.223   1.620  0.00  0.00    +0.221 C 
ATOM      6  O   UNL     1      -7.036  -1.008   2.385  0.00  0.00    -0.275 OA
ENDROOT
BRANCH   1  11
ATOM      7  C   UNL     1     -10.357   1.087   2.854  0.00  0.00    +0.035 A 
ATOM      8  C   UNL     1     -10.898   2.216   2.251  0.00  0.00    +0.023 A 
ATOM      9  C   UNL     1     -10.173   2.906   1.299  0.00  0.00    +0.004 A 
ATOM     10  C   UNL     1      -8.907   2.479   0.947  0.00  0.00    +0.023 A 
ATOM     11  C   UNL     1      -8.363   1.348   1.542  0.00  0.00    +0.038 A 
ATOM     12  C   UNL     1      -9.088   0.653   2.499  0.00  0.00    +0.046 A 
BRANCH   7  16
ATOM     13  C   UNL     1     -13.235  -0.333   4.822  0.00  0.00    +0.109 C 
ATOM     14  C   UNL     1     -12.434   0.319   3.724  0.00  0.00    +0.214 C 
ATOM     15  O   UNL     1     -12.998   0.779   2.754  0.00  0.00    -0.276 OA
ATOM     16  N   UNL     1     -11.092   0.389   3.819  0.00  0.00    -0.286 N 
ATOM     17  H   UNL     1     -10.573  -0.102   4.656  0.00  0.00    +0.155 HD
ENDBRANCH   7  16
ENDBRANCH   1  11
BRANCH   3  18
ATOM     18  C   UNL     1      -3.769   1.263  -0.304  0.00  0.00    +0.222 C 
ATOM     19  O   UNL     1      -3.660   2.465  -0.189  0.00  0.00    -0.275 OA
ATOM     20  N   UNL     1      -2.681   0.509  -0.558  0.00  0.00    -0.285 N 
ATOM     21  H   UNL     1      -2.790  -0.571  -0.738  0.00  0.00    +0.155 HD
BRANCH  20  22
ATOM     22  C   UNL     1      -1.411   1.100  -0.592  0.00  0.00    +0.037 A 
ATOM     23  C   UNL     1      -0.307   0.401  -0.125  0.00  0.00    +0.027 A 
ATOM     24  C   UNL     1       0.945   0.984  -0.154  0.00  0.00    +0.051 A 
ATOM     25  C   UNL     1       1.103   2.268  -0.651  0.00  0.00    +0.166 A 
ATOM     26  C   UNL     1      -0.003   2.971  -1.123  0.00  0.00    +0.168 A 
ATOM     27  C   UNL     1      -1.257   2.385  -1.095  0.00  0.00    +0.072 A 
ATOM     28  O   UNL     1       0.412   4.198  -1.554  0.00  0.00    -0.453 OA
ATOM     29  C   UNL     1       1.711   4.394  -0.965  0.00  0.00    +0.466 C 
ATOM     30  O   UNL     1       2.211   3.055  -0.786  0.00  0.00    -0.453 OA
ENDBRANCH  20  22
ENDBRANCH   3  18
TORSDOF 4
