REMARK  Name = ZINC44785203
REMARK  5 active torsions:
REMARK  status: ('A' for Active; 'I' for Inactive)
REMARK    1  A    between atoms: C_1  and  C_2
REMARK    2  A    between atoms: C_6  and  C_10
REMARK    3  A    between atoms: C_11  and  C_13
REMARK    4  A    between atoms: C_13  and  C_19
REMARK    5  A    between atoms: N_20  and  O_21
REMARK                            x       y       z     vdW  Elec       q    Type
REMARK                         _______ _______ _______ _____ _____    ______ ____
ROOT
ATOM      1  C   UNL     1      -2.870  -2.340  -1.815  0.00  0.00    +0.105 C 
ATOM      2  C   UNL     1      -2.139  -1.737  -3.016  0.00  0.00    +0.024 C 
ATOM      3  C   UNL     1      -1.057  -2.707  -3.494  0.00  0.00    +0.001 C 
ATOM      4  C   UNL     1      -1.704  -4.031  -3.903  0.00  0.00    +0.000 C 
ATOM      5  C   UNL     1      -2.435  -4.634  -2.702  0.00  0.00    +0.001 C 
ATOM      6  C   UNL     1      -3.517  -3.664  -2.224  0.00  0.00    +0.024 C 
ENDROOT
BRANCH   1  15
ATOM      7  C   UNL     1      -5.518  -3.522   2.369  0.00  0.00    +0.039 C 
ATOM      8  C   UNL     1      -4.111  -3.024   2.033  0.00  0.00    +0.133 C 
ATOM      9  C   UNL     1      -3.704  -3.538   0.647  0.00  0.00    +0.139 C 
ATOM     10  N   UNL     1      -2.287  -3.206   0.428  0.00  0.00    -0.293 N 
ATOM     11  C   UNL     1      -1.320  -3.574   1.474  0.00  0.00    +0.099 C 
ATOM     12  C   UNL     1      -1.844  -3.058   2.819  0.00  0.00    +0.182 C 
ATOM     13  O   UNL     1      -3.187  -3.511   3.008  0.00  0.00    -0.373 OA
ATOM     14  C   UNL     1      -1.172  -5.096   1.528  0.00  0.00    +0.030 C 
ATOM     15  C   UNL     1      -1.887  -2.584  -0.699  0.00  0.00    +0.229 C 
ATOM     16  O   UNL     1      -0.735  -2.222  -0.815  0.00  0.00    -0.275 OA
ENDBRANCH   1  15
BRANCH   1  17
ATOM     17  C   UNL     1      -3.936  -1.384  -1.344  0.00  0.00    +0.147 C 
ATOM     18  N   UNL     1      -5.183  -1.697  -1.464  0.00  0.00    -0.076 NA
ATOM     19  N   UNL     1      -3.580  -0.176  -0.785  0.00  0.00    -0.343 N 
ATOM     20  H   UNL     1      -2.645   0.028  -0.626  0.00  0.00    +0.144 HD
ATOM     21  H   UNL     1      -4.264   0.470  -0.551  0.00  0.00    +0.144 HD
BRANCH  18  22
ATOM     22  O   UNL     1      -6.185  -0.799  -1.022  0.00  0.00    -0.408 OA
ATOM     23  H   UNL     1      -7.087  -1.121  -1.153  0.00  0.00    +0.328 HD
ENDBRANCH  18  22
ENDBRANCH   1  17
TORSDOF 3
