REMARK  Name = ZINC32832440
REMARK  8 active torsions:
REMARK  status: ('A' for Active; 'I' for Inactive)
REMARK    1  A    between atoms: C_1  and  C_2
REMARK    2  A    between atoms: C_5  and  C_8
REMARK    3  A    between atoms: C_10  and  C_13
REMARK    4  A    between atoms: N_15  and  C_16
REMARK    5  A    between atoms: C_19  and  N_22
REMARK    6  A    between atoms: C_23  and  N_28
REMARK    7  A    between atoms: C_25  and  C_27
REMARK    8  A    between atoms: C_29  and  C_31
REMARK                            x       y       z     vdW  Elec       q    Type
REMARK                         _______ _______ _______ _____ _____    ______ ____
ROOT
ATOM      1  C   UNL     1      -1.222  -0.675   0.103  0.00  0.00    +0.034 A 
ATOM      2  C   UNL     1      -2.410   0.045   0.116  0.00  0.00    +0.025 A 
ATOM      3  C   UNL     1      -3.617  -0.617   0.210  0.00  0.00    +0.029 A 
ATOM      4  C   UNL     1      -3.644  -2.002   0.303  0.00  0.00    +0.068 A 
ATOM      5  C   UNL     1      -2.456  -2.722   0.295  0.00  0.00    +0.029 A 
ATOM      6  C   UNL     1      -1.249  -2.061   0.195  0.00  0.00    +0.025 A 
ENDROOT
BRANCH   4   7
ATOM      7  N   UNL     1      -4.870  -2.675   0.405  0.00  0.00    -0.218 N 
ATOM      8  C   UNL     1      -5.977  -2.230   1.060  0.00  0.00    +0.129 A 
ATOM      9  C   UNL     1      -6.944  -3.177   0.918  0.00  0.00    +0.068 A 
ATOM     10  C   UNL     1      -6.413  -4.222   0.158  0.00  0.00    +0.062 A 
ATOM     11  N   UNL     1      -5.177  -3.922  -0.154  0.00  0.00    -0.170 NA
ATOM     12  C   UNL     1      -7.141  -5.479  -0.242  0.00  0.00    +0.067 C 
BRANCH   8  13
ATOM     13  N   UNL     1      -6.098  -1.024   1.751  0.00  0.00    -0.271 N 
ATOM     14  C   UNL     1      -7.259  -0.709   2.358  0.00  0.00    +0.215 C 
ATOM     15  O   UNL     1      -8.199  -1.473   2.303  0.00  0.00    -0.276 OA
ATOM     16  C   UNL     1      -7.390   0.594   3.104  0.00  0.00    +0.109 C 
ATOM     17  H   UNL     1      -5.245  -0.331   1.801  0.00  0.00    +0.156 HD
ENDBRANCH   8  13
ENDBRANCH   4   7
BRANCH   1  20
ATOM     18  C   UNL     1       0.091   1.132  -0.718  0.00  0.00    +0.267 C 
ATOM     19  O   UNL     1      -0.867   1.521  -1.360  0.00  0.00    -0.268 OA
ATOM     20  N   UNL     1       0.002  -0.004   0.002  0.00  0.00    -0.280 N 
ATOM     21  H   UNL     1       0.892  -0.404   0.510  0.00  0.00    +0.155 HD
BRANCH  18  24
ATOM     22  C   UNL     1       3.519   2.175  -0.059  0.00  0.00    +0.109 A 
ATOM     23  N   UNL     1       2.395   1.483  -0.036  0.00  0.00    -0.234 NA
ATOM     24  C   UNL     1       1.348   1.899  -0.732  0.00  0.00    +0.133 A 
ATOM     25  C   UNL     1       1.448   3.057  -1.462  0.00  0.00    +0.080 A 
ATOM     26  S   UNL     1       3.085   3.535  -1.133  0.00  0.00    -0.075 S 
BRANCH  22  31
ATOM     27  C   UNL     1       8.502   1.107   2.616  0.00  0.00    +0.044 C 
ATOM     28  C   UNL     1       7.197   1.387   1.915  0.00  0.00    -0.050 A 
ATOM     29  C   UNL     1       7.070   2.511   1.119  0.00  0.00    +0.004 A 
ATOM     30  C   UNL     1       5.878   2.773   0.475  0.00  0.00    +0.011 A 
ATOM     31  C   UNL     1       4.800   1.901   0.628  0.00  0.00    +0.007 A 
ATOM     32  C   UNL     1       4.933   0.772   1.437  0.00  0.00    +0.011 A 
ATOM     33  C   UNL     1       6.131   0.518   2.071  0.00  0.00    +0.004 A 
ENDBRANCH  22  31
ENDBRANCH  18  24
ENDBRANCH   1  20
TORSDOF 5
