REMARK  Name = ZINC11332716
REMARK  7 active torsions:
REMARK  status: ('A' for Active; 'I' for Inactive)
REMARK    1  A    between atoms: C_3  and  C_14
REMARK    2  A    between atoms: C_5  and  N_7
REMARK    3  A    between atoms: C_8  and  C_10
REMARK    4  A    between atoms: C_15  and  C_16
REMARK    5  A    between atoms: C_15  and  S_18
REMARK    6  A    between atoms: S_18  and  C_19
REMARK    7  A    between atoms: C_22  and  C_24
REMARK                            x       y       z     vdW  Elec       q    Type
REMARK                         _______ _______ _______ _____ _____    ______ ____
ROOT
ATOM      1  C   UNL     1      -5.979   1.641   0.463  0.00  0.00    +0.030 C 
ATOM      2  C   UNL     1      -7.157   0.972   0.474  0.00  0.00    +0.106 C 
ENDROOT
BRANCH   1   5
ATOM      3  C   UNL     1      -3.590  -0.501   2.408  0.00  0.00    +0.002 A 
ATOM      4  C   UNL     1      -4.750   0.134   2.014  0.00  0.00    +0.008 A 
ATOM      5  C   UNL     1      -4.745   0.962   0.887  0.00  0.00    -0.022 A 
ATOM      6  C   UNL     1      -3.561   1.143   0.165  0.00  0.00    +0.031 A 
ATOM      7  C   UNL     1      -2.403   0.500   0.571  0.00  0.00    +0.034 A 
ATOM      8  C   UNL     1      -2.422  -0.325   1.690  0.00  0.00    +0.023 A 
BRANCH   7   9
ATOM      9  N   UNL     1      -1.216   0.678  -0.148  0.00  0.00    -0.278 N 
ATOM     10  C   UNL     1      -0.939   1.872  -0.708  0.00  0.00    +0.321 C 
ATOM     11  O   UNL     1      -1.760   2.765  -0.669  0.00  0.00    -0.266 OA
ATOM     12  H   UNL     1      -0.592  -0.059  -0.243  0.00  0.00    +0.155 HD
BRANCH  10  13
ATOM     13  C   UNL     1       0.391   2.100  -1.378  0.00  0.00    +0.470 C 
ATOM     14  F   UNL     1       0.446   3.407  -1.874  0.00  0.00    -0.162 F 
ATOM     15  F   UNL     1       1.420   1.911  -0.448  0.00  0.00    -0.162 F 
ATOM     16  F   UNL     1       0.544   1.194  -2.433  0.00  0.00    -0.162 F 
ENDBRANCH  10  13
ENDBRANCH   7   9
ENDBRANCH   1   5
BRANCH   2  17
ATOM     17  C   UNL     1      -7.171  -0.490   0.618  0.00  0.00    +0.393 C 
ATOM     18  O   UNL     1      -6.128  -1.113   0.593  0.00  0.00    -0.240 OA
ATOM     19  O   UNL     1      -8.341  -1.141   0.776  0.00  0.00    -0.240 OA
ENDBRANCH   2  17
BRANCH   2  20
ATOM     20  S   UNL     1      -8.673   1.856   0.317  0.00  0.00    -0.022 S 
BRANCH  20  21
ATOM     21  C   UNL     1      -9.252   1.200  -1.213  0.00  0.00    +0.283 A 
ATOM     22  N   UNL     1      -8.684   0.247  -1.914  0.00  0.00    -0.100 NA
ATOM     23  N   UNL     1      -9.381   0.020  -2.971  0.00  0.00    -0.106 NA
ATOM     24  C   UNL     1     -10.416   0.825  -2.993  0.00  0.00    +0.249 A 
ATOM     25  O   UNL     1     -10.356   1.589  -1.880  0.00  0.00    -0.411 OA
BRANCH  24  26
ATOM     26  C   UNL     1     -11.455   0.885  -4.040  0.00  0.00    +0.042 A 
ATOM     27  C   UNL     1     -12.510   1.794  -3.929  0.00  0.00    +0.017 A 
ATOM     28  C   UNL     1     -13.476   1.852  -4.911  0.00  0.00    +0.050 A 
ATOM     29  C   UNL     1     -13.411   1.003  -6.006  0.00  0.00    +0.166 A 
ATOM     30  C   UNL     1     -12.364   0.089  -6.120  0.00  0.00    +0.167 A 
ATOM     31  C   UNL     1     -11.389   0.030  -5.142  0.00  0.00    +0.062 A 
ATOM     32  O   UNL     1     -12.530  -0.621  -7.275  0.00  0.00    -0.453 OA
ATOM     33  C   UNL     1     -13.457   0.144  -8.067  0.00  0.00    +0.466 C 
ATOM     34  O   UNL     1     -14.231   0.864  -7.089  0.00  0.00    -0.453 OA
ENDBRANCH  24  26
ENDBRANCH  20  21
ENDBRANCH   2  20
TORSDOF 7
