REMARK  Name = ZINC32527458
REMARK  11 active torsions:
REMARK  status: ('A' for Active; 'I' for Inactive)
REMARK    1  A    between atoms: C_1  and  C_2
REMARK    2  A    between atoms: C_2  and  C_3
REMARK    3  A    between atoms: C_3  and  C_5
REMARK    4  A    between atoms: C_3  and  N_18
REMARK    5  A    between atoms: N_7  and  C_8
REMARK    6  A    between atoms: C_9  and  C_15
REMARK    7  A    between atoms: C_10  and  C_14
REMARK    8  A    between atoms: C_11  and  C_13
REMARK    9  A    between atoms: C_22  and  C_31
REMARK   10  A    between atoms: C_25  and  C_30
REMARK   11  A    between atoms: C_27  and  C_29
REMARK                            x       y       z     vdW  Elec       q    Type
REMARK                         _______ _______ _______ _____ _____    ______ ____
ROOT
ATOM      1  C   UNL     1      -2.651   0.451   5.207  0.00  0.00    +0.176 C 
ENDROOT
BRANCH   1   2
ATOM      2  N   UNL     1      -3.618  -0.136   6.138  0.00  0.00    -0.296 N 
ATOM      3  C   UNL     1      -3.804  -1.468   6.148  0.00  0.00    +0.253 A 
ATOM      4  O   UNL     1      -3.162  -2.163   5.380  0.00  0.00    -0.268 OA
ATOM      5  C   UNL     1      -4.719  -2.082   7.029  0.00  0.00    +0.074 A 
ATOM      6  C   UNL     1      -5.449  -1.329   7.889  0.00  0.00    -0.036 A 
ATOM      7  C   UNL     1      -5.260   0.123   7.882  0.00  0.00    +0.002 A 
ATOM      8  C   UNL     1      -4.330   0.685   6.987  0.00  0.00    +0.056 A 
ATOM      9  C   UNL     1      -4.143   2.063   6.973  0.00  0.00    -0.026 A 
ATOM     10  C   UNL     1      -4.868   2.861   7.831  0.00  0.00    +0.008 A 
ATOM     11  C   UNL     1      -5.784   2.303   8.712  0.00  0.00    -0.050 A 
ATOM     12  C   UNL     1      -5.984   0.952   8.744  0.00  0.00    +0.013 A 
ATOM     13  C   UNL     1      -6.565   3.196   9.642  0.00  0.00    +0.044 C 
ATOM     14  C   UNL     1      -3.151   2.682   6.022  0.00  0.00    +0.046 C 
ATOM     15  C   UNL     1      -6.434  -1.972   8.831  0.00  0.00    +0.044 C 
ENDBRANCH   1   2
BRANCH   1  16
ATOM     16  C   UNL     1      -2.788  -0.206   3.858  0.00  0.00    +0.241 C 
ATOM     17  O   UNL     1      -3.613  -1.080   3.691  0.00  0.00    -0.273 OA
ATOM     18  N   UNL     1      -1.994   0.176   2.839  0.00  0.00    -0.278 N 
ATOM     19  H   UNL     1      -1.246   0.968   2.991  0.00  0.00    +0.155 HD
BRANCH  18  20
ATOM     20  C   UNL     1      -2.121  -0.429   1.597  0.00  0.00    +0.084 A 
ATOM     21  C   UNL     1      -1.401  -0.175   0.436  0.00  0.00    +0.068 A 
ATOM     22  C   UNL     1      -1.740  -0.965  -0.724  0.00  0.00    -0.027 A 
ATOM     23  C   UNL     1      -2.722  -1.873  -0.583  0.00  0.00    -0.008 A 
ATOM     24  S   UNL     1      -3.214  -1.683   1.118  0.00  0.00    -0.078 S 
ATOM     25  C   UNL     1      -3.273  -2.823  -1.615  0.00  0.00    +0.052 C 
ATOM     26  C   UNL     1      -1.023  -0.781  -2.037  0.00  0.00    +0.045 C 
BRANCH  21  27
ATOM     27  C   UNL     1      -0.347   0.843   0.392  0.00  0.00    +0.244 C 
ATOM     28  O   UNL     1      -0.619   1.989   0.087  0.00  0.00    -0.270 OA
ATOM     29  N   UNL     1       0.925   0.509   0.689  0.00  0.00    -0.325 N 
ATOM     30  H   UNL     1       1.716   1.272   0.655  0.00  0.00    +0.145 HD
ATOM     31  H   UNL     1       1.171  -0.527   0.964  0.00  0.00    +0.145 HD
ENDBRANCH  21  27
ENDBRANCH  18  20
ENDBRANCH   1  16
BRANCH   1  33
ATOM     32  C   UNL     1      -1.056   1.003   7.049  0.00  0.00    +0.006 C 
ATOM     33  C   UNL     1      -1.233   0.232   5.740  0.00  0.00    +0.031 C 
ENDBRANCH   1  33
TORSDOF 5
