REMARK  Name = ZINC39555278
REMARK  5 active torsions:
REMARK  status: ('A' for Active; 'I' for Inactive)
REMARK    1  A    between atoms: C_3  and  C_29
REMARK    2  A    between atoms: C_5  and  S_7
REMARK    3  A    between atoms: S_7  and  N_10
REMARK    4  A    between atoms: C_13  and  C_16
REMARK    5  A    between atoms: N_18  and  C_19
REMARK                            x       y       z     vdW  Elec       q    Type
REMARK                         _______ _______ _______ _____ _____    ______ ____
ROOT
ATOM      1  N   UNL     1       1.239  -2.960   1.533  0.00  0.00    -0.177 NA
ATOM      2  C   UNL     1       2.514  -3.151   2.236  0.00  0.00    +0.110 C 
ATOM      3  C   UNL     1       2.538  -4.559   2.840  0.00  0.00    +0.030 C 
ATOM      4  C   UNL     1       1.300  -4.753   3.719  0.00  0.00    +0.078 C 
ATOM      5  C   UNL     1       0.038  -4.615   2.864  0.00  0.00    +0.030 C 
ATOM      6  C   UNL     1      -0.013  -3.203   2.261  0.00  0.00    +0.110 C 
ENDROOT
BRANCH   4   7
ATOM      7  C   UNL     1       1.337  -6.125   4.342  0.00  0.00    +0.220 C 
ATOM      8  O   UNL     1       2.262  -6.873   4.107  0.00  0.00    -0.275 OA
ATOM      9  N   UNL     1       0.342  -6.520   5.161  0.00  0.00    -0.284 N 
ATOM     10  H   UNL     1      -0.356  -5.895   5.413  0.00  0.00    +0.155 HD
BRANCH   9  11
ATOM     11  C   UNL     1       0.315  -7.832   5.647  0.00  0.00    +0.059 A 
ATOM     12  C   UNL     1       0.943  -8.846   4.948  0.00  0.00    +0.025 A 
ATOM     13  C   UNL     1       0.920 -10.150   5.425  0.00  0.00    +0.003 A 
ATOM     14  C   UNL     1       0.280 -10.456   6.589  0.00  0.00    +0.011 A 
ATOM     15  C   UNL     1      -0.366  -9.449   7.319  0.00  0.00    +0.021 A 
ATOM     16  C   UNL     1      -0.342  -8.125   6.846  0.00  0.00    +0.087 A 
ATOM     17  N   UNL     1      -1.038  -7.370   7.756  0.00  0.00    -0.275 N 
ATOM     18  H   UNL     1      -1.197  -6.415   7.701  0.00  0.00    +0.189 HD
ATOM     19  N   UNL     1      -1.478  -8.219   8.779  0.00  0.00    -0.181 NA
ATOM     20  C   UNL     1      -1.099  -9.439   8.531  0.00  0.00    +0.142 A 
ENDBRANCH   9  11
ENDBRANCH   4   7
BRANCH   1  21
ATOM     21  S   UNL     1       1.213  -2.472  -0.050  0.00  0.00    +0.061 S 
ATOM     22  O   UNL     1      -0.030  -2.901  -0.587  0.00  0.00    -0.153 OA
ATOM     23  O   UNL     1       2.460  -2.856  -0.613  0.00  0.00    -0.153 OA
BRANCH  21  28
ATOM     24  C   UNL     1      -0.053   1.341  -0.044  0.00  0.00    +0.002 A 
ATOM     25  C   UNL     1       1.131   2.054  -0.057  0.00  0.00    +0.012 A 
ATOM     26  C   UNL     1       2.340   1.385  -0.067  0.00  0.00    +0.057 A 
ATOM     27  C   UNL     1       2.365   0.002  -0.065  0.00  0.00    +0.041 A 
ATOM     28  C   UNL     1       1.181  -0.711  -0.052  0.00  0.00    +0.106 A 
ATOM     29  C   UNL     1      -0.029  -0.041  -0.042  0.00  0.00    +0.028 A 
BRANCH  26  30
ATOM     30  C   UNL     1       3.631   2.162  -0.082  0.00  0.00    +0.417 C 
ATOM     31  F   UNL     1       3.351   3.532  -0.082  0.00  0.00    -0.166 F 
ATOM     32  F   UNL     1       4.382   1.839   1.053  0.00  0.00    -0.166 F 
ATOM     33  F   UNL     1       4.359   1.834  -1.231  0.00  0.00    -0.166 F 
ENDBRANCH  26  30
ENDBRANCH  21  28
ENDBRANCH   1  21
TORSDOF 5
