REMARK  Name = ZINC09012063
REMARK  16 active torsions:
REMARK  status: ('A' for Active; 'I' for Inactive)
REMARK    1  A    between atoms: C_1  and  C_2
REMARK    2  A    between atoms: C_2  and  O_3
REMARK    3  A    between atoms: O_3  and  C_4
REMARK    4  A    between atoms: C_4  and  C_6
REMARK    5  A    between atoms: C_9  and  N_12
REMARK    6  A    between atoms: C_13  and  C_15
REMARK    7  A    between atoms: C_16  and  C_38
REMARK    8  A    between atoms: C_18  and  S_29
REMARK    9  A    between atoms: C_19  and  C_27
REMARK   10  A    between atoms: C_20  and  C_22
REMARK   11  A    between atoms: S_29  and  C_30
REMARK   12  A    between atoms: C_30  and  C_31
REMARK   13  A    between atoms: N_33  and  C_34
REMARK   14  A    between atoms: C_34  and  C_35
REMARK   15  A    between atoms: C_34  and  C_36
REMARK   16  A    between atoms: C_34  and  C_37
REMARK                            x       y       z     vdW  Elec       q    Type
REMARK                         _______ _______ _______ _____ _____    ______ ____
ROOT
ATOM      1  C   UNL     1       2.370   1.060  -0.185  0.00  0.00    +0.047 C 
ATOM      2  C   UNL     1       3.457   1.849  -0.174  0.00  0.00    +0.015 C 
ATOM      3  N   UNL     1       4.714   1.320  -0.278  0.00  0.00    -0.312 N 
ATOM      4  C   UNL     1       4.887   0.042  -0.762  0.00  0.00    +0.080 C 
ATOM      5  C   UNL     1       3.843  -0.828  -0.802  0.00  0.00    +0.072 C 
ATOM      6  C   UNL     1       2.479  -0.432  -0.314  0.00  0.00    +0.134 C 
ATOM      7  C   UNL     1       3.289   3.341  -0.039  0.00  0.00    +0.061 C 
ATOM      8  H   UNL     1       5.588   1.914   0.026  0.00  0.00    +0.152 HD
ENDROOT
BRANCH   6   9
ATOM      9  C   UNL     1       2.230  -1.065   1.031  0.00  0.00    +0.118 A 
ATOM     10  C   UNL     1       1.250  -1.940   1.320  0.00  0.00    +0.045 A 
ATOM     11  C   UNL     1       1.387  -2.272   2.688  0.00  0.00    +0.041 A 
ATOM     12  C   UNL     1       2.443  -1.579   3.153  0.00  0.00    +0.195 A 
ATOM     13  O   UNL     1       2.953  -0.855   2.144  0.00  0.00    -0.467 OA
ENDBRANCH   6   9
BRANCH   1  15
ATOM     14  N   UNL     1       0.687   2.186   1.091  0.00  0.00    -0.282 N 
ATOM     15  C   UNL     1       1.088   1.651  -0.080  0.00  0.00    +0.247 C 
ATOM     16  O   UNL     1       0.348   1.677  -1.046  0.00  0.00    -0.270 OA
ATOM     17  H   UNL     1       1.330   2.108   1.980  0.00  0.00    +0.155 HD
BRANCH  14  21
ATOM     18  C   UNL     1      -2.987   4.130   1.341  0.00  0.00    +0.059 A 
ATOM     19  C   UNL     1      -1.896   4.594   2.083  0.00  0.00    +0.017 A 
ATOM     20  C   UNL     1      -0.683   3.949   1.998  0.00  0.00    +0.024 A 
ATOM     21  C   UNL     1      -0.542   2.836   1.175  0.00  0.00    +0.034 A 
ATOM     22  C   UNL     1      -1.624   2.374   0.431  0.00  0.00    +0.024 A 
ATOM     23  C   UNL     1      -2.841   3.011   0.516  0.00  0.00    +0.017 A 
BRANCH  18  24
ATOM     24  C   UNL     1      -4.288   4.818   1.430  0.00  0.00    +0.339 C 
ATOM     25  O   UNL     1      -4.413   5.791   2.148  0.00  0.00    -0.245 OA
BRANCH  24  26
ATOM     26  O   UNL     1      -5.338   4.369   0.715  0.00  0.00    -0.461 OA
BRANCH  26  28
ATOM     27  C   UNL     1      -7.655   4.444  -0.030  0.00  0.00    +0.048 C 
ATOM     28  C   UNL     1      -6.587   5.096   0.851  0.00  0.00    +0.229 C 
ENDBRANCH  26  28
ENDBRANCH  24  26
ENDBRANCH  18  24
ENDBRANCH  14  21
ENDBRANCH   1  15
BRANCH   5  29
ATOM     29  C   UNL     1       4.049  -2.148  -1.318  0.00  0.00    +0.098 C 
ATOM     30  N   UNL     1       4.212  -3.195  -1.727  0.00  0.00    -0.191 NA
ENDBRANCH   5  29
BRANCH   4  31
ATOM     31  S   UNL     1       6.474  -0.468  -1.334  0.00  0.00    -0.100 S 
BRANCH  31  32
ATOM     32  C   UNL     1       7.415   1.051  -1.046  0.00  0.00    +0.171 C 
BRANCH  32  33
ATOM     33  C   UNL     1       8.845   0.844  -1.474  0.00  0.00    +0.224 C 
ATOM     34  O   UNL     1       9.194  -0.224  -1.930  0.00  0.00    -0.275 OA
ATOM     35  N   UNL     1       9.737   1.847  -1.351  0.00  0.00    -0.310 N 
ATOM     36  H   UNL     1       9.421   2.817  -0.938  0.00  0.00    +0.149 HD
BRANCH  35  37
ATOM     37  C   UNL     1      11.127   1.647  -1.768  0.00  0.00    +0.026 C 
ATOM     38  C   UNL     1      11.168   1.296  -3.256  0.00  0.00    +0.031 C 
ATOM     39  C   UNL     1      11.923   2.930  -1.524  0.00  0.00    +0.031 C 
ATOM     40  C   UNL     1      11.742   0.503  -0.958  0.00  0.00    +0.031 C 
ENDBRANCH  35  37
ENDBRANCH  32  33
ENDBRANCH  31  32
ENDBRANCH   4  31
TORSDOF 11
