REMARK  Name = ZINC26458636
REMARK  7 active torsions:
REMARK  status: ('A' for Active; 'I' for Inactive)
REMARK    1  A    between atoms: C_1  and  C_2
REMARK    2  A    between atoms: C_4  and  N_29
REMARK    3  A    between atoms: C_7  and  N_8
REMARK    4  A    between atoms: C_9  and  C_11
REMARK    5  A    between atoms: C_11  and  N_12
REMARK    6  A    between atoms: C_16  and  C_18
REMARK    7  A    between atoms: N_20  and  C_21
REMARK                            x       y       z     vdW  Elec       q    Type
REMARK                         _______ _______ _______ _____ _____    ______ ____
ROOT
ATOM      1  N   UNL     1      -0.830   4.026  -0.953  0.00  0.00    +0.393 N 
ATOM      2  C   UNL     1      -1.780   5.123  -1.236  0.00  0.00    -0.077 C 
ATOM      3  C   UNL     1      -0.914   6.253  -1.845  0.00  0.00    -0.020 C 
ATOM      4  C   UNL     1       0.104   5.442  -2.693  0.00  0.00    -0.008 C 
ATOM      5  C   UNL     1       0.338   4.177  -1.841  0.00  0.00    +0.020 C 
ATOM      6  H   UNL     1      -0.504   4.075   0.097  0.00  0.00    -0.080 HD
ENDROOT
BRANCH   5   7
ATOM      7  C   UNL     1       0.461   2.971  -2.736  0.00  0.00    +0.204 C 
ATOM      8  O   UNL     1      -0.495   2.593  -3.380  0.00  0.00    -0.277 OA
ATOM      9  N   UNL     1       1.633   2.311  -2.821  0.00  0.00    -0.286 N 
ATOM     10  H   UNL     1       2.473   2.596  -2.170  0.00  0.00    +0.155 HD
BRANCH   9  11
ATOM     11  C   UNL     1       1.782   1.264  -3.739  0.00  0.00    +0.052 A 
ATOM     12  C   UNL     1       0.939   1.177  -4.838  0.00  0.00    +0.026 A 
ATOM     13  C   UNL     1       1.088   0.143  -5.742  0.00  0.00    +0.022 A 
ATOM     14  C   UNL     1       2.076  -0.807  -5.552  0.00  0.00    +0.042 A 
ATOM     15  C   UNL     1       2.919  -0.723  -4.458  0.00  0.00    +0.041 A 
ATOM     16  C   UNL     1       2.778   0.312  -3.553  0.00  0.00    +0.064 A 
ATOM     17 CL   UNL     1       3.839   0.421  -2.183  0.00  0.00    -0.082 Cl
ATOM     18 CL   UNL     1       2.260  -2.105  -6.690  0.00  0.00    -0.083 Cl
ENDBRANCH   9  11
ENDBRANCH   5   7
BRANCH   1  19
ATOM     19  C   UNL     1      -1.467   2.716  -1.140  0.00  0.00    +0.020 C 
BRANCH  19  21
ATOM     20  N   UNL     1      -3.203   1.354  -0.022  0.00  0.00    -0.287 N 
ATOM     21  C   UNL     1      -2.526   2.518  -0.086  0.00  0.00    +0.201 C 
ATOM     22  O   UNL     1      -2.769   3.405   0.704  0.00  0.00    -0.278 OA
ATOM     23  H   UNL     1      -2.940   0.526  -0.696  0.00  0.00    +0.155 HD
BRANCH  20  30
ATOM     24  C   UNL     1      -5.328  -0.419  -0.674  0.00  0.00    +0.046 C 
ATOM     25  C   UNL     1      -5.300   0.343   0.625  0.00  0.00    -0.028 A 
ATOM     26  C   UNL     1      -6.322   0.187   1.540  0.00  0.00    +0.028 A 
ATOM     27  C   UNL     1      -6.299   0.894   2.735  0.00  0.00    +0.030 A 
ATOM     28  C   UNL     1      -5.244   1.754   3.013  0.00  0.00    +0.025 A 
ATOM     29  C   UNL     1      -4.220   1.906   2.100  0.00  0.00    +0.025 A 
ATOM     30  C   UNL     1      -4.243   1.199   0.905  0.00  0.00    +0.036 A 
BRANCH  27  31
ATOM     31  N   UNL     1      -7.337   0.740   3.660  0.00  0.00    -0.330 N 
ATOM     32  C   UNL     1      -6.823   0.234   4.958  0.00  0.00    +0.105 C 
ATOM     33  C   UNL     1      -7.942   0.623   5.958  0.00  0.00    +0.020 C 
ATOM     34  C   UNL     1      -8.407   2.002   5.437  0.00  0.00    +0.020 C 
ATOM     35  C   UNL     1      -7.978   2.038   3.958  0.00  0.00    +0.105 C 
ENDBRANCH  27  31
ENDBRANCH  20  30
ENDBRANCH  19  21
ENDBRANCH   1  19
TORSDOF 6
