REMARK  Name = ZINC43407931
REMARK  4 active torsions:
REMARK  status: ('A' for Active; 'I' for Inactive)
REMARK    1  A    between atoms: C_6  and  O_7
REMARK    2  A    between atoms: O_7  and  C_8
REMARK    3  A    between atoms: C_9  and  C_17
REMARK    4  A    between atoms: N_18  and  O_19
REMARK                            x       y       z     vdW  Elec       q    Type
REMARK                         _______ _______ _______ _____ _____    ______ ____
ROOT
ATOM      1  C   UNL     1      -1.099  -2.099  -0.198  0.00  0.00    +0.231 A 
ATOM      2  C   UNL     1      -2.299  -2.823  -0.233  0.00  0.00    +0.080 A 
ATOM      3  C   UNL     1      -2.238  -4.217  -0.297  0.00  0.00    +0.022 A 
ATOM      4  C   UNL     1      -0.993  -4.825  -0.323  0.00  0.00    -0.025 A 
ATOM      5  C   UNL     1       0.149  -4.046  -0.286  0.00  0.00    +0.048 A 
ATOM      6  N   UNL     1       0.062  -2.726  -0.230  0.00  0.00    -0.217 NA
ATOM      7  C   UNL     1       1.373  -4.939  -0.326  0.00  0.00    +0.056 C 
ATOM      8  C   UNL     1       0.862  -6.345   0.050  0.00  0.00    +0.011 C 
ATOM      9  C   UNL     1      -0.616  -6.289  -0.390  0.00  0.00    +0.037 C 
ENDROOT
BRANCH   2  10
ATOM     10  C   UNL     1      -3.602  -2.125  -0.202  0.00  0.00    +0.168 C 
ATOM     11  N   UNL     1      -4.473  -2.413   0.722  0.00  0.00    -0.071 NA
ATOM     12  N   UNL     1      -3.896  -1.166  -1.156  0.00  0.00    -0.340 N 
ATOM     13  H   UNL     1      -3.248  -0.951  -1.844  0.00  0.00    +0.144 HD
ATOM     14  H   UNL     1      -4.751  -0.708  -1.135  0.00  0.00    +0.144 HD
BRANCH  11  15
ATOM     15  O   UNL     1      -4.200  -3.443   1.655  0.00  0.00    -0.408 OA
ATOM     16  H   UNL     1      -4.905  -3.584   2.302  0.00  0.00    +0.328 HD
ENDBRANCH  11  15
ENDBRANCH   2  10
BRANCH   1  17
ATOM     17  O   UNL     1      -1.131  -0.746  -0.136  0.00  0.00    -0.437 OA
BRANCH  17  23
ATOM     18  C   UNL     1       0.683   0.078  -1.435  0.00  0.00    +0.048 A 
ATOM     19  C   UNL     1       1.882   0.760  -1.510  0.00  0.00    +0.023 A 
ATOM     20  C   UNL     1       2.450   1.291  -0.365  0.00  0.00    +0.041 A 
ATOM     21  C   UNL     1       1.819   1.139   0.857  0.00  0.00    +0.023 A 
ATOM     22  C   UNL     1       0.620   0.457   0.936  0.00  0.00    +0.048 A 
ATOM     23  C   UNL     1       0.049  -0.075  -0.211  0.00  0.00    +0.130 A 
ATOM     24 CL   UNL     1       3.957   2.147  -0.462  0.00  0.00    -0.084 Cl
ENDBRANCH  17  23
ENDBRANCH   1  17
TORSDOF 4
