REMARK  Name = ZINC21577015
REMARK  9 active torsions:
REMARK  status: ('A' for Active; 'I' for Inactive)
REMARK    1  A    between atoms: C_1  and  C_2
REMARK    2  A    between atoms: C_2  and  C_3
REMARK    3  A    between atoms: C_2  and  C_4
REMARK    4  A    between atoms: C_2  and  C_5
REMARK    5  A    between atoms: N_7  and  C_8
REMARK    6  A    between atoms: C_8  and  N_10
REMARK    7  A    between atoms: N_10  and  C_11
REMARK    8  A    between atoms: C_14  and  N_17
REMARK    9  A    between atoms: C_23  and  C_25
REMARK                            x       y       z     vdW  Elec       q    Type
REMARK                         _______ _______ _______ _____ _____    ______ ____
ROOT
ATOM      1  C   UNL     1      -1.750   1.606  -0.948  0.00  0.00    +0.033 A 
ATOM      2  C   UNL     1      -1.799   2.991  -1.024  0.00  0.00    +0.025 A 
ATOM      3  C   UNL     1      -3.006   3.648  -0.888  0.00  0.00    +0.025 A 
ATOM      4  C   UNL     1      -4.169   2.924  -0.662  0.00  0.00    +0.030 A 
ATOM      5  C   UNL     1      -4.119   1.538  -0.580  0.00  0.00    +0.025 A 
ATOM      6  C   UNL     1      -2.913   0.881  -0.722  0.00  0.00    +0.025 A 
ENDROOT
BRANCH   4   7
ATOM      7  N   UNL     1      -5.391   3.590  -0.519  0.00  0.00    -0.327 N 
ATOM      8  C   UNL     1      -6.380   3.090  -1.484  0.00  0.00    +0.124 C 
ATOM      9  C   UNL     1      -7.747   3.710  -1.177  0.00  0.00    +0.127 C 
ATOM     10  N   UNL     1      -7.599   5.173  -1.139  0.00  0.00    -0.292 N 
ATOM     11  C   UNL     1      -6.536   5.744  -0.298  0.00  0.00    +0.127 C 
ATOM     12  C   UNL     1      -5.216   5.043  -0.640  0.00  0.00    +0.124 C 
ATOM     13  C   UNL     1      -8.415   5.970  -1.857  0.00  0.00    +0.282 C 
ATOM     14  O   UNL     1      -9.306   5.482  -2.527  0.00  0.00    -0.267 OA
BRANCH  13  15
ATOM     15  C   UNL     1      -8.230   7.427  -1.830  0.00  0.00    +0.191 A 
ATOM     16  C   UNL     1      -8.863   8.311  -2.645  0.00  0.00    +0.063 A 
ATOM     17  C   UNL     1      -8.374   9.635  -2.263  0.00  0.00    +0.021 A 
ATOM     18  C   UNL     1      -8.631  10.934  -2.709  0.00  0.00    +0.011 A 
ATOM     19  C   UNL     1      -7.991  11.990  -2.125  0.00  0.00    +0.001 A 
ATOM     20  C   UNL     1      -7.089  11.781  -1.091  0.00  0.00    +0.004 A 
ATOM     21  C   UNL     1      -6.822  10.508  -0.636  0.00  0.00    +0.047 A 
ATOM     22  C   UNL     1      -7.460   9.417  -1.216  0.00  0.00    +0.136 A 
ATOM     23  O   UNL     1      -7.410   8.091  -0.988  0.00  0.00    -0.450 OA
ENDBRANCH  13  15
ENDBRANCH   4   7
BRANCH   1  24
ATOM     24  N   UNL     1      -0.526   0.939  -1.091  0.00  0.00    -0.297 N 
ATOM     25  H   UNL     1       0.366   1.308  -0.565  0.00  0.00    +0.154 HD
BRANCH  24  26
ATOM     26  C   UNL     1      -0.443  -0.154  -1.875  0.00  0.00    +0.141 C 
ATOM     27  S   UNL     1      -1.850  -0.783  -2.620  0.00  0.00    -0.018 S 
BRANCH  26  30
ATOM     28  C   UNL     1       0.833  -1.845  -2.856  0.00  0.00    +0.224 C 
ATOM     29  O   UNL     1      -0.164  -2.291  -3.384  0.00  0.00    -0.275 OA
ATOM     30  N   UNL     1       0.749  -0.752  -2.073  0.00  0.00    -0.267 N 
ATOM     31  H   UNL     1       1.653  -0.348  -1.594  0.00  0.00    +0.157 HD
BRANCH  28  33
ATOM     32  C   UNL     1       1.983  -3.722  -3.998  0.00  0.00    +0.020 C 
ATOM     33  C   UNL     1       2.165  -2.514  -3.077  0.00  0.00    +0.039 C 
ATOM     34  C   UNL     1       3.133  -1.521  -3.723  0.00  0.00    +0.020 C 
ATOM     35  C   UNL     1       2.732  -2.978  -1.734  0.00  0.00    +0.020 C 
ENDBRANCH  28  33
ENDBRANCH  26  30
ENDBRANCH  24  26
ENDBRANCH   1  24
TORSDOF 6
