REMARK  Name = ZINC65096623
REMARK  6 active torsions:
REMARK  status: ('A' for Active; 'I' for Inactive)
REMARK    1  A    between atoms: C_1  and  C_2
REMARK    2  A    between atoms: C_2  and  C_4
REMARK    3  A    between atoms: C_2  and  N_16
REMARK    4  A    between atoms: C_17  and  C_19
REMARK    5  A    between atoms: C_23  and  N_25
REMARK    6  A    between atoms: C_26  and  C_28
REMARK                            x       y       z     vdW  Elec       q    Type
REMARK                         _______ _______ _______ _____ _____    ______ ____
ROOT
ATOM      1  N   UNL     1       0.511  -0.709  -1.193  0.00  0.00    -0.300 N 
ATOM      2  C   UNL     1       1.850  -0.856  -1.238  0.00  0.00    +0.245 C 
ATOM      3  O   UNL     1       2.550  -0.306  -0.409  0.00  0.00    -0.270 OA
ATOM      4  H   UNL     1      -0.047  -1.147  -1.854  0.00  0.00    +0.150 HD
ENDROOT
BRANCH   2   5
ATOM      5  C   UNL     1       2.468  -1.684  -2.295  0.00  0.00    +0.038 A 
ATOM      6  C   UNL     1       1.667  -2.310  -3.252  0.00  0.00    +0.013 A 
ATOM      7  C   UNL     1       2.246  -3.082  -4.238  0.00  0.00    +0.003 A 
ATOM      8  C   UNL     1       3.619  -3.239  -4.283  0.00  0.00    +0.023 A 
ATOM      9  C   UNL     1       4.425  -2.619  -3.336  0.00  0.00    +0.034 A 
ATOM     10  C   UNL     1       3.853  -1.836  -2.344  0.00  0.00    +0.036 A 
BRANCH   9  11
ATOM     11  N   UNL     1       5.814  -2.780  -3.386  0.00  0.00    -0.279 N 
ATOM     12  C   UNL     1       6.542  -2.706  -2.254  0.00  0.00    +0.284 C 
ATOM     13  O   UNL     1       5.984  -2.594  -1.178  0.00  0.00    -0.266 OA
ATOM     14  H   UNL     1       6.253  -2.946  -4.235  0.00  0.00    +0.155 HD
BRANCH  12  15
ATOM     15  C   UNL     1       8.005  -2.761  -2.319  0.00  0.00    +0.189 A 
ATOM     16  C   UNL     1       8.859  -2.702  -1.254  0.00  0.00    +0.054 A 
ATOM     17  C   UNL     1      10.159  -2.788  -1.774  0.00  0.00    +0.042 A 
ATOM     18  C   UNL     1      10.045  -2.894  -3.117  0.00  0.00    +0.196 A 
ATOM     19  O   UNL     1       8.745  -2.883  -3.441  0.00  0.00    -0.458 OA
ENDBRANCH  12  15
ENDBRANCH   9  11
ENDBRANCH   2   5
BRANCH   1  21
ATOM     20  C   UNL     1      -0.103   1.578  -0.581  0.00  0.00    +0.038 C 
ATOM     21  C   UNL     1      -0.101   0.111  -0.145  0.00  0.00    +0.157 C 
BRANCH  21  22
ATOM     22  C   UNL     1      -1.519  -0.346   0.087  0.00  0.00    +0.240 C 
ATOM     23  O   UNL     1      -2.022  -1.161  -0.656  0.00  0.00    -0.273 OA
ATOM     24  N   UNL     1      -2.227   0.152   1.120  0.00  0.00    -0.270 N 
ATOM     25  C   UNL     1      -1.674   1.227   1.956  0.00  0.00    +0.114 C 
ATOM     26  C   UNL     1      -1.945   0.866   3.422  0.00  0.00    +0.024 C 
ATOM     27  C   UNL     1      -3.456   0.826   3.650  0.00  0.00    +0.038 C 
ATOM     28  C   UNL     1      -4.122  -0.047   2.619  0.00  0.00    -0.026 A 
ATOM     29  C   UNL     1      -3.505  -0.343   1.412  0.00  0.00    +0.039 A 
ATOM     30  C   UNL     1      -4.151  -1.144   0.477  0.00  0.00    +0.024 A 
ATOM     31  C   UNL     1      -5.410  -1.643   0.747  0.00  0.00    +0.002 A 
ATOM     32  C   UNL     1      -6.026  -1.347   1.948  0.00  0.00    +0.000 A 
ATOM     33  C   UNL     1      -5.381  -0.557   2.886  0.00  0.00    +0.005 A 
ENDBRANCH  21  22
ENDBRANCH   1  21
TORSDOF 5
