REMARK  Name = ZINC12561014
REMARK  4 active torsions:
REMARK  status: ('A' for Active; 'I' for Inactive)
REMARK    1  A    between atoms: C_8  and  C_12
REMARK    2  A    between atoms: N_14  and  C_15
REMARK    3  A    between atoms: C_18  and  S_21
REMARK    4  A    between atoms: S_21  and  N_24
REMARK                            x       y       z     vdW  Elec       q    Type
REMARK                         _______ _______ _______ _____ _____    ______ ____
ROOT
ATOM      1  C   UNL     1      -4.328   1.056   3.969  0.00  0.00    +0.034 A 
ATOM      2  C   UNL     1      -4.630   0.425   2.770  0.00  0.00    +0.025 A 
ATOM      3  C   UNL     1      -4.478   1.103   1.577  0.00  0.00    +0.030 A 
ATOM      4  C   UNL     1      -4.024   2.410   1.575  0.00  0.00    +0.109 A 
ATOM      5  C   UNL     1      -3.717   3.039   2.768  0.00  0.00    +0.030 A 
ATOM      6  C   UNL     1      -3.872   2.368   3.965  0.00  0.00    +0.025 A 
ENDROOT
BRANCH   1   9
ATOM      7  C   UNL     1      -4.258  -0.957   5.236  0.00  0.00    +0.224 C 
ATOM      8  O   UNL     1      -3.833  -1.542   4.262  0.00  0.00    -0.275 OA
ATOM      9  N   UNL     1      -4.481   0.371   5.180  0.00  0.00    -0.285 N 
ATOM     10  H   UNL     1      -4.747   0.852   5.979  0.00  0.00    +0.155 HD
BRANCH   7  18
ATOM     11  C   UNL     1      -4.229  -5.941   8.895  0.00  0.00    +0.000 A 
ATOM     12  C   UNL     1      -4.154  -5.231  10.080  0.00  0.00    +0.004 A 
ATOM     13  C   UNL     1      -4.089  -3.853  10.055  0.00  0.00    +0.046 A 
ATOM     14  C   UNL     1      -4.098  -3.174   8.840  0.00  0.00    +0.124 A 
ATOM     15  C   UNL     1      -4.170  -3.887   7.657  0.00  0.00    -0.005 A 
ATOM     16  C   UNL     1      -4.237  -5.270   7.688  0.00  0.00    +0.007 A 
ATOM     17  C   UNL     1      -4.175  -3.191   6.319  0.00  0.00    +0.055 C 
ATOM     18  C   UNL     1      -4.536  -1.715   6.508  0.00  0.00    +0.117 C 
ATOM     19  C   UNL     1      -3.676  -1.151   7.645  0.00  0.00    +0.242 C 
ATOM     20  O   UNL     1      -4.036  -1.817   8.856  0.00  0.00    -0.491 OA
ENDBRANCH   7  18
ENDBRANCH   1   9
BRANCH   4  21
ATOM     21  S   UNL     1      -3.830   3.272   0.051  0.00  0.00    +0.074 S 
ATOM     22  O   UNL     1      -3.659   2.284  -0.956  0.00  0.00    -0.150 OA
ATOM     23  O   UNL     1      -2.874   4.297   0.283  0.00  0.00    -0.150 OA
BRANCH  21  24
ATOM     24  N   UNL     1      -5.268   4.029  -0.269  0.00  0.00    -0.194 N 
ATOM     25  C   UNL     1      -5.721   5.038   0.567  0.00  0.00    +0.177 A 
ATOM     26  N   UNL     1      -5.155   5.534   1.650  0.00  0.00    -0.232 NA
ATOM     27  C   UNL     1      -5.730   6.501   2.339  0.00  0.00    +0.120 A 
ATOM     28  C   UNL     1      -6.918   6.986   1.904  0.00  0.00    +0.068 A 
ATOM     29  S   UNL     1      -7.177   5.977   0.452  0.00  0.00    -0.059 S 
ATOM     30  H   UNL     1      -5.793   3.767  -1.042  0.00  0.00    +0.176 HD
ENDBRANCH  21  24
ENDBRANCH   4  21
TORSDOF 4
