REMARK  Name = ZINC30961647
REMARK  9 active torsions:
REMARK  status: ('A' for Active; 'I' for Inactive)
REMARK    1  A    between atoms: C_1  and  C_2
REMARK    2  A    between atoms: C_2  and  C_3
REMARK    3  A    between atoms: C_2  and  C_4
REMARK    4  A    between atoms: C_4  and  C_6
REMARK    5  A    between atoms: C_4  and  N_21
REMARK    6  A    between atoms: N_8  and  N_9
REMARK    7  A    between atoms: C_10  and  C_11
REMARK    8  A    between atoms: C_15  and  N_17
REMARK    9  A    between atoms: C_22  and  C_24
REMARK                            x       y       z     vdW  Elec       q    Type
REMARK                         _______ _______ _______ _____ _____    ______ ____
ROOT
ATOM      1  C   UNL     1      -0.125   0.869  -0.859  0.00  0.00    +0.163 C 
ENDROOT
BRANCH   1   2
ATOM      2  C   UNL     1       0.768   0.073  -1.776  0.00  0.00    +0.253 C 
ATOM      3  O   UNL     1       0.311  -0.851  -2.416  0.00  0.00    -0.272 OA
ATOM      4  N   UNL     1       2.073   0.389  -1.886  0.00  0.00    -0.205 N 
ATOM      5  H   UNL     1       2.470   1.277  -1.373  0.00  0.00    +0.177 HD
BRANCH   4   6
ATOM      6  N   UNL     1       2.926  -0.416  -2.654  0.00  0.00    -0.188 NA
ATOM      7  C   UNL     1       4.205  -0.195  -2.650  0.00  0.00    +0.138 C 
BRANCH   7   8
ATOM      8  C   UNL     1       4.828   0.505  -1.511  0.00  0.00    -0.003 A 
ATOM      9  C   UNL     1       4.088   0.761  -0.354  0.00  0.00    +0.011 A 
ATOM     10  C   UNL     1       4.678   1.411   0.709  0.00  0.00    +0.018 A 
ATOM     11  C   UNL     1       5.998   1.822   0.626  0.00  0.00    +0.048 A 
ATOM     12  C   UNL     1       6.736   1.577  -0.520  0.00  0.00    +0.141 A 
ATOM     13  C   UNL     1       6.159   0.922  -1.588  0.00  0.00    +0.043 A 
ATOM     14 BR   UNL     1       6.798   2.721   2.086  0.00  0.00    -0.048 Br
BRANCH  12  15
ATOM     15  N   UNL     1       8.146   2.018  -0.599  0.00  0.00    +0.058 N 
ATOM     16  O   UNL     1       8.796   1.803  -1.606  0.00  0.00    -0.126 OA
ATOM     17  O   UNL     1       8.657   2.597   0.344  0.00  0.00    -0.126 OA
ENDBRANCH  12  15
ENDBRANCH   7   8
ENDBRANCH   4   6
ENDBRANCH   1   2
BRANCH   1  18
ATOM     18  N   UNL     1      -1.316   0.081  -0.532  0.00  0.00    -0.300 N 
ATOM     19  C   UNL     1      -1.991   0.323   0.609  0.00  0.00    +0.245 C 
ATOM     20  O   UNL     1      -1.612   1.195   1.367  0.00  0.00    -0.270 OA
ATOM     21  H   UNL     1      -1.659  -0.708  -1.218  0.00  0.00    +0.150 HD
BRANCH  19  22
ATOM     22  C   UNL     1      -3.192  -0.472   0.939  0.00  0.00    +0.038 A 
ATOM     23  C   UNL     1      -3.633  -1.470   0.068  0.00  0.00    +0.014 A 
ATOM     24  C   UNL     1      -4.752  -2.213   0.383  0.00  0.00    +0.022 A 
ATOM     25  C   UNL     1      -5.445  -1.962   1.556  0.00  0.00    +0.059 A 
ATOM     26  C   UNL     1      -5.015  -0.970   2.423  0.00  0.00    +0.060 A 
ATOM     27  C   UNL     1      -3.894  -0.224   2.120  0.00  0.00    +0.034 A 
ATOM     28 CL   UNL     1      -5.889  -0.664   3.891  0.00  0.00    -0.082 Cl
ATOM     29 CL   UNL     1      -6.856  -2.897   1.943  0.00  0.00    -0.082 Cl
ENDBRANCH  19  22
ENDBRANCH   1  18
BRANCH   1  31
ATOM     30  C   UNL     1       0.685   3.044  -1.786  0.00  0.00    +0.009 C 
ATOM     31  C   UNL     1      -0.546   2.165  -1.556  0.00  0.00    +0.012 C 
ATOM     32  C   UNL     1      -1.195   1.833  -2.901  0.00  0.00    +0.009 C 
ENDBRANCH   1  31
TORSDOF 7
