REMARK  Name = ZINC08974444
REMARK  2 active torsions:
REMARK  status: ('A' for Active; 'I' for Inactive)
REMARK    1  A    between atoms: C_8  and  C_12
REMARK    2  A    between atoms: C_12  and  N_14
REMARK                            x       y       z     vdW  Elec       q    Type
REMARK                         _______ _______ _______ _____ _____    ______ ____
ROOT
ATOM      1  C   UNL     1       2.574  -4.232   0.111  0.00  0.00    +0.256 C 
ATOM      2  O   UNL     1       3.103  -4.666  -0.894  0.00  0.00    -0.272 OA
ENDROOT
BRANCH   1  10
ATOM      3  C   UNL     1      -0.059   1.364   0.020  0.00  0.00    +0.000 A 
ATOM      4  C   UNL     1       1.127   2.074   0.001  0.00  0.00    +0.000 A 
ATOM      5  C   UNL     1       2.331   1.400  -0.022  0.00  0.00    +0.005 A 
ATOM      6  C   UNL     1       2.359   0.013  -0.028  0.00  0.00    -0.030 A 
ATOM      7  C   UNL     1       1.176  -0.694  -0.012  0.00  0.00    -0.041 A 
ATOM      8  C   UNL     1      -0.033  -0.016   0.014  0.00  0.00    +0.004 A 
ATOM      9  C   UNL     1       1.155  -2.201  -0.029  0.00  0.00    +0.063 C 
ATOM     10  C   UNL     1       2.530  -2.746   0.358  0.00  0.00    +0.147 C 
ATOM     11  N   UNL     1       3.548  -2.075  -0.465  0.00  0.00    -0.301 NA
ATOM     12  C   UNL     1       3.698  -0.677  -0.047  0.00  0.00    +0.117 C 
ATOM     13  H   UNL     1       4.431  -2.562  -0.418  0.00  0.00    +0.123 HD
ENDBRANCH   1  10
BRANCH   1  14
ATOM     14  N   UNL     1       2.033  -5.068   0.992  0.00  0.00    -0.155 NA
ATOM     15  C   UNL     1       1.978  -6.371   0.725  0.00  0.00    +0.164 A 
ATOM     16  N   UNL     1       2.518  -7.028  -0.333  0.00  0.00    -0.335 N 
ATOM     17  H   UNL     1       3.016  -6.539  -1.006  0.00  0.00    +0.168 HD
ATOM     18  C   UNL     1       2.359  -8.396  -0.447  0.00  0.00    +0.055 A 
ATOM     19  C   UNL     1       2.828  -9.262  -1.444  0.00  0.00    +0.027 A 
ATOM     20  C   UNL     1       2.563 -10.610  -1.383  0.00  0.00    +0.002 A 
ATOM     21  C   UNL     1       1.829 -11.150  -0.339  0.00  0.00    +0.001 A 
ATOM     22  C   UNL     1       1.355 -10.317   0.659  0.00  0.00    +0.017 A 
ATOM     23  C   UNL     1       1.620  -8.969   0.598  0.00  0.00    +0.039 A 
ATOM     24  S   UNL     1       1.229  -7.577   1.626  0.00  0.00    -0.052 S 
ENDBRANCH   1  14
TORSDOF 2
