REMARK  Name = ZINC20744650
REMARK  9 active torsions:
REMARK  status: ('A' for Active; 'I' for Inactive)
REMARK    1  A    between atoms: C_1  and  C_2
REMARK    2  A    between atoms: C_2  and  C_3
REMARK    3  A    between atoms: C_3  and  C_5
REMARK    4  A    between atoms: C_3  and  C_6
REMARK    5  A    between atoms: C_6  and  C_8
REMARK    6  A    between atoms: C_6  and  N_12
REMARK    7  A    between atoms: C_8  and  O_10
REMARK    8  A    between atoms: O_10  and  C_11
REMARK    9  A    between atoms: C_24  and  C_26
REMARK                            x       y       z     vdW  Elec       q    Type
REMARK                         _______ _______ _______ _____ _____    ______ ____
ROOT
ATOM      1  N   UNL     1      -2.711  -2.355   1.900  0.00  0.00    -0.286 N 
ATOM      2  C   UNL     1      -3.602  -1.476   1.400  0.00  0.00    +0.304 C 
ATOM      3  O   UNL     1      -3.224  -0.398   0.983  0.00  0.00    -0.253 OA
ATOM      4  N   UNL     1      -4.911  -1.791   1.361  0.00  0.00    -0.273 N 
ATOM      5  C   UNL     1      -5.882  -0.900   0.709  0.00  0.00    +0.116 C 
ATOM      6  C   UNL     1      -6.492  -1.621  -0.500  0.00  0.00    +0.074 C 
ATOM      7  C   UNL     1      -6.855  -3.026  -0.095  0.00  0.00    +0.040 A 
ATOM      8  C   UNL     1      -6.375  -3.663   0.995  0.00  0.00    +0.062 A 
ATOM      9  N   UNL     1      -6.909  -4.885   1.031  0.00  0.00    -0.348 N 
ATOM     10  C   UNL     1      -7.708  -5.033   0.006  0.00  0.00    +0.171 A 
ATOM     11  N   UNL     1      -7.700  -3.892  -0.720  0.00  0.00    -0.349 N 
ATOM     12  H   UNL     1      -8.202  -3.722  -1.532  0.00  0.00    +0.166 HD
ATOM     13  C   UNL     1      -5.404  -3.042   1.966  0.00  0.00    +0.159 C 
ATOM     14  H   UNL     1      -3.001  -3.241   2.167  0.00  0.00    +0.151 HD
ATOM     15  H   UNL     1      -6.734  -5.556   1.710  0.00  0.00    +0.167 HD
ENDROOT
BRANCH  13  16
ATOM     16  C   UNL     1      -6.107  -2.741   3.265  0.00  0.00    +0.017 A 
ATOM     17  C   UNL     1      -7.281  -3.398   3.583  0.00  0.00    +0.011 A 
ATOM     18  C   UNL     1      -7.927  -3.124   4.774  0.00  0.00    +0.042 A 
ATOM     19  C   UNL     1      -7.399  -2.190   5.650  0.00  0.00    +0.161 A 
ATOM     20  C   UNL     1      -6.223  -1.530   5.332  0.00  0.00    +0.194 A 
ATOM     21  C   UNL     1      -5.574  -1.811   4.140  0.00  0.00    +0.167 A 
ATOM     22  F   UNL     1      -4.423  -1.173   3.831  0.00  0.00    -0.202 F 
ATOM     23  F   UNL     1      -5.707  -0.619   6.185  0.00  0.00    -0.199 F 
ATOM     24  F   UNL     1      -8.032  -1.922   6.813  0.00  0.00    -0.202 F 
ENDBRANCH  13  16
BRANCH   1  25
ATOM     25  C   UNL     1      -1.304  -1.971   2.042  0.00  0.00    +0.186 C 
BRANCH  25  26
ATOM     26  C   UNL     1      -1.107  -1.239   3.371  0.00  0.00    +0.017 C 
ATOM     27  C   UNL     1      -1.651  -2.098   4.513  0.00  0.00    +0.010 C 
BRANCH  26  29
ATOM     28  C   UNL     1      -1.215   1.011   2.290  0.00  0.00    +0.004 C 
ATOM     29  C   UNL     1      -1.856   0.095   3.334  0.00  0.00    +0.002 C 
ENDBRANCH  26  29
ENDBRANCH  25  26
BRANCH  25  30
ATOM     30  C   UNL     1      -0.442  -3.207   2.017  0.00  0.00    +0.328 C 
ATOM     31  O   UNL     1      -0.954  -4.301   2.011  0.00  0.00    -0.249 OA
BRANCH  30  32
ATOM     32  O   UNL     1       0.895  -3.092   2.002  0.00  0.00    -0.467 OA
ATOM     33  C   UNL     1       1.649  -4.299   1.866  0.00  0.00    +0.280 C 
ENDBRANCH  30  32
ENDBRANCH  25  30
ENDBRANCH   1  25
TORSDOF 6
