REMARK  Name = ZINC36502252
REMARK  10 active torsions:
REMARK  status: ('A' for Active; 'I' for Inactive)
REMARK    1  A    between atoms: C_4  and  C_7
REMARK    2  A    between atoms: C_7  and  C_8
REMARK    3  A    between atoms: C_7  and  C_14
REMARK    4  A    between atoms: C_7  and  O_39
REMARK    5  A    between atoms: N_16  and  C_17
REMARK    6  A    between atoms: N_16  and  C_23
REMARK    7  A    between atoms: C_17  and  C_18
REMARK    8  A    between atoms: C_23  and  C_25
REMARK    9  A    between atoms: C_23  and  C_30
REMARK   10  A    between atoms: N_32  and  C_33
REMARK                            x       y       z     vdW  Elec       q    Type
REMARK                         _______ _______ _______ _____ _____    ______ ____
ROOT
ATOM      1  C   UNL     1       3.786  -2.492  -0.822  0.00  0.00    +0.258 C 
ATOM      2  O   UNL     1       3.602  -2.963   0.280  0.00  0.00    -0.272 OA
ATOM      3  N   UNL     1       3.991  -3.305  -1.877  0.00  0.00    -0.273 N 
ENDROOT
BRANCH   1   4
ATOM      4  C   UNL     1       3.785  -0.997  -1.012  0.00  0.00    +0.192 C 
BRANCH   4   8
ATOM      5  C   UNL     1       0.161   0.191  -2.937  0.00  0.00    +0.000 A 
ATOM      6  C   UNL     1       1.318   0.920  -3.133  0.00  0.00    +0.000 A 
ATOM      7  C   UNL     1       2.491   0.536  -2.510  0.00  0.00    +0.007 A 
ATOM      8  C   UNL     1       2.506  -0.577  -1.691  0.00  0.00    -0.003 A 
ATOM      9  C   UNL     1       1.348  -1.306  -1.494  0.00  0.00    +0.007 A 
ATOM     10  C   UNL     1       0.176  -0.923  -2.118  0.00  0.00    +0.000 A 
ENDBRANCH   4   8
BRANCH   4  11
ATOM     11  C   UNL     1       3.886  -0.320   0.330  0.00  0.00    -0.003 A 
ATOM     12  C   UNL     1       2.950  -0.586   1.311  0.00  0.00    +0.007 A 
ATOM     13  C   UNL     1       3.043   0.035   2.543  0.00  0.00    +0.000 A 
ATOM     14  C   UNL     1       4.074   0.922   2.793  0.00  0.00    +0.000 A 
ATOM     15  C   UNL     1       5.011   1.188   1.812  0.00  0.00    +0.000 A 
ATOM     16  C   UNL     1       4.920   0.563   0.582  0.00  0.00    +0.007 A 
ENDBRANCH   4  11
BRANCH   4  17
ATOM     17  O   UNL     1       4.900  -0.619  -1.822  0.00  0.00    -0.371 OA
ATOM     18  H   UNL     1       5.756  -0.887  -1.462  0.00  0.00    +0.212 HD
ENDBRANCH   4  17
ENDBRANCH   1   4
BRANCH   3  19
ATOM     19  C   UNL     1       4.128  -2.740  -3.222  0.00  0.00    +0.183 C 
BRANCH  19  20
ATOM     20  C   UNL     1       5.590  -2.607  -3.564  0.00  0.00    +0.122 A 
ATOM     21  C   UNL     1       6.317  -3.494  -4.267  0.00  0.00    +0.046 A 
ATOM     22  C   UNL     1       7.629  -2.974  -4.350  0.00  0.00    +0.041 A 
ATOM     23  C   UNL     1       7.625  -1.800  -3.692  0.00  0.00    +0.195 A 
ATOM     24  O   UNL     1       6.386  -1.580  -3.224  0.00  0.00    -0.466 OA
ENDBRANCH  19  20
ENDBRANCH   3  19
BRANCH   3  25
ATOM     25  C   UNL     1       4.076  -4.754  -1.680  0.00  0.00    +0.229 C 
BRANCH  25  26
ATOM     26  C   UNL     1       3.110  -5.445  -2.606  0.00  0.00    +0.134 A 
ATOM     27  C   UNL     1       2.344  -6.506  -2.295  0.00  0.00    +0.047 A 
ATOM     28  C   UNL     1       1.596  -6.825  -3.452  0.00  0.00    +0.041 A 
ATOM     29  C   UNL     1       1.950  -5.940  -4.401  0.00  0.00    +0.195 A 
ATOM     30  O   UNL     1       2.862  -5.103  -3.881  0.00  0.00    -0.465 OA
ENDBRANCH  25  26
BRANCH  25  31
ATOM     31  C   UNL     1       5.478  -5.220  -1.977  0.00  0.00    +0.241 C 
ATOM     32  O   UNL     1       6.386  -4.418  -2.024  0.00  0.00    -0.273 OA
ATOM     33  N   UNL     1       5.722  -6.528  -2.192  0.00  0.00    -0.311 N 
ATOM     34  H   UNL     1       4.996  -7.169  -2.154  0.00  0.00    +0.149 HD
BRANCH  33  35
ATOM     35  C   UNL     1       7.085  -6.981  -2.481  0.00  0.00    +0.073 C 
ATOM     36  C   UNL     1       7.364  -6.834  -3.978  0.00  0.00    +0.022 C 
ATOM     37  C   UNL     1       8.787  -7.307  -4.281  0.00  0.00    +0.002 C 
ATOM     38  C   UNL     1       8.933  -8.775  -3.876  0.00  0.00    +0.000 C 
ATOM     39  C   UNL     1       8.655  -8.922  -2.379  0.00  0.00    +0.002 C 
ATOM     40  C   UNL     1       7.231  -8.449  -2.077  0.00  0.00    +0.022 C 
ENDBRANCH  33  35
ENDBRANCH  25  31
ENDBRANCH   3  25
TORSDOF 10
