REMARK  Name = ZINC13391450
REMARK  7 active torsions:
REMARK  status: ('A' for Active; 'I' for Inactive)
REMARK    1  A    between atoms: C_1  and  C_2
REMARK    2  A    between atoms: C_4  and  C_31
REMARK    3  A    between atoms: C_7  and  N_8
REMARK    4  A    between atoms: C_9  and  C_11
REMARK    5  A    between atoms: C_15  and  S_17
REMARK    6  A    between atoms: S_17  and  N_20
REMARK    7  A    between atoms: C_28  and  C_30
REMARK                            x       y       z     vdW  Elec       q    Type
REMARK                         _______ _______ _______ _____ _____    ______ ____
ROOT
ATOM      1  C   UNL     1       0.101  -4.239   0.194  0.00  0.00    +0.039 A 
ATOM      2  C   UNL     1       1.318  -4.924   0.174  0.00  0.00    +0.013 A 
ATOM      3  C   UNL     1       1.334  -6.299   0.276  0.00  0.00    +0.003 A 
ATOM      4  C   UNL     1       0.147  -7.002   0.389  0.00  0.00    +0.029 A 
ATOM      5  C   UNL     1      -1.063  -6.330   0.404  0.00  0.00    +0.109 A 
ATOM      6  C   UNL     1      -1.093  -4.954   0.308  0.00  0.00    +0.042 A 
ENDROOT
BRANCH   1   8
ATOM      7  N   UNL     1       1.231  -2.078  -0.019  0.00  0.00    -0.281 N 
ATOM      8  C   UNL     1       0.077  -2.765   0.090  0.00  0.00    +0.248 C 
ATOM      9  O   UNL     1      -0.984  -2.173   0.103  0.00  0.00    -0.270 OA
ATOM     10  H   UNL     1       2.073  -2.554  -0.097  0.00  0.00    +0.155 HD
BRANCH   7  17
ATOM     11  C   UNL     1       3.400  -0.720   1.214  0.00  0.00    +0.045 C 
ATOM     12  C   UNL     1       2.256   0.022   0.571  0.00  0.00    -0.028 A 
ATOM     13  C   UNL     1       2.244   1.399   0.571  0.00  0.00    +0.020 A 
ATOM     14  C   UNL     1       1.182   2.086  -0.026  0.00  0.00    +0.064 A 
ATOM     15  C   UNL     1       0.138   1.372  -0.621  0.00  0.00    +0.017 A 
ATOM     16  C   UNL     1       0.157  -0.004  -0.617  0.00  0.00    +0.024 A 
ATOM     17  C   UNL     1       1.215  -0.685  -0.022  0.00  0.00    +0.037 A 
BRANCH  14  18
ATOM     18  C   UNL     1       1.165   3.560  -0.028  0.00  0.00    +0.387 C 
ATOM     19  O   UNL     1       2.074   4.179   0.489  0.00  0.00    -0.241 OA
ATOM     20  O   UNL     1       0.141   4.221  -0.603  0.00  0.00    -0.241 OA
ENDBRANCH  14  18
ENDBRANCH   7  17
ENDBRANCH   1   8
BRANCH   5  21
ATOM     21  S   UNL     1      -2.568  -7.234   0.548  0.00  0.00    +0.075 S 
ATOM     22  O   UNL     1      -2.243  -8.469   1.172  0.00  0.00    -0.150 OA
ATOM     23  O   UNL     1      -3.530  -6.338   1.088  0.00  0.00    -0.150 OA
BRANCH  21  24
ATOM     24  N   UNL     1      -3.070  -7.597  -0.988  0.00  0.00    -0.200 N 
ATOM     25  C   UNL     1      -2.721  -8.752  -1.691  0.00  0.00    +0.055 A 
ATOM     26  C   UNL     1      -1.912  -9.819  -1.294  0.00  0.00    +0.025 A 
ATOM     27  C   UNL     1      -1.690 -10.877  -2.149  0.00  0.00    +0.002 A 
ATOM     28  C   UNL     1      -2.267 -10.891  -3.406  0.00  0.00    +0.000 A 
ATOM     29  C   UNL     1      -3.069  -9.838  -3.805  0.00  0.00    +0.005 A 
ATOM     30  C   UNL     1      -3.295  -8.775  -2.952  0.00  0.00    -0.023 A 
ATOM     31  C   UNL     1      -4.114  -7.516  -3.131  0.00  0.00    +0.061 C 
ATOM     32  C   UNL     1      -3.950  -6.757  -1.804  0.00  0.00    +0.099 C 
ATOM     33  C   UNL     1      -5.306  -6.583  -1.117  0.00  0.00    +0.030 C 
ENDBRANCH  21  24
ENDBRANCH   5  21
TORSDOF 5
