REMARK  Name = ZINC49036209
REMARK  11 active torsions:
REMARK  status: ('A' for Active; 'I' for Inactive)
REMARK    1  A    between atoms: C_1  and  C_2
REMARK    2  A    between atoms: C_2  and  O_3
REMARK    3  A    between atoms: O_3  and  C_4
REMARK    4  A    between atoms: C_4  and  C_6
REMARK    5  A    between atoms: N_8  and  C_33
REMARK    6  A    between atoms: C_10  and  C_32
REMARK    7  A    between atoms: C_11  and  N_17
REMARK    8  A    between atoms: C_12  and  N_16
REMARK    9  A    between atoms: N_24  and  O_25
REMARK   10  A    between atoms: O_25  and  C_26
REMARK   11  A    between atoms: C_27  and  C_31
REMARK                            x       y       z     vdW  Elec       q    Type
REMARK                         _______ _______ _______ _____ _____    ______ ____
ROOT
ATOM      1  C   UNL     1       0.716  -3.300  -3.779  0.00  0.00    +0.055 C 
ATOM      2  C   UNL     1       1.032  -4.605  -3.746  0.00  0.00    +0.086 C 
ATOM      3  N   UNL     1       2.020  -5.114  -4.537  0.00  0.00    -0.302 N 
ATOM      4  C   UNL     1       2.965  -4.258  -5.114  0.00  0.00    +0.042 A 
ATOM      5  C   UNL     1       4.159  -4.774  -5.599  0.00  0.00    -0.006 A 
ATOM      6  C   UNL     1       5.099  -3.929  -6.167  0.00  0.00    +0.056 A 
ATOM      7  C   UNL     1       4.841  -2.561  -6.248  0.00  0.00    +0.047 A 
ATOM      8  C   UNL     1       3.647  -2.052  -5.764  0.00  0.00    +0.030 A 
ATOM      9  C   UNL     1       2.707  -2.897  -5.199  0.00  0.00    -0.019 A 
ATOM     10  C   UNL     1       1.408  -2.329  -4.690  0.00  0.00    +0.080 C 
ATOM     11  C   UNL     1       4.433  -6.253  -5.508  0.00  0.00    +0.047 C 
ENDROOT
BRANCH   6  12
ATOM     12  N   UNL     1       6.304  -4.447  -6.656  0.00  0.00    -0.323 N 
ATOM     13  C   UNL     1       6.461  -4.825  -8.072  0.00  0.00    +0.110 C 
ATOM     14  C   UNL     1       7.532  -3.914  -8.665  0.00  0.00    +0.061 C 
ATOM     15  C   UNL     1       8.748  -3.842  -7.775  0.00  0.00    -0.007 C 
ATOM     16  C   UNL     1       8.726  -4.145  -6.470  0.00  0.00    +0.004 C 
ATOM     17  C   UNL     1       7.467  -4.631  -5.787  0.00  0.00    +0.143 C 
ATOM     18  C   UNL     1       9.858  -4.030  -5.630  0.00  0.00    +0.089 C 
ATOM     19  N   UNL     1       9.679  -4.316  -4.375  0.00  0.00    -0.089 NA
ATOM     20  C   UNL     1      11.233  -3.618  -6.026  0.00  0.00    +0.048 C 
ATOM     21  C   UNL     1      11.179  -2.581  -7.154  0.00  0.00    +0.083 C 
ATOM     22  S   UNL     1      10.265  -3.328  -8.535  0.00  0.00    -0.128 S 
ATOM     23  C   UNL     1      11.945  -3.007  -4.818  0.00  0.00    +0.015 C 
BRANCH  19  24
ATOM     24  O   UNL     1       8.537  -5.050  -3.973  0.00  0.00    -0.397 OA
ATOM     25  C   UNL     1       8.468  -5.292  -2.566  0.00  0.00    +0.313 C 
ENDBRANCH  19  24
ENDBRANCH   6  12
BRANCH   7  26
ATOM     26  N   UNL     1       5.790  -1.701  -6.819  0.00  0.00    -0.357 N 
ATOM     27  H   UNL     1       6.626  -2.057  -7.158  0.00  0.00    +0.142 HD
ATOM     28  H   UNL     1       5.610  -0.749  -6.876  0.00  0.00    +0.142 HD
ENDBRANCH   7  26
BRANCH   3  29
ATOM     29  C   UNL     1       2.091  -6.556  -4.784  0.00  0.00    +0.079 C 
ATOM     30  C   UNL     1       0.991  -7.432  -4.179  0.00  0.00    +0.024 C 
ATOM     31  C   UNL     1       2.404  -7.462  -3.592  0.00  0.00    +0.024 C 
ENDBRANCH   3  29
BRANCH   1  32
ATOM     32  C   UNL     1      -0.308  -2.825  -2.931  0.00  0.00    +0.337 C 
ATOM     33  O   UNL     1      -0.883  -3.594  -2.183  0.00  0.00    -0.245 OA
BRANCH  32  34
ATOM     34  O   UNL     1      -0.648  -1.519  -2.949  0.00  0.00    -0.462 OA
BRANCH  34  36
ATOM     35  C   UNL     1      -1.937   0.393  -2.225  0.00  0.00    +0.048 C 
ATOM     36  C   UNL     1      -1.693  -1.109  -2.064  0.00  0.00    +0.229 C 
ENDBRANCH  34  36
ENDBRANCH  32  34
ENDBRANCH   1  32
TORSDOF 7
