REMARK  Name = ZINC67541988
REMARK  5 active torsions:
REMARK  status: ('A' for Active; 'I' for Inactive)
REMARK    1  A    between atoms: C_1  and  C_2
REMARK    2  A    between atoms: C_2  and  C_4
REMARK    3  A    between atoms: C_2  and  N_12
REMARK    4  A    between atoms: N_15  and  C_16
REMARK    5  A    between atoms: C_20  and  N_22
REMARK                            x       y       z     vdW  Elec       q    Type
REMARK                         _______ _______ _______ _____ _____    ______ ____
ROOT
ATOM      1  N   UNL     1       0.469  -0.626  -1.355  0.00  0.00    -0.288 N 
ATOM      2  C   UNL     1       1.815  -0.680  -1.397  0.00  0.00    +0.304 C 
ATOM      3  O   UNL     1       2.469  -0.281  -0.453  0.00  0.00    -0.252 OA
ATOM      4  N   UNL     1       2.436  -1.177  -2.485  0.00  0.00    -0.269 N 
ATOM      5  H   UNL     1      -0.053  -0.945  -2.108  0.00  0.00    +0.151 HD
ATOM      6  H   UNL     1       1.915  -1.561  -3.208  0.00  0.00    +0.156 HD
ENDROOT
BRANCH   4   7
ATOM      7  C   UNL     1       3.832  -1.139  -2.573  0.00  0.00    +0.037 A 
ATOM      8  C   UNL     1       4.605  -1.321  -1.433  0.00  0.00    +0.023 A 
ATOM      9  C   UNL     1       5.983  -1.285  -1.519  0.00  0.00    +0.004 A 
ATOM     10  C   UNL     1       6.597  -1.067  -2.737  0.00  0.00    +0.024 A 
ATOM     11  C   UNL     1       5.830  -0.884  -3.880  0.00  0.00    +0.041 A 
ATOM     12  C   UNL     1       4.445  -0.926  -3.799  0.00  0.00    +0.047 A 
BRANCH  11  13
ATOM     13  N   UNL     1       6.452  -0.662  -5.114  0.00  0.00    -0.234 N 
ATOM     14  C   UNL     1       7.907  -0.602  -5.357  0.00  0.00    +0.158 C 
ATOM     15  C   UNL     1       7.987  -0.723  -6.897  0.00  0.00    +0.253 C 
ATOM     16  O   UNL     1       6.689  -0.246  -7.303  0.00  0.00    -0.448 OA
ATOM     17  C   UNL     1       5.832  -0.471  -6.293  0.00  0.00    +0.407 C 
ATOM     18  O   UNL     1       4.624  -0.495  -6.429  0.00  0.00    -0.226 OA
ENDBRANCH  11  13
ENDBRANCH   4   7
BRANCH   1  20
ATOM     19  C   UNL     1      -0.294   1.437  -0.286  0.00  0.00    +0.038 C 
ATOM     20  C   UNL     1      -0.206  -0.086  -0.172  0.00  0.00    +0.157 C 
BRANCH  20  21
ATOM     21  C   UNL     1      -1.594  -0.664  -0.078  0.00  0.00    +0.236 C 
ATOM     22  O   UNL     1      -2.136  -1.105  -1.069  0.00  0.00    -0.274 OA
ATOM     23  N   UNL     1      -2.234  -0.691   1.108  0.00  0.00    -0.298 N 
ATOM     24  C   UNL     1      -1.624  -0.048   2.273  0.00  0.00    +0.118 C 
ATOM     25  C   UNL     1      -2.485   1.145   2.707  0.00  0.00    +0.088 C 
ATOM     26  S   UNL     1      -4.169   0.552   3.051  0.00  0.00    -0.158 S 
ATOM     27  C   UNL     1      -4.618  -0.327   1.524  0.00  0.00    +0.088 C 
ATOM     28  C   UNL     1      -3.533  -1.357   1.214  0.00  0.00    +0.118 C 
ENDBRANCH  20  21
ENDBRANCH   1  20
TORSDOF 4
