REMARK  Name = ZINC20193392
REMARK  12 active torsions:
REMARK  status: ('A' for Active; 'I' for Inactive)
REMARK    1  A    between atoms: C_1  and  C_2
REMARK    2  A    between atoms: C_3  and  C_35
REMARK    3  A    between atoms: C_5  and  N_26
REMARK    4  A    between atoms: C_6  and  C_7
REMARK    5  A    between atoms: C_7  and  C_9
REMARK    6  A    between atoms: C_7  and  N_17
REMARK    7  A    between atoms: C_12  and  O_15
REMARK    8  A    between atoms: O_15  and  C_16
REMARK    9  A    between atoms: N_20  and  C_23
REMARK   10  A    between atoms: C_23  and  C_24
REMARK   11  A    between atoms: C_24  and  O_25
REMARK   12  A    between atoms: C_27  and  C_29
REMARK                            x       y       z     vdW  Elec       q    Type
REMARK                         _______ _______ _______ _____ _____    ______ ____
ROOT
ATOM      1  C   UNL     1      -0.050   0.111   2.429  0.00  0.00    -0.004 C 
ENDROOT
BRANCH   1   7
ATOM      2  C   UNL     1      -0.756   2.388   0.753  0.00  0.00    +0.045 C 
ATOM      3  C   UNL     1      -0.584   1.018   0.149  0.00  0.00    -0.037 A 
ATOM      4  C   UNL     1      -0.750   0.828  -1.182  0.00  0.00    -0.008 A 
ATOM      5  S   UNL     1      -0.439  -0.921  -1.351  0.00  0.00    -0.078 S 
ATOM      6  C   UNL     1      -0.108  -1.287   0.364  0.00  0.00    +0.074 A 
ATOM      7  C   UNL     1      -0.249  -0.062   0.945  0.00  0.00    -0.025 A 
ATOM      8  C   UNL     1      -1.105   1.835  -2.246  0.00  0.00    +0.052 C 
BRANCH   6   9
ATOM      9  N   UNL     1       0.217  -2.509   0.957  0.00  0.00    -0.276 N 
ATOM     10  C   UNL     1       0.178  -3.642   0.228  0.00  0.00    +0.249 C 
ATOM     11  O   UNL     1      -0.140  -3.600  -0.945  0.00  0.00    -0.270 OA
ATOM     12  H   UNL     1       0.470  -2.542   1.892  0.00  0.00    +0.156 HD
BRANCH  10  13
ATOM     13  C   UNL     1       0.522  -4.936   0.855  0.00  0.00    +0.037 A 
ATOM     14  C   UNL     1       0.882  -4.988   2.203  0.00  0.00    +0.013 A 
ATOM     15  C   UNL     1       1.201  -6.199   2.782  0.00  0.00    +0.001 A 
ATOM     16  C   UNL     1       1.166  -7.359   2.030  0.00  0.00    +0.000 A 
ATOM     17  C   UNL     1       0.811  -7.315   0.693  0.00  0.00    +0.001 A 
ATOM     18  C   UNL     1       0.483  -6.111   0.103  0.00  0.00    +0.013 A 
ENDBRANCH  10  13
ENDBRANCH   6   9
ENDBRANCH   1   7
BRANCH   1  19
ATOM     19  N   UNL     1      -0.714  -0.988   3.143  0.00  0.00    +0.389 N 
ATOM     20  C   UNL     1      -2.120  -1.063   2.726  0.00  0.00    -0.062 C 
ATOM     21  C   UNL     1      -2.808  -2.220   3.457  0.00  0.00    +0.066 C 
ATOM     22  N   UNL     1      -2.720  -2.000   4.907  0.00  0.00    -0.304 NA
ATOM     23  C   UNL     1      -1.318  -1.897   5.336  0.00  0.00    +0.066 C 
ATOM     24  C   UNL     1      -0.643  -0.744   4.590  0.00  0.00    -0.062 C 
ATOM     25  H   UNL     1      -0.252  -1.858   2.926  0.00  0.00    -0.080 HD
BRANCH  22  26
ATOM     26  C   UNL     1      -3.419  -3.062   5.644  0.00  0.00    +0.112 C 
BRANCH  26  27
ATOM     27  C   UNL     1      -3.523  -2.675   7.120  0.00  0.00    +0.171 C 
BRANCH  27  28
ATOM     28  O   UNL     1      -4.349  -1.517   7.252  0.00  0.00    -0.394 OA
ATOM     29  H   UNL     1      -4.459  -1.214   8.164  0.00  0.00    +0.209 HD
ENDBRANCH  27  28
ENDBRANCH  26  27
ENDBRANCH  22  26
ENDBRANCH   1  19
BRANCH   1  30
ATOM     30  C   UNL     1       1.424   0.096   2.743  0.00  0.00    -0.056 A 
ATOM     31  C   UNL     1       2.029  -1.075   3.157  0.00  0.00    +0.006 A 
ATOM     32  C   UNL     1       3.380  -1.091   3.446  0.00  0.00    +0.046 A 
ATOM     33  C   UNL     1       4.129   0.070   3.320  0.00  0.00    +0.120 A 
ATOM     34  C   UNL     1       3.519   1.244   2.903  0.00  0.00    +0.046 A 
ATOM     35  C   UNL     1       2.169   1.254   2.611  0.00  0.00    +0.006 A 
BRANCH  33  36
ATOM     36  O   UNL     1       5.458   0.057   3.604  0.00  0.00    -0.495 OA
ATOM     37  C   UNL     1       6.166   1.289   3.451  0.00  0.00    +0.277 C 
ENDBRANCH  33  36
ENDBRANCH   1  30
TORSDOF 9
