REMARK  Name = ZINC59293445
REMARK  13 active torsions:
REMARK  status: ('A' for Active; 'I' for Inactive)
REMARK    1  A    between atoms: C_1  and  C_2
REMARK    2  A    between atoms: C_3  and  C_29
REMARK    3  A    between atoms: N_11  and  C_14
REMARK    4  A    between atoms: C_14  and  C_15
REMARK    5  A    between atoms: C_15  and  O_17
REMARK    6  A    between atoms: O_17  and  C_18
REMARK    7  A    between atoms: C_18  and  C_19
REMARK    8  A    between atoms: C_18  and  C_20
REMARK    9  A    between atoms: C_18  and  C_21
REMARK   10  A    between atoms: C_23  and  C_27
REMARK   11  A    between atoms: C_24  and  N_26
REMARK   12  A    between atoms: C_29  and  O_31
REMARK   13  A    between atoms: O_31  and  C_32
REMARK                            x       y       z     vdW  Elec       q    Type
REMARK                         _______ _______ _______ _____ _____    ______ ____
ROOT
ATOM      1  C   UNL     1      -0.018   1.503   0.010  0.00  0.00    +0.087 C 
ATOM      2  C   UNL     1       0.002  -0.004   0.002  0.00  0.00    +0.116 C 
ATOM      3  C   UNL     1      -1.161  -0.671   0.004  0.00  0.00    +0.099 C 
ATOM      4  C   UNL     1      -1.190  -2.172  -0.004  0.00  0.00    +0.148 C 
ATOM      5  C   UNL     1      -1.627  -2.686  -1.352  0.00  0.00    -0.000 A 
ATOM      6  C   UNL     1      -1.101  -2.568  -2.620  0.00  0.00    +0.022 A 
ATOM      7  C   UNL     1      -1.742  -3.165  -3.692  0.00  0.00    +0.018 A 
ATOM      8  C   UNL     1      -2.908  -3.880  -3.486  0.00  0.00    +0.017 A 
ATOM      9  C   UNL     1      -3.437  -3.999  -2.217  0.00  0.00    +0.025 A 
ATOM     10  C   UNL     1      -2.799  -3.401  -1.133  0.00  0.00    +0.042 A 
ATOM     11  N   UNL     1      -3.131  -3.379   0.222  0.00  0.00    -0.259 N 
ATOM     12  C   UNL     1      -2.243  -2.681   0.952  0.00  0.00    +0.241 C 
ATOM     13  O   UNL     1      -2.280  -2.496   2.151  0.00  0.00    -0.274 OA
ATOM     14 BR   UNL     1      -1.024  -3.005  -5.434  0.00  0.00    -0.050 Br
ATOM     15  C   UNL     1       0.156  -2.729   0.360  0.00  0.00    +0.110 C 
ATOM     16  C   UNL     1       1.258  -1.938   0.340  0.00  0.00    +0.199 C 
ATOM     17  O   UNL     1       1.184  -0.639  -0.013  0.00  0.00    -0.445 OA
ENDROOT
BRANCH  16  18
ATOM     18  N   UNL     1       2.476  -2.473   0.681  0.00  0.00    -0.328 N 
ATOM     19  H   UNL     1       2.541  -3.407   0.933  0.00  0.00    +0.145 HD
ATOM     20  H   UNL     1       3.270  -1.916   0.669  0.00  0.00    +0.145 HD
ENDBRANCH  16  18
BRANCH  15  21
ATOM     21  C   UNL     1       0.278  -4.106   0.732  0.00  0.00    +0.102 C 
ATOM     22  N   UNL     1       0.374  -5.199   1.028  0.00  0.00    -0.191 NA
ENDBRANCH  15  21
BRANCH   3  23
ATOM     23  C   UNL     1      -2.380   0.051   0.014  0.00  0.00    +0.340 C 
ATOM     24  O   UNL     1      -2.366   1.267   0.021  0.00  0.00    -0.245 OA
BRANCH  23  25
ATOM     25  O   UNL     1      -3.556  -0.611   0.016  0.00  0.00    -0.465 OA
ATOM     26  C   UNL     1      -4.746   0.181   0.026  0.00  0.00    +0.280 C 
ENDBRANCH  23  25
ENDBRANCH   3  23
BRANCH  11  27
ATOM     27  C   UNL     1      -4.311  -4.039   0.785  0.00  0.00    +0.234 C 
BRANCH  27  28
ATOM     28  C   UNL     1      -3.956  -5.448   1.183  0.00  0.00    +0.326 C 
ATOM     29  O   UNL     1      -2.833  -5.859   1.015  0.00  0.00    -0.249 OA
BRANCH  28  30
ATOM     30  O   UNL     1      -4.889  -6.248   1.726  0.00  0.00    -0.458 OA
BRANCH  30  31
ATOM     31  C   UNL     1      -4.482  -7.571   2.079  0.00  0.00    +0.105 C 
ATOM     32  C   UNL     1      -3.353  -7.500   3.109  0.00  0.00    +0.055 C 
ATOM     33  C   UNL     1      -5.671  -8.327   2.678  0.00  0.00    +0.055 C 
ATOM     34  C   UNL     1      -3.989  -8.304   0.830  0.00  0.00    +0.055 C 
ENDBRANCH  30  31
ENDBRANCH  28  30
ENDBRANCH  27  28
ENDBRANCH  11  27
TORSDOF 8
