REMARK  Name = ZINC00921896
REMARK  15 active torsions:
REMARK  status: ('A' for Active; 'I' for Inactive)
REMARK    1  A    between atoms: C_1  and  C_2
REMARK    2  A    between atoms: C_5  and  N_9
REMARK    3  A    between atoms: C_7  and  C_8
REMARK    4  A    between atoms: N_9  and  C_10
REMARK    5  A    between atoms: C_10  and  C_12
REMARK    6  A    between atoms: C_10  and  C_24
REMARK    7  A    between atoms: C_14  and  O_22
REMARK    8  A    between atoms: C_15  and  O_20
REMARK    9  A    between atoms: C_16  and  O_18
REMARK   10  A    between atoms: O_18  and  C_19
REMARK   11  A    between atoms: O_20  and  C_21
REMARK   12  A    between atoms: O_22  and  C_23
REMARK   13  A    between atoms: N_26  and  C_27
REMARK   14  A    between atoms: C_33  and  C_35
REMARK   15  A    between atoms: C_35  and  C_36
REMARK                            x       y       z     vdW  Elec       q    Type
REMARK                         _______ _______ _______ _____ _____    ______ ____
ROOT
ATOM      1  C   UNL     1       0.279  -4.906  -1.327  0.00  0.00    +0.197 C 
ENDROOT
BRANCH   1   2
ATOM      2  C   UNL     1      -0.890  -4.704  -2.257  0.00  0.00    -0.011 A 
ATOM      3  C   UNL     1      -0.937  -3.589  -3.072  0.00  0.00    +0.055 A 
ATOM      4  C   UNL     1      -2.011  -3.399  -3.929  0.00  0.00    +0.166 A 
ATOM      5  C   UNL     1      -3.039  -4.333  -3.968  0.00  0.00    +0.204 A 
ATOM      6  C   UNL     1      -2.987  -5.453  -3.148  0.00  0.00    +0.166 A 
ATOM      7  C   UNL     1      -1.908  -5.638  -2.297  0.00  0.00    +0.055 A 
BRANCH   6   8
ATOM      8  O   UNL     1      -3.991  -6.370  -3.182  0.00  0.00    -0.491 OA
ATOM      9  C   UNL     1      -3.872  -7.497  -2.311  0.00  0.00    +0.277 C 
ENDBRANCH   6   8
BRANCH   5  10
ATOM     10  O   UNL     1      -4.095  -4.151  -4.808  0.00  0.00    -0.488 OA
ATOM     11  C   UNL     1      -3.982  -4.703  -6.121  0.00  0.00    +0.277 C 
ENDBRANCH   5  10
BRANCH   4  12
ATOM     12  O   UNL     1      -2.057  -2.301  -4.730  0.00  0.00    -0.491 OA
ATOM     13  C   UNL     1      -0.916  -1.441  -4.719  0.00  0.00    +0.277 C 
ENDBRANCH   4  12
ENDBRANCH   1   2
BRANCH   1  14
ATOM     14  C   UNL     1       1.469  -4.138  -1.841  0.00  0.00    +0.239 C 
ATOM     15  O   UNL     1       1.974  -3.272  -1.158  0.00  0.00    -0.273 OA
ATOM     16  N   UNL     1       1.972  -4.413  -3.061  0.00  0.00    -0.311 N 
ATOM     17  H   UNL     1       1.569  -5.105  -3.607  0.00  0.00    +0.149 HD
BRANCH  16  18
ATOM     18  C   UNL     1       3.130  -3.666  -3.561  0.00  0.00    +0.073 C 
ATOM     19  C   UNL     1       2.655  -2.365  -4.212  0.00  0.00    +0.022 C 
ATOM     20  C   UNL     1       3.863  -1.586  -4.734  0.00  0.00    +0.002 C 
ATOM     21  C   UNL     1       4.607  -2.432  -5.769  0.00  0.00    +0.000 C 
ATOM     22  C   UNL     1       5.082  -3.732  -5.118  0.00  0.00    +0.002 C 
ATOM     23  C   UNL     1       3.874  -4.512  -4.596  0.00  0.00    +0.022 C 
ENDBRANCH  16  18
ENDBRANCH   1  14
BRANCH   1  24
ATOM     24  N   UNL     1      -0.073  -4.423   0.011  0.00  0.00    -0.255 N 
ATOM     25  C   UNL     1      -0.350  -3.118   0.205  0.00  0.00    +0.226 C 
ATOM     26  O   UNL     1      -0.407  -2.363  -0.742  0.00  0.00    -0.275 OA
BRANCH  24  31
ATOM     27  C   UNL     1      -0.269  -8.042   4.375  0.00  0.00    +0.044 C 
ATOM     28  C   UNL     1      -0.217  -7.081   3.216  0.00  0.00    -0.047 A 
ATOM     29  C   UNL     1       0.974  -6.875   2.543  0.00  0.00    +0.005 A 
ATOM     30  C   UNL     1       1.025  -5.994   1.480  0.00  0.00    +0.024 A 
ATOM     31  C   UNL     1      -0.122  -5.316   1.087  0.00  0.00    +0.038 A 
ATOM     32  C   UNL     1      -1.316  -5.525   1.764  0.00  0.00    +0.027 A 
ATOM     33  C   UNL     1      -1.361  -6.411   2.823  0.00  0.00    -0.046 A 
ATOM     34  C   UNL     1      -2.658  -6.643   3.555  0.00  0.00    +0.044 C 
ENDBRANCH  24  31
BRANCH  25  35
ATOM     35  C   UNL     1      -0.590  -2.598   1.599  0.00  0.00    +0.138 C 
BRANCH  35  36
ATOM     36  C   UNL     1      -0.963  -1.139   1.533  0.00  0.00    -0.001 A 
ATOM     37  C   UNL     1      -2.191  -0.576   1.425  0.00  0.00    +0.011 A 
ATOM     38  C   UNL     1      -2.295   0.802   1.383  0.00  0.00    +0.008 A 
ATOM     39  C   UNL     1      -1.166   1.549   1.451  0.00  0.00    +0.045 A 
ATOM     40  S   UNL     1       0.098   0.296   1.586  0.00  0.00    -0.101 S 
ENDBRANCH  35  36
ENDBRANCH  25  35
ENDBRANCH   1  24
TORSDOF 10
