REMARK  Name = ZINC20676672
REMARK  6 active torsions:
REMARK  status: ('A' for Active; 'I' for Inactive)
REMARK    1  A    between atoms: C_6  and  N_7
REMARK    2  A    between atoms: C_8  and  C_10
REMARK    3  A    between atoms: C_10  and  C_11
REMARK    4  A    between atoms: C_19  and  C_21
REMARK    5  A    between atoms: C_21  and  N_22
REMARK    6  A    between atoms: N_25  and  C_28
REMARK                            x       y       z     vdW  Elec       q    Type
REMARK                         _______ _______ _______ _____ _____    ______ ____
ROOT
ATOM      1  C   UNL     1       6.011   2.062  -0.360  0.00  0.00    +0.170 C 
ATOM      2  C   UNL     1       7.325   1.331  -0.381  0.00  0.00    +0.234 C 
ATOM      3  O   UNL     1       7.725   0.831   0.649  0.00  0.00    -0.274 OA
ATOM      4  N   UNL     1       8.070   1.207  -1.480  0.00  0.00    -0.312 N 
ATOM      5  C   UNL     1       7.764   1.828  -2.761  0.00  0.00    +0.123 C 
ATOM      6  C   UNL     1       6.276   2.168  -2.857  0.00  0.00    +0.127 C 
ATOM      7  N   UNL     1       5.875   2.832  -1.606  0.00  0.00    -0.289 N 
ATOM      8  C   UNL     1       5.402   4.094  -1.602  0.00  0.00    +0.200 C 
ATOM      9  O   UNL     1       5.078   4.617  -0.557  0.00  0.00    -0.278 OA
ATOM     10  H   UNL     1       8.971   0.584  -1.371  0.00  0.00    +0.149 HD
ENDROOT
BRANCH   1  11
ATOM     11  C   UNL     1       4.864   1.054  -0.253  0.00  0.00    +0.128 C 
BRANCH  11  13
ATOM     12  N   UNL     1       2.403   1.105  -0.015  0.00  0.00    -0.285 N 
ATOM     13  C   UNL     1       3.557   1.792  -0.124  0.00  0.00    +0.219 C 
ATOM     14  O   UNL     1       3.543   3.005  -0.117  0.00  0.00    -0.275 OA
ATOM     15  H   UNL     1       2.421   0.007   0.057  0.00  0.00    +0.155 HD
BRANCH  12  21
ATOM     16  C   UNL     1       0.059   1.225  -0.586  0.00  0.00    +0.026 A 
ATOM     17  C   UNL     1      -1.145   1.902  -0.567  0.00  0.00    +0.040 A 
ATOM     18  C   UNL     1      -1.236   3.136   0.055  0.00  0.00    +0.124 A 
ATOM     19  C   UNL     1      -0.118   3.699   0.648  0.00  0.00    +0.040 A 
ATOM     20  C   UNL     1       1.088   3.028   0.626  0.00  0.00    +0.026 A 
ATOM     21  C   UNL     1       1.181   1.787   0.008  0.00  0.00    +0.034 A 
ATOM     22  F   UNL     1      -2.416   3.794   0.077  0.00  0.00    -0.205 F 
ENDBRANCH  12  21
ENDBRANCH  11  13
ENDBRANCH   1  11
BRANCH   8  23
ATOM     23  C   UNL     1       5.275   4.856  -2.896  0.00  0.00    +0.019 C 
BRANCH  23  24
ATOM     24  N   UNL     1       4.740   6.197  -2.626  0.00  0.00    +0.387 N 
ATOM     25  C   UNL     1       3.358   6.122  -2.131  0.00  0.00    -0.059 C 
ATOM     26  C   UNL     1       2.866   7.530  -1.786  0.00  0.00    +0.086 C 
ATOM     27  N   UNL     1       2.949   8.381  -2.981  0.00  0.00    -0.333 N 
ATOM     28  C   UNL     1       4.331   8.456  -3.476  0.00  0.00    +0.086 C 
ATOM     29  C   UNL     1       4.823   7.048  -3.820  0.00  0.00    -0.059 C 
ATOM     30  H   UNL     1       5.358   6.654  -1.839  0.00  0.00    -0.081 HD
BRANCH  27  31
ATOM     31  C   UNL     1       2.440   9.657  -2.724  0.00  0.00    +0.030 A 
ATOM     32  C   UNL     1       3.231  10.778  -2.938  0.00  0.00    +0.024 A 
ATOM     33  C   UNL     1       2.723  12.038  -2.689  0.00  0.00    +0.022 A 
ATOM     34  C   UNL     1       1.431  12.183  -2.213  0.00  0.00    +0.041 A 
ATOM     35  C   UNL     1       0.643  11.067  -1.993  0.00  0.00    +0.022 A 
ATOM     36  C   UNL     1       1.144   9.805  -2.247  0.00  0.00    +0.024 A 
ATOM     37 CL   UNL     1       0.799  13.768  -1.893  0.00  0.00    -0.084 Cl
ENDBRANCH  27  31
ENDBRANCH  23  24
ENDBRANCH   8  23
TORSDOF 6
