REMARK  Name = ZINC62535612
REMARK  7 active torsions:
REMARK  status: ('A' for Active; 'I' for Inactive)
REMARK    1  A    between atoms: C_1  and  C_2
REMARK    2  A    between atoms: N_6  and  C_19
REMARK    3  A    between atoms: C_9  and  N_18
REMARK    4  A    between atoms: C_11  and  C_14
REMARK    5  A    between atoms: C_14  and  C_15
REMARK    6  A    between atoms: C_14  and  C_16
REMARK    7  A    between atoms: C_14  and  C_17
REMARK                            x       y       z     vdW  Elec       q    Type
REMARK                         _______ _______ _______ _____ _____    ______ ____
ROOT
ATOM      1  C   UNL     1      -0.019   1.526   0.010  0.00  0.00    +0.062 C 
ATOM      2  C   UNL     1       0.002  -0.004   0.002  0.00  0.00    +0.256 C 
ATOM      3  C   UNL     1       0.706  -0.490  -1.239  0.00  0.00    +0.260 C 
ATOM      4  O   UNL     1       0.074  -0.718  -2.249  0.00  0.00    -0.271 OA
ATOM      5  N   UNL     1       2.045  -0.669  -1.223  0.00  0.00    -0.268 N 
ATOM      6  C   UNL     1       2.748  -0.432  -0.033  0.00  0.00    +0.080 A 
ATOM      7  C   UNL     1       4.126  -0.290  -0.044  0.00  0.00    +0.050 A 
ATOM      8  C   UNL     1       4.804  -0.056   1.145  0.00  0.00    +0.027 A 
ATOM      9  C   UNL     1       4.101   0.034   2.340  0.00  0.00    +0.030 A 
ATOM     10  C   UNL     1       2.726  -0.106   2.350  0.00  0.00    +0.003 A 
ATOM     11  C   UNL     1       2.046  -0.339   1.167  0.00  0.00    +0.147 A 
ATOM     12  O   UNL     1       0.693  -0.477   1.161  0.00  0.00    -0.478 OA
ATOM     13  C   UNL     1       2.752  -1.105  -2.430  0.00  0.00    +0.138 C 
ENDROOT
BRANCH  10  14
ATOM     14  C   UNL     1       1.967  -0.007   3.648  0.00  0.00    -0.009 C 
ATOM     15  C   UNL     1       2.948   0.250   4.794  0.00  0.00    +0.015 C 
ATOM     16  C   UNL     1       0.964   1.145   3.566  0.00  0.00    +0.015 C 
ATOM     17  C   UNL     1       1.218  -1.317   3.903  0.00  0.00    +0.015 C 
ENDBRANCH  10  14
BRANCH   8  18
ATOM     18  N   UNL     1       6.196   0.088   1.140  0.00  0.00    -0.358 N 
ATOM     19  H   UNL     1       6.687   0.024   0.306  0.00  0.00    +0.142 HD
ATOM     20  H   UNL     1       6.669   0.251   1.971  0.00  0.00    +0.142 HD
ENDBRANCH   8  18
TORSDOF 2
