REMARK  Name = ZINC12329302
REMARK  7 active torsions:
REMARK  status: ('A' for Active; 'I' for Inactive)
REMARK    1  A    between atoms: C_1  and  O_2
REMARK    2  A    between atoms: O_2  and  C_3
REMARK    3  A    between atoms: C_15  and  C_16
REMARK    4  A    between atoms: C_15  and  N_59
REMARK    5  A    between atoms: C_16  and  C_18
REMARK    6  A    between atoms: C_16  and  O_27
REMARK    7  A    between atoms: C_29  and  O_31
REMARK                            x       y       z     vdW  Elec       q    Type
REMARK                         _______ _______ _______ _____ _____    ______ ____
ROOT
ATOM      1  C   UNL     1      -9.063   0.963   1.404  0.00  0.00    +0.124 A 
ATOM      2  C   UNL     1      -9.839   0.182   0.559  0.00  0.00    +0.046 A 
ATOM      3  C   UNL     1      -9.448  -1.107   0.260  0.00  0.00    +0.013 A 
ATOM      4  C   UNL     1      -8.284  -1.630   0.801  0.00  0.00    +0.023 A 
ATOM      5  C   UNL     1      -7.508  -0.856   1.646  0.00  0.00    +0.130 A 
ATOM      6  C   UNL     1      -7.899   0.444   1.946  0.00  0.00    +0.091 A 
ATOM      7  O   UNL     1      -6.365  -1.333   2.205  0.00  0.00    -0.485 OA
ATOM      8  C   UNL     1      -5.779  -2.501   1.633  0.00  0.00    +0.110 C 
ATOM      9  C   UNL     1      -4.684  -3.038   2.558  0.00  0.00    +0.029 C 
ATOM     10  C   UNL     1      -3.567  -1.999   2.674  0.00  0.00    -0.075 C 
ATOM     11  C   UNL     1      -4.040  -1.153   0.453  0.00  0.00    -0.075 C 
ATOM     12  C   UNL     1      -5.174  -2.165   0.269  0.00  0.00    +0.029 C 
ATOM     13  C   UNL     1      -6.871  -3.563   1.461  0.00  0.00    +0.084 C 
ATOM     14  C   UNL     1      -7.892  -3.042   0.447  0.00  0.00    +0.152 C 
ATOM     15  N   UNL     1      -3.007  -1.744   1.330  0.00  0.00    +0.382 N 
ATOM     16  H   UNL     1      -2.696  -2.635   0.924  0.00  0.00    -0.082 HD
ENDROOT
BRANCH   1  18
ATOM     17  C   UNL     1     -10.656   2.702   1.103  0.00  0.00    +0.277 C 
ATOM     18  O   UNL     1      -9.444   2.234   1.699  0.00  0.00    -0.495 OA
ENDBRANCH   1  18
BRANCH  14  19
ATOM     19  O   UNL     1      -9.052  -3.877   0.469  0.00  0.00    -0.387 OA
ATOM     20  H   UNL     1      -9.743  -3.606  -0.151  0.00  0.00    +0.210 HD
ENDBRANCH  14  19
BRANCH  15  21
ATOM     21  C   UNL     1      -1.849  -0.833   1.429  0.00  0.00    -0.042 C 
BRANCH  21  22
ATOM     22  C   UNL     1      -0.639  -1.630   1.921  0.00  0.00    +0.128 C 
BRANCH  22  23
ATOM     23  C   UNL     1       0.556  -0.719   2.023  0.00  0.00    -0.020 A 
ATOM     24  C   UNL     1       1.278  -0.391   0.890  0.00  0.00    +0.009 A 
ATOM     25  C   UNL     1       2.376   0.439   0.979  0.00  0.00    +0.046 A 
ATOM     26  C   UNL     1       2.767   0.955   2.212  0.00  0.00    +0.124 A 
ATOM     27  C   UNL     1       2.030   0.624   3.342  0.00  0.00    -0.002 A 
ATOM     28  C   UNL     1       0.936  -0.207   3.251  0.00  0.00    +0.013 A 
ATOM     29  C   UNL     1       2.674   1.336   4.516  0.00  0.00    +0.080 C 
ATOM     30  C   UNL     1       3.569   2.379   3.806  0.00  0.00    +0.234 C 
ATOM     31  O   UNL     1       3.810   1.772   2.525  0.00  0.00    -0.491 OA
ENDBRANCH  22  23
BRANCH  22  32
ATOM     32  O   UNL     1      -0.357  -2.685   0.999  0.00  0.00    -0.389 OA
ATOM     33  H   UNL     1      -0.153  -2.380   0.104  0.00  0.00    +0.210 HD
ENDBRANCH  22  32
ENDBRANCH  21  22
ENDBRANCH  15  21
TORSDOF 6
