REMARK  Name = ZINC12371259
REMARK  9 active torsions:
REMARK  status: ('A' for Active; 'I' for Inactive)
REMARK    1  A    between atoms: C_1  and  O_2
REMARK    2  A    between atoms: O_2  and  C_3
REMARK    3  A    between atoms: C_6  and  C_11
REMARK    4  A    between atoms: C_8  and  O_9
REMARK    5  A    between atoms: O_9  and  C_10
REMARK    6  A    between atoms: C_13  and  C_32
REMARK    7  A    between atoms: C_26  and  C_27
REMARK    8  A    between atoms: C_26  and  C_29
REMARK    9  A    between atoms: C_32  and  C_34
REMARK                            x       y       z     vdW  Elec       q    Type
REMARK                         _______ _______ _______ _____ _____    ______ ____
ROOT
ATOM      1  C   UNL     1      -1.692   2.410  -1.413  0.00  0.00    +0.078 C 
ATOM      2  C   UNL     1      -1.330   1.944   0.019  0.00  0.00    +0.155 C 
ATOM      3  N   UNL     1      -2.404   1.048   0.432  0.00  0.00    -0.310 N 
ATOM      4  C   UNL     1      -2.676   0.877   1.764  0.00  0.00    +0.038 A 
ATOM      5  C   UNL     1      -1.830   1.282   2.778  0.00  0.00    +0.024 A 
ATOM      6  C   UNL     1      -2.190   1.083   4.098  0.00  0.00    +0.002 A 
ATOM      7  C   UNL     1      -3.394   0.478   4.415  0.00  0.00    +0.001 A 
ATOM      8  C   UNL     1      -4.253   0.064   3.415  0.00  0.00    +0.010 A 
ATOM      9  C   UNL     1      -3.904   0.256   2.085  0.00  0.00    -0.004 A 
ATOM     10  C   UNL     1      -4.788  -0.177   0.978  0.00  0.00    +0.007 C 
ATOM     11  C   UNL     1      -4.658   0.447  -0.206  0.00  0.00    -0.002 C 
ATOM     12  C   UNL     1      -3.619   1.526  -0.281  0.00  0.00    +0.127 C 
ATOM     13  C   UNL     1      -3.084   1.779  -1.701  0.00  0.00    +0.163 C 
ENDROOT
BRANCH   1  17
ATOM     14  C   UNL     1       1.197   0.971  -4.219  0.00  0.00    +0.161 A 
ATOM     15  C   UNL     1       0.485   0.078  -3.433  0.00  0.00    +0.049 A 
ATOM     16  C   UNL     1      -0.444   0.547  -2.523  0.00  0.00    +0.008 A 
ATOM     17  C   UNL     1      -0.674   1.905  -2.402  0.00  0.00    -0.036 A 
ATOM     18  C   UNL     1       0.032   2.800  -3.184  0.00  0.00    +0.053 A 
ATOM     19  C   UNL     1       0.969   2.338  -4.093  0.00  0.00    +0.162 A 
BRANCH  14  21
ATOM     20  C   UNL     1       2.296  -0.904  -5.185  0.00  0.00    +0.277 C 
ATOM     21  O   UNL     1       2.115   0.511  -5.111  0.00  0.00    -0.491 OA
ENDBRANCH  14  21
BRANCH  19  22
ATOM     22  O   UNL     1       1.665   3.217  -4.863  0.00  0.00    -0.491 OA
ATOM     23  C   UNL     1       1.379   4.606  -4.681  0.00  0.00    +0.277 C 
ENDBRANCH  19  22
ENDBRANCH   1  17
BRANCH  13  24
ATOM     24  C   UNL     1      -3.969   2.745  -2.445  0.00  0.00    +0.233 C 
ATOM     25  O   UNL     1      -3.555   3.847  -2.736  0.00  0.00    -0.274 OA
ATOM     26  N   UNL     1      -5.221   2.383  -2.789  0.00  0.00    -0.328 N 
ATOM     27  H   UNL     1      -5.553   1.502  -2.556  0.00  0.00    +0.145 HD
ATOM     28  H   UNL     1      -5.791   3.005  -3.268  0.00  0.00    +0.145 HD
ENDBRANCH  13  24
BRANCH  13  29
ATOM     29  C   UNL     1      -2.945   0.516  -2.443  0.00  0.00    +0.082 C 
ATOM     30  N   UNL     1      -2.838  -0.459  -3.017  0.00  0.00    -0.195 NA
ENDBRANCH  13  29
BRANCH   2  31
ATOM     31  C   UNL     1      -0.014   1.208   0.009  0.00  0.00    +0.184 C 
ATOM     32  O   UNL     1       0.002  -0.004   0.002  0.00  0.00    -0.290 OA
BRANCH  31  33
ATOM     33  C   UNL     1       1.249   1.961   0.001  0.00  0.00    +0.019 A 
ATOM     34  C   UNL     1       1.233   3.360   0.003  0.00  0.00    +0.014 A 
ATOM     35  C   UNL     1       2.420   4.059   0.001  0.00  0.00    +0.039 A 
ATOM     36  C   UNL     1       3.629   3.379  -0.015  0.00  0.00    +0.123 A 
ATOM     37  C   UNL     1       3.651   1.992  -0.022  0.00  0.00    +0.039 A 
ATOM     38  C   UNL     1       2.472   1.281  -0.015  0.00  0.00    +0.014 A 
ATOM     39  F   UNL     1       4.790   4.070  -0.023  0.00  0.00    -0.205 F 
ENDBRANCH  31  33
ENDBRANCH   2  31
TORSDOF 7
