REMARK  Name = ZINC39846398
REMARK  8 active torsions:
REMARK  status: ('A' for Active; 'I' for Inactive)
REMARK    1  A    between atoms: C_1  and  C_2
REMARK    2  A    between atoms: C_5  and  C_19
REMARK    3  A    between atoms: C_6  and  C_7
REMARK    4  A    between atoms: C_6  and  C_8
REMARK    5  A    between atoms: C_12  and  C_17
REMARK    6  A    between atoms: C_13  and  C_15
REMARK    7  A    between atoms: N_21  and  N_22
REMARK    8  A    between atoms: C_23  and  C_25
REMARK                            x       y       z     vdW  Elec       q    Type
REMARK                         _______ _______ _______ _____ _____    ______ ____
ROOT
ATOM      1  C   UNL     1      -0.019   1.526   0.010  0.00  0.00    +0.018 C 
ATOM      2  C   UNL     1       0.002  -0.004   0.002  0.00  0.00    +0.018 C 
ATOM      3  C   UNL     1      -1.388  -0.713   0.060  0.00  0.00    +0.015 C 
ATOM      4  C   UNL     1      -1.054  -2.159   0.499  0.00  0.00    +0.024 C 
ATOM      5  C   UNL     1       0.499  -2.159   0.656  0.00  0.00    +0.098 C 
ATOM      6  C   UNL     1       0.727  -0.704   1.210  0.00  0.00    -0.005 C 
ATOM      7  C   UNL     1      -0.007  -0.485   2.535  0.00  0.00    +0.013 C 
ATOM      8  C   UNL     1       2.205  -0.322   1.302  0.00  0.00    +0.013 C 
ATOM      9  C   UNL     1       1.023  -1.984  -0.772  0.00  0.00    +0.080 A 
ATOM     10  C   UNL     1       0.736  -0.664  -1.167  0.00  0.00    +0.072 A 
ATOM     11  N   UNL     1       1.076  -0.224  -2.356  0.00  0.00    -0.236 NA
ATOM     12  C   UNL     1       1.725  -1.028  -3.197  0.00  0.00    +0.176 A 
ATOM     13  C   UNL     1       2.040  -2.341  -2.805  0.00  0.00    +0.176 A 
ATOM     14  N   UNL     1       1.647  -2.801  -1.587  0.00  0.00    -0.236 NA
ENDROOT
BRANCH   5  15
ATOM     15  C   UNL     1       1.087  -3.287   1.464  0.00  0.00    +0.242 C 
ATOM     16  O   UNL     1       1.713  -3.047   2.474  0.00  0.00    -0.273 OA
ATOM     17  N   UNL     1       0.917  -4.562   1.064  0.00  0.00    -0.233 N 
ATOM     18  H   UNL     1       0.416  -4.754   0.256  0.00  0.00    +0.173 HD
BRANCH  17  19
ATOM     19  N   UNL     1       1.463  -5.611   1.815  0.00  0.00    -0.230 N 
ATOM     20  C   UNL     1       1.293  -6.887   1.415  0.00  0.00    +0.260 C 
ATOM     21  O   UNL     1       0.665  -7.127   0.402  0.00  0.00    -0.269 OA
ATOM     22  H   UNL     1       1.964  -5.419   2.623  0.00  0.00    +0.173 HD
BRANCH  20  23
ATOM     23  C   UNL     1       1.869  -7.993   2.207  0.00  0.00    +0.038 A 
ATOM     24  C   UNL     1       2.586  -7.721   3.374  0.00  0.00    +0.014 A 
ATOM     25  C   UNL     1       3.121  -8.757   4.109  0.00  0.00    +0.016 A 
ATOM     26  C   UNL     1       2.949 -10.067   3.692  0.00  0.00    +0.018 A 
ATOM     27  C   UNL     1       2.240 -10.343   2.536  0.00  0.00    +0.016 A 
ATOM     28  C   UNL     1       1.695  -9.316   1.795  0.00  0.00    +0.014 A 
ATOM     29 BR   UNL     1       3.686 -11.482   4.706  0.00  0.00    -0.050 Br
ENDBRANCH  20  23
ENDBRANCH  17  19
ENDBRANCH   5  15
BRANCH  13  30
ATOM     30  C   UNL     1       2.737  -3.212  -3.703  0.00  0.00    +0.122 C 
ATOM     31  N   UNL     1       3.290  -3.902  -4.416  0.00  0.00    -0.189 NA
ENDBRANCH  13  30
BRANCH  12  32
ATOM     32  C   UNL     1       2.099  -0.556  -4.497  0.00  0.00    +0.122 C 
ATOM     33  N   UNL     1       2.396  -0.182  -5.527  0.00  0.00    -0.189 NA
ENDBRANCH  12  32
TORSDOF 5
