REMARK  Name = ZINC66986245
REMARK  8 active torsions:
REMARK  status: ('A' for Active; 'I' for Inactive)
REMARK    1  A    between atoms: C_1  and  C_2
REMARK    2  A    between atoms: C_5  and  C_8
REMARK    3  A    between atoms: C_8  and  C_10
REMARK    4  A    between atoms: C_8  and  N_13
REMARK    5  A    between atoms: N_16  and  C_17
REMARK    6  A    between atoms: C_17  and  C_18
REMARK    7  A    between atoms: C_23  and  N_24
REMARK    8  A    between atoms: N_27  and  C_30
REMARK                            x       y       z     vdW  Elec       q    Type
REMARK                         _______ _______ _______ _____ _____    ______ ____
ROOT
ATOM      1  N   UNL     1      -0.642  -5.046   0.952  0.00  0.00    -0.292 N 
ATOM      2  C   UNL     1      -1.298  -6.219   0.850  0.00  0.00    +0.300 C 
ATOM      3  O   UNL     1      -1.165  -6.904  -0.146  0.00  0.00    -0.253 OA
ATOM      4  N   UNL     1      -2.101  -6.632   1.850  0.00  0.00    -0.295 N 
ATOM      5  H   UNL     1      -0.748  -4.499   1.746  0.00  0.00    +0.151 HD
ATOM      6  H   UNL     1      -2.207  -6.085   2.644  0.00  0.00    +0.151 HD
ENDROOT
BRANCH   1   7
ATOM      7  C   UNL     1       0.231  -4.597  -0.135  0.00  0.00    +0.108 C 
BRANCH   7  12
ATOM      8  C   UNL     1       0.671   1.163   0.004  0.00  0.00    +0.044 C 
ATOM      9  C   UNL     1       0.556  -0.339  -0.033  0.00  0.00    -0.050 A 
ATOM     10  C   UNL     1       0.449  -0.995  -1.245  0.00  0.00    +0.004 A 
ATOM     11  C   UNL     1       0.344  -2.373  -1.278  0.00  0.00    +0.006 A 
ATOM     12  C   UNL     1       0.346  -3.095  -0.099  0.00  0.00    -0.027 A 
ATOM     13  C   UNL     1       0.454  -2.439   1.113  0.00  0.00    +0.006 A 
ATOM     14  C   UNL     1       0.564  -1.061   1.146  0.00  0.00    +0.004 A 
ENDBRANCH   7  12
BRANCH   7  15
ATOM     15  C   UNL     1       1.618  -5.220   0.034  0.00  0.00    +0.014 C 
ATOM     16  C   UNL     1       2.220  -5.941  -1.173  0.00  0.00    +0.006 C 
ATOM     17  C   UNL     1       1.713  -6.747   0.025  0.00  0.00    +0.006 C 
ENDBRANCH   7  15
ENDBRANCH   1   7
BRANCH   4  18
ATOM     18  C   UNL     1      -2.814  -7.907   1.738  0.00  0.00    +0.144 C 
BRANCH  18  19
ATOM     19  C   UNL     1      -3.637  -8.133   2.981  0.00  0.00    +0.010 A 
ATOM     20  C   UNL     1      -3.188  -8.985   3.974  0.00  0.00    +0.010 A 
ATOM     21  C   UNL     1      -3.978  -9.163   5.101  0.00  0.00    +0.020 A 
ATOM     22  C   UNL     1      -5.180  -8.491   5.198  0.00  0.00    +0.113 A 
ATOM     23  N   UNL     1      -5.583  -7.684   4.235  0.00  0.00    -0.240 NA
ATOM     24  C   UNL     1      -4.855  -7.483   3.147  0.00  0.00    +0.126 A 
BRANCH  24  25
ATOM     25  N   UNL     1      -5.316  -6.619   2.160  0.00  0.00    -0.318 N 
ATOM     26  C   UNL     1      -6.199  -7.100   1.086  0.00  0.00    +0.088 C 
ATOM     27  C   UNL     1      -7.411  -6.166   0.999  0.00  0.00    -0.060 C 
ATOM     28  N   UNL     1      -6.949  -4.782   0.830  0.00  0.00    +0.380 N 
ATOM     29  C   UNL     1      -6.205  -4.354   2.021  0.00  0.00    -0.060 C 
ATOM     30  C   UNL     1      -4.939  -5.197   2.163  0.00  0.00    +0.088 C 
ATOM     31  C   UNL     1      -8.109  -3.901   0.636  0.00  0.00    -0.096 C 
ATOM     32  H   UNL     1      -6.348  -4.726   0.021  0.00  0.00    -0.082 HD
ENDBRANCH  24  25
ENDBRANCH  18  19
ENDBRANCH   4  18
TORSDOF 6
