REMARK  Name = ZINC35147460
REMARK  10 active torsions:
REMARK  status: ('A' for Active; 'I' for Inactive)
REMARK    1  A    between atoms: C_1  and  C_2
REMARK    2  A    between atoms: C_5  and  C_8
REMARK    3  A    between atoms: C_8  and  N_9
REMARK    4  A    between atoms: N_9  and  C_10
REMARK    5  A    between atoms: N_9  and  C_18
REMARK    6  A    between atoms: C_10  and  C_11
REMARK    7  A    between atoms: C_18  and  C_19
REMARK    8  A    between atoms: C_21  and  C_24
REMARK    9  A    between atoms: N_29  and  C_32
REMARK   10  A    between atoms: C_37  and  C_38
REMARK                            x       y       z     vdW  Elec       q    Type
REMARK                         _______ _______ _______ _____ _____    ______ ____
ROOT
ATOM      1  C   UNL     1       2.737  -6.442  -0.024  0.00  0.00    +0.063 A 
ATOM      2  N   UNL     1       3.491  -6.851   0.960  0.00  0.00    -0.241 NA
ATOM      3  C   UNL     1       4.648  -7.451   0.665  0.00  0.00    +0.133 A 
ATOM      4  C   UNL     1       4.937  -7.582  -0.667  0.00  0.00    +0.079 A 
ATOM      5  S   UNL     1       3.598  -6.879  -1.398  0.00  0.00    -0.082 S 
ENDROOT
BRANCH   3   6
ATOM      6  C   UNL     1       5.560  -7.943   1.713  0.00  0.00    +0.266 C 
ATOM      7  O   UNL     1       6.669  -8.343   1.415  0.00  0.00    -0.268 OA
ATOM      8  N   UNL     1       5.165  -7.949   3.001  0.00  0.00    -0.293 N 
ATOM      9  C   UNL     1       3.776  -7.627   3.359  0.00  0.00    +0.127 C 
ATOM     10  C   UNL     1       3.202  -8.785   4.184  0.00  0.00    +0.124 C 
ATOM     11  N   UNL     1       4.152  -9.114   5.256  0.00  0.00    -0.327 N 
ATOM     12  C   UNL     1       5.540  -9.436   4.898  0.00  0.00    +0.124 C 
ATOM     13  C   UNL     1       6.114  -8.284   4.073  0.00  0.00    +0.127 C 
BRANCH  11  14
ATOM     14  C   UNL     1       3.743  -9.121   6.592  0.00  0.00    +0.033 A 
ATOM     15  C   UNL     1       3.249 -10.287   7.163  0.00  0.00    +0.023 A 
ATOM     16  C   UNL     1       2.846 -10.290   8.484  0.00  0.00    +0.002 A 
ATOM     17  C   UNL     1       2.932  -9.134   9.238  0.00  0.00    +0.000 A 
ATOM     18  C   UNL     1       3.422  -7.971   8.672  0.00  0.00    +0.005 A 
ATOM     19  C   UNL     1       3.833  -7.963   7.353  0.00  0.00    -0.029 A 
ATOM     20  C   UNL     1       4.373  -6.697   6.739  0.00  0.00    +0.045 C 
ENDBRANCH  11  14
ENDBRANCH   3   6
BRANCH   1  21
ATOM     21  C   UNL     1       1.403  -5.746   0.054  0.00  0.00    -0.014 C 
BRANCH  21  22
ATOM     22  N   UNL     1       1.612  -4.304   0.240  0.00  0.00    +0.389 N 
ATOM     23  H   UNL     1       2.206  -4.151   1.041  0.00  0.00    -0.080 HD
BRANCH  22  24
ATOM     24  C   UNL     1       2.252  -3.744  -0.958  0.00  0.00    -0.042 C 
BRANCH  24  29
ATOM     25  C   UNL     1       3.505   1.824  -0.052  0.00  0.00    +0.044 C 
ATOM     26  C   UNL     1       3.178   0.372  -0.288  0.00  0.00    -0.050 A 
ATOM     27  C   UNL     1       4.102  -0.606   0.032  0.00  0.00    +0.003 A 
ATOM     28  C   UNL     1       3.802  -1.938  -0.185  0.00  0.00    +0.002 A 
ATOM     29  C   UNL     1       2.578  -2.292  -0.721  0.00  0.00    -0.064 A 
ATOM     30  C   UNL     1       1.654  -1.315  -1.040  0.00  0.00    +0.002 A 
ATOM     31  C   UNL     1       1.953   0.017  -0.820  0.00  0.00    +0.003 A 
ENDBRANCH  24  29
ENDBRANCH  22  24
BRANCH  22  32
ATOM     32  C   UNL     1       0.317  -3.645   0.457  0.00  0.00    -0.042 C 
BRANCH  32  33
ATOM     33  C   UNL     1      -0.265  -4.102   1.770  0.00  0.00    -0.064 A 
ATOM     34  C   UNL     1      -1.087  -5.213   1.811  0.00  0.00    +0.004 A 
ATOM     35  C   UNL     1      -1.621  -5.633   3.015  0.00  0.00    +0.038 A 
ATOM     36  C   UNL     1      -1.333  -4.941   4.179  0.00  0.00    +0.123 A 
ATOM     37  C   UNL     1      -0.509  -3.829   4.136  0.00  0.00    +0.038 A 
ATOM     38  C   UNL     1       0.028  -3.414   2.932  0.00  0.00    +0.004 A 
ATOM     39  F   UNL     1      -1.855  -5.351   5.356  0.00  0.00    -0.205 F 
ENDBRANCH  32  33
ENDBRANCH  22  32
ENDBRANCH  21  22
ENDBRANCH   1  21
TORSDOF 8
