REMARK  Name = ZINC13259475
REMARK  6 active torsions:
REMARK  status: ('A' for Active; 'I' for Inactive)
REMARK    1  A    between atoms: C_1  and  C_2
REMARK    2  A    between atoms: N_11  and  S_12
REMARK    3  A    between atoms: S_12  and  C_15
REMARK    4  A    between atoms: C_19  and  C_21
REMARK    5  A    between atoms: N_23  and  C_24
REMARK    6  A    between atoms: C_28  and  C_30
REMARK                            x       y       z     vdW  Elec       q    Type
REMARK                         _______ _______ _______ _____ _____    ______ ____
ROOT
ATOM      1  C   UNL     1       9.712   1.343  -0.508  0.00  0.00    +0.109 A 
ATOM      2  C   UNL     1       9.731  -0.040  -0.515  0.00  0.00    +0.029 A 
ATOM      3  C   UNL     1       8.552  -0.755  -0.402  0.00  0.00    +0.003 A 
ATOM      4  C   UNL     1       7.348  -0.091  -0.282  0.00  0.00    +0.013 A 
ATOM      5  C   UNL     1       7.322   1.304  -0.275  0.00  0.00    +0.039 A 
ATOM      6  C   UNL     1       8.515   2.019  -0.394  0.00  0.00    +0.042 A 
ENDROOT
BRANCH   5   7
ATOM      7  C   UNL     1       6.036   2.022  -0.147  0.00  0.00    +0.248 C 
ATOM      8  O   UNL     1       6.016   3.237  -0.141  0.00  0.00    -0.270 OA
ATOM      9  N   UNL     1       4.885   1.329  -0.038  0.00  0.00    -0.281 N 
ATOM     10  H   UNL     1       4.907   0.362   0.034  0.00  0.00    +0.155 HD
BRANCH   9  11
ATOM     11  C   UNL     1       3.660   2.004  -0.029  0.00  0.00    +0.034 A 
ATOM     12  C   UNL     1       2.602   1.512   0.727  0.00  0.00    +0.023 A 
ATOM     13  C   UNL     1       1.389   2.176   0.740  0.00  0.00    +0.003 A 
ATOM     14  C   UNL     1       1.222   3.333   0.006  0.00  0.00    +0.015 A 
ATOM     15  C   UNL     1       2.278   3.832  -0.759  0.00  0.00    +0.065 A 
ATOM     16  C   UNL     1       3.502   3.163  -0.772  0.00  0.00    +0.038 A 
BRANCH  15  17
ATOM     17  C   UNL     1       2.101   5.069  -1.549  0.00  0.00    +0.387 C 
ATOM     18  O   UNL     1       3.022   5.504  -2.210  0.00  0.00    -0.241 OA
ATOM     19  O   UNL     1       0.920   5.716  -1.530  0.00  0.00    -0.241 OA
ENDBRANCH  15  17
ENDBRANCH   9  11
ENDBRANCH   5   7
BRANCH   1  20
ATOM     20  S   UNL     1      11.220   2.244  -0.653  0.00  0.00    +0.075 S 
ATOM     21  O   UNL     1      10.988   3.520  -0.073  0.00  0.00    -0.150 OA
ATOM     22  O   UNL     1      12.254   1.379  -0.204  0.00  0.00    -0.150 OA
BRANCH  20  32
ATOM     23  C   UNL     1      11.559   0.227  -3.204  0.00  0.00    +0.030 C 
ATOM     24  C   UNL     1      12.234   1.599  -3.148  0.00  0.00    +0.099 C 
ATOM     25  C   UNL     1      12.196   2.266  -4.533  0.00  0.00    +0.061 C 
ATOM     26  C   UNL     1      11.409   3.539  -4.319  0.00  0.00    -0.023 A 
ATOM     27  C   UNL     1      11.055   4.544  -5.199  0.00  0.00    +0.005 A 
ATOM     28  C   UNL     1      10.319   5.627  -4.756  0.00  0.00    +0.000 A 
ATOM     29  C   UNL     1       9.937   5.703  -3.429  0.00  0.00    +0.002 A 
ATOM     30  C   UNL     1      10.288   4.704  -2.548  0.00  0.00    +0.025 A 
ATOM     31  C   UNL     1      11.031   3.606  -2.987  0.00  0.00    +0.055 A 
ATOM     32  N   UNL     1      11.485   2.499  -2.268  0.00  0.00    -0.200 N 
ENDBRANCH  20  32
ENDBRANCH   1  20
TORSDOF 5
