REMARK  Name = ZINC49504644
REMARK  11 active torsions:
REMARK  status: ('A' for Active; 'I' for Inactive)
REMARK    1  A    between atoms: C_1  and  N_2
REMARK    2  A    between atoms: N_2  and  C_3
REMARK    3  A    between atoms: N_2  and  C_4
REMARK    4  A    between atoms: C_7  and  C_10
REMARK    5  A    between atoms: C_10  and  C_12
REMARK    6  A    between atoms: C_10  and  N_25
REMARK    7  A    between atoms: C_12  and  N_13
REMARK    8  A    between atoms: C_14  and  C_16
REMARK    9  A    between atoms: N_18  and  C_19
REMARK   10  A    between atoms: C_19  and  C_20
REMARK   11  A    between atoms: N_28  and  C_31
REMARK                            x       y       z     vdW  Elec       q    Type
REMARK                         _______ _______ _______ _____ _____    ______ ____
ROOT
ATOM      1  C   UNL     1      -4.883  -2.860   0.079  0.00  0.00    +0.104 C 
ENDROOT
BRANCH   1   5
ATOM      2  C   UNL     1      -1.177  -0.761  -0.285  0.00  0.00    +0.029 A 
ATOM      3  C   UNL     1      -1.214  -2.141  -0.440  0.00  0.00    +0.023 A 
ATOM      4  C   UNL     1      -2.413  -2.816  -0.321  0.00  0.00    +0.007 A 
ATOM      5  C   UNL     1      -3.576  -2.120  -0.049  0.00  0.00    -0.029 A 
ATOM      6  C   UNL     1      -3.543  -0.746   0.106  0.00  0.00    +0.007 A 
ATOM      7  C   UNL     1      -2.346  -0.066  -0.005  0.00  0.00    +0.023 A 
BRANCH   2   9
ATOM      8  C   UNL     1       0.072   1.379  -0.234  0.00  0.00    +0.129 C 
ATOM      9  N   UNL     1       0.034  -0.076  -0.404  0.00  0.00    -0.336 N 
ATOM     10  C   UNL     1       1.266  -0.811  -0.698  0.00  0.00    +0.129 C 
ENDBRANCH   2   9
ENDBRANCH   1   5
BRANCH   1  11
ATOM     11  N   UNL     1      -5.890  -2.227  -0.783  0.00  0.00    -0.291 NA
ATOM     12  C   UNL     1      -5.271  -1.666  -1.991  0.00  0.00    +0.104 C 
ATOM     13  C   UNL     1      -6.367  -1.180  -2.945  0.00  0.00    +0.120 C 
ATOM     14  N   UNL     1      -7.249  -0.258  -2.212  0.00  0.00    -0.327 N 
ATOM     15  C   UNL     1      -7.799  -0.700  -0.922  0.00  0.00    +0.120 C 
ATOM     16  C   UNL     1      -6.646  -1.205  -0.048  0.00  0.00    +0.104 C 
BRANCH  14  17
ATOM     17  C   UNL     1      -7.555   1.005  -2.728  0.00  0.00    +0.030 A 
ATOM     18  C   UNL     1      -7.144   1.351  -4.009  0.00  0.00    +0.026 A 
ATOM     19  C   UNL     1      -7.448   2.599  -4.517  0.00  0.00    +0.040 A 
ATOM     20  C   UNL     1      -8.162   3.504  -3.750  0.00  0.00    +0.124 A 
ATOM     21  C   UNL     1      -8.572   3.161  -2.473  0.00  0.00    +0.040 A 
ATOM     22  C   UNL     1      -8.275   1.913  -1.963  0.00  0.00    +0.026 A 
ATOM     23  F   UNL     1      -8.458   4.725  -4.249  0.00  0.00    -0.205 F 
ENDBRANCH  14  17
ENDBRANCH   1  11
BRANCH   1  24
ATOM     24  C   UNL     1      -5.355  -2.812   1.534  0.00  0.00    +0.128 C 
BRANCH  24  25
ATOM     25  N   UNL     1      -6.668  -3.454   1.642  0.00  0.00    -0.306 N 
ATOM     26  C   UNL     1      -7.241  -3.616   2.851  0.00  0.00    +0.299 C 
ATOM     27  O   UNL     1      -6.670  -3.231   3.850  0.00  0.00    -0.265 OA
ATOM     28  H   UNL     1      -7.124  -3.763   0.843  0.00  0.00    +0.149 HD
BRANCH  26  29
ATOM     29  C   UNL     1      -8.580  -4.271   2.961  0.00  0.00    +0.299 C 
ATOM     30  O   UNL     1      -9.151  -4.657   1.962  0.00  0.00    -0.265 OA
ATOM     31  N   UNL     1      -9.153  -4.434   4.170  0.00  0.00    -0.303 N 
ATOM     32  H   UNL     1      -8.697  -4.125   4.968  0.00  0.00    +0.149 HD
BRANCH  31  33
ATOM     33  C   UNL     1     -10.466  -5.075   4.278  0.00  0.00    +0.140 C 
BRANCH  33  34
ATOM     34  C   UNL     1     -10.879  -5.133   5.726  0.00  0.00    -0.023 A 
ATOM     35  C   UNL     1     -10.538  -6.220   6.510  0.00  0.00    +0.013 A 
ATOM     36  C   UNL     1     -10.925  -6.241   7.809  0.00  0.00    +0.045 A 
ATOM     37  S   UNL     1     -11.799  -4.692   7.958  0.00  0.00    -0.105 S 
ATOM     38  C   UNL     1     -11.585  -4.118   6.282  0.00  0.00    +0.050 A 
ENDBRANCH  33  34
ENDBRANCH  31  33
ENDBRANCH  26  29
ENDBRANCH  24  25
ENDBRANCH   1  24
TORSDOF 9
