REMARK  Name = ZINC20654129
REMARK  5 active torsions:
REMARK  status: ('A' for Active; 'I' for Inactive)
REMARK    1  A    between atoms: C_1  and  C_2
REMARK    2  A    between atoms: C_2  and  C_22
REMARK    3  A    between atoms: C_6  and  C_14
REMARK    4  A    between atoms: C_8  and  C_12
REMARK    5  A    between atoms: C_9  and  N_11
REMARK                            x       y       z     vdW  Elec       q    Type
REMARK                         _______ _______ _______ _____ _____    ______ ____
ROOT
ATOM      1  C   UNL     1      -3.043  -1.900  -3.784  0.00  0.00    +0.011 C 
ATOM      2  C   UNL     1      -1.754  -2.723  -3.833  0.00  0.00    -0.023 C 
ATOM      3  C   UNL     1      -1.720  -3.700  -2.659  0.00  0.00    +0.049 C 
ATOM      4  C   UNL     1      -1.757  -2.939  -1.349  0.00  0.00    -0.000 C 
ATOM      5  C   UNL     1      -1.210  -1.713  -1.255  0.00  0.00    +0.020 C 
ATOM      6  C   UNL     1      -1.208  -0.902   0.009  0.00  0.00    +0.132 C 
ATOM      7  C   UNL     1      -1.184  -1.718   1.252  0.00  0.00    +0.071 C 
ATOM      8  C   UNL     1      -1.735  -2.938   1.367  0.00  0.00    +0.078 C 
ATOM      9  S   UNL     1      -2.530  -3.732   0.022  0.00  0.00    -0.078 S 
ATOM     10  C   UNL     1      -0.594  -1.111  -2.373  0.00  0.00    +0.162 C 
ATOM     11  O   UNL     1      -0.094  -0.010  -2.252  0.00  0.00    -0.292 OA
ATOM     12  C   UNL     1      -0.540  -1.794  -3.710  0.00  0.00    +0.086 C 
ATOM     13  C   UNL     1      -1.682  -3.495  -5.151  0.00  0.00    +0.011 C 
ENDROOT
BRANCH   6  14
ATOM     14  C   UNL     1       0.002  -0.004   0.002  0.00  0.00    +0.117 A 
ATOM     15  C   UNL     1      -0.016   1.341   0.009  0.00  0.00    +0.045 A 
ATOM     16  C   UNL     1       1.331   1.769  -0.001  0.00  0.00    +0.041 A 
ATOM     17  C   UNL     1       2.092   0.660  -0.014  0.00  0.00    +0.195 A 
ATOM     18  O   UNL     1       1.282  -0.411  -0.012  0.00  0.00    -0.467 OA
ENDBRANCH   6  14
BRANCH   8  19
ATOM     19  N   UNL     1      -1.671  -3.587   2.578  0.00  0.00    -0.352 N 
ATOM     20  H   UNL     1      -2.116  -4.586   2.691  0.00  0.00    +0.143 HD
ATOM     21  H   UNL     1      -1.174  -3.106   3.434  0.00  0.00    +0.143 HD
ENDBRANCH   8  19
BRANCH   7  22
ATOM     22  C   UNL     1      -0.534  -1.167   2.403  0.00  0.00    +0.098 C 
ATOM     23  N   UNL     1      -0.019  -0.730   3.316  0.00  0.00    -0.191 NA
ENDBRANCH   7  22
TORSDOF 3
