REMARK  Name = ZINC48837297
REMARK  3 active torsions:
REMARK  status: ('A' for Active; 'I' for Inactive)
REMARK    1  A    between atoms: C_3  and  C_19
REMARK    2  A    between atoms: C_4  and  N_8
REMARK    3  A    between atoms: C_15  and  N_18
REMARK                            x       y       z     vdW  Elec       q    Type
REMARK                         _______ _______ _______ _____ _____    ______ ____
ROOT
ATOM      1  N   UNL     1       3.429  -0.726  -0.101  0.00  0.00    -0.268 N 
ATOM      2  C   UNL     1       3.333  -2.058  -0.277  0.00  0.00    +0.306 C 
ATOM      3  O   UNL     1       2.248  -2.569  -0.475  0.00  0.00    -0.252 OA
ATOM      4  N   UNL     1       4.441  -2.825  -0.235  0.00  0.00    -0.287 N 
ATOM      5  C   UNL     1       5.771  -2.213  -0.112  0.00  0.00    +0.109 C 
ATOM      6  C   UNL     1       6.660  -2.735  -1.246  0.00  0.00    +0.017 C 
ATOM      7  C   UNL     1       6.668  -4.265  -1.220  0.00  0.00    -0.013 C 
ATOM      8  C   UNL     1       5.247  -4.787  -1.442  0.00  0.00    -0.057 C 
ATOM      9  C   UNL     1       4.341  -4.289  -0.305  0.00  0.00    +0.093 C 
ATOM     10  H   UNL     1       4.301  -0.309  -0.015  0.00  0.00    +0.156 HD
ENDROOT
BRANCH   1  14
ATOM     11  C   UNL     1      -0.023   1.609   0.076  0.00  0.00    +0.016 A 
ATOM     12  C   UNL     1       1.071   1.963   0.835  0.00  0.00    +0.018 A 
ATOM     13  C   UNL     1       2.235   1.189   0.785  0.00  0.00    +0.084 A 
ATOM     14  C   UNL     1       2.278   0.053  -0.042  0.00  0.00    +0.050 A 
ATOM     15  C   UNL     1       1.166  -0.288  -0.799  0.00  0.00    +0.039 A 
ATOM     16  C   UNL     1       0.023   0.487  -0.739  0.00  0.00    +0.020 A 
ATOM     17 BR   UNL     1      -1.488   0.015  -1.773  0.00  0.00    -0.050 Br
BRANCH  13  18
ATOM     18  C   UNL     1       3.406   1.561   1.592  0.00  0.00    +0.388 C 
ATOM     19  O   UNL     1       3.405   2.608   2.226  0.00  0.00    -0.241 OA
ATOM     20  O   UNL     1       4.382   0.824   1.630  0.00  0.00    -0.241 OA
ENDBRANCH  13  18
ENDBRANCH   1  14
BRANCH   8  21
ATOM     21  N   UNL     1       5.260  -6.256  -1.449  0.00  0.00    +0.381 N 
ATOM     22  H   UNL     1       5.608  -6.594  -0.564  0.00  0.00    -0.090 HD
ATOM     23  H   UNL     1       4.323  -6.600  -1.595  0.00  0.00    -0.090 HD
ATOM     24  H   UNL     1       5.858  -6.583  -2.193  0.00  0.00    -0.090 HD
ENDBRANCH   8  21
TORSDOF 3
