REMARK  Name = ZINC26053292
REMARK  9 active torsions:
REMARK  status: ('A' for Active; 'I' for Inactive)
REMARK    1  A    between atoms: C_1  and  C_2
REMARK    2  A    between atoms: C_4  and  C_14
REMARK    3  A    between atoms: C_6  and  S_9
REMARK    4  A    between atoms: C_7  and  C_8
REMARK    5  A    between atoms: S_9  and  N_12
REMARK    6  A    between atoms: N_12  and  C_13
REMARK    7  A    between atoms: N_16  and  C_17
REMARK    8  A    between atoms: C_21  and  C_24
REMARK    9  A    between atoms: C_22  and  C_23
REMARK                            x       y       z     vdW  Elec       q    Type
REMARK                         _______ _______ _______ _____ _____    ______ ____
ROOT
ATOM      1  C   UNL     1      -3.904  -2.459  -4.359  0.00  0.00    +0.248 C 
ATOM      2  O   UNL     1      -4.217  -3.574  -3.991  0.00  0.00    -0.270 OA
ATOM      3  N   UNL     1      -3.861  -2.171  -5.675  0.00  0.00    -0.281 N 
ATOM      4  H   UNL     1      -3.664  -1.141  -6.006  0.00  0.00    +0.155 HD
ENDROOT
BRANCH   1   8
ATOM      5  C   UNL     1      -2.510   2.214  -3.299  0.00  0.00    +0.044 C 
ATOM      6  C   UNL     1      -2.899   0.829  -2.848  0.00  0.00    -0.045 A 
ATOM      7  C   UNL     1      -3.209  -0.137  -3.782  0.00  0.00    +0.016 A 
ATOM      8  C   UNL     1      -3.569  -1.419  -3.363  0.00  0.00    +0.039 A 
ATOM      9  C   UNL     1      -3.613  -1.714  -1.999  0.00  0.00    +0.042 A 
ATOM     10  C   UNL     1      -3.300  -0.739  -1.075  0.00  0.00    +0.109 A 
ATOM     11  C   UNL     1      -2.949   0.532  -1.498  0.00  0.00    -0.021 A 
ATOM     12  C   UNL     1      -2.614   1.594  -0.482  0.00  0.00    +0.046 C 
BRANCH  10  13
ATOM     13  S   UNL     1      -3.354  -1.109   0.646  0.00  0.00    +0.058 S 
ATOM     14  O   UNL     1      -2.139  -0.629   1.204  0.00  0.00    -0.153 OA
ATOM     15  O   UNL     1      -3.760  -2.466   0.757  0.00  0.00    -0.153 OA
BRANCH  13  16
ATOM     16  N   UNL     1      -4.569  -0.196   1.305  0.00  0.00    -0.193 NA
ATOM     17  C   UNL     1      -5.962  -0.444   0.922  0.00  0.00    +0.127 C 
ATOM     18  H   UNL     1      -4.312   0.694   1.898  0.00  0.00    +0.148 HD
ENDBRANCH  13  16
ENDBRANCH  10  13
ENDBRANCH   1   8
BRANCH   3  19
ATOM     19  C   UNL     1      -4.067  -3.182  -6.619  0.00  0.00    +0.037 A 
ATOM     20  C   UNL     1      -3.813  -4.507  -6.285  0.00  0.00    +0.023 A 
ATOM     21  C   UNL     1      -4.020  -5.510  -7.213  0.00  0.00    +0.003 A 
ATOM     22  C   UNL     1      -4.470  -5.202  -8.481  0.00  0.00    +0.013 A 
ATOM     23  C   UNL     1      -4.723  -3.873  -8.828  0.00  0.00    +0.042 A 
ATOM     24  C   UNL     1      -4.520  -2.861  -7.889  0.00  0.00    -0.017 A 
ATOM     25  C   UNL     1      -4.790  -1.425  -8.256  0.00  0.00    +0.046 C 
BRANCH  23  26
ATOM     26  C   UNL     1      -5.205  -3.540 -10.185  0.00  0.00    +0.247 C 
ATOM     27  O   UNL     1      -6.229  -2.900 -10.327  0.00  0.00    -0.270 OA
ATOM     28  N   UNL     1      -4.510  -3.946 -11.266  0.00  0.00    -0.293 N 
ATOM     29  C   UNL     1      -4.934  -3.551 -12.617  0.00  0.00    +0.113 C 
ATOM     30  C   UNL     1      -3.834  -2.654 -13.219  0.00  0.00    +0.061 C 
ATOM     31  C   UNL     1      -2.503  -3.257 -12.909  0.00  0.00    -0.004 A 
ATOM     32  C   UNL     1      -2.211  -4.209 -11.981  0.00  0.00    -0.020 A 
ATOM     33  C   UNL     1      -0.877  -4.600 -11.883  0.00  0.00    +0.013 A 
ATOM     34  C   UNL     1       0.053  -4.040 -12.690  0.00  0.00    +0.046 A 
ATOM     35  S   UNL     1      -0.932  -2.902 -13.652  0.00  0.00    -0.101 S 
ATOM     36  C   UNL     1      -3.321  -4.796 -11.111  0.00  0.00    +0.144 C 
ENDBRANCH  23  26
ENDBRANCH   3  19
TORSDOF 5
