REMARK  Name = ZINC35696573
REMARK  10 active torsions:
REMARK  status: ('A' for Active; 'I' for Inactive)
REMARK    1  A    between atoms: C_1  and  C_2
REMARK    2  A    between atoms: C_2  and  C_3
REMARK    3  A    between atoms: C_4  and  C_31
REMARK    4  A    between atoms: C_5  and  C_24
REMARK    5  A    between atoms: C_8  and  C_13
REMARK    6  A    between atoms: C_14  and  N_16
REMARK    7  A    between atoms: N_16  and  C_17
REMARK    8  A    between atoms: C_17  and  C_18
REMARK    9  A    between atoms: C_31  and  O_33
REMARK   10  A    between atoms: O_33  and  C_34
REMARK                            x       y       z     vdW  Elec       q    Type
REMARK                         _______ _______ _______ _____ _____    ______ ____
ROOT
ATOM      1  C   UNL     1      -1.502  -0.966   0.266  0.00  0.00    +0.056 C 
ATOM      2  C   UNL     1      -2.067  -1.100  -0.988  0.00  0.00    +0.083 C 
ATOM      3  C   UNL     1      -3.544  -1.417  -1.066  0.00  0.00    +0.150 C 
ATOM      4  N   UNL     1      -4.274  -1.559   0.221  0.00  0.00    -0.267 N 
ATOM      5  C   UNL     1      -5.615  -1.844   0.389  0.00  0.00    +0.048 C 
ATOM      6  C   UNL     1      -6.084  -1.931   1.653  0.00  0.00    +0.072 C 
ATOM      7  S   UNL     1      -4.618  -1.607   2.613  0.00  0.00    -0.060 S 
ATOM      8  C   UNL     1      -3.530  -1.388   1.355  0.00  0.00    +0.166 C 
ATOM      9  N   UNL     1      -2.241  -1.117   1.353  0.00  0.00    -0.229 NA
ENDROOT
BRANCH   3  10
ATOM     10  C   UNL     1      -3.702  -2.704  -1.833  0.00  0.00    -0.022 A 
ATOM     11  C   UNL     1      -3.451  -3.914  -1.212  0.00  0.00    +0.008 A 
ATOM     12  C   UNL     1      -3.596  -5.095  -1.915  0.00  0.00    +0.038 A 
ATOM     13  C   UNL     1      -3.994  -5.067  -3.241  0.00  0.00    +0.123 A 
ATOM     14  C   UNL     1      -4.245  -3.855  -3.861  0.00  0.00    +0.038 A 
ATOM     15  C   UNL     1      -4.104  -2.675  -3.156  0.00  0.00    +0.008 A 
ATOM     16  F   UNL     1      -4.136  -6.221  -3.928  0.00  0.00    -0.205 F 
ENDBRANCH   3  10
BRANCH   5  17
ATOM     17  C   UNL     1      -6.500  -2.046  -0.767  0.00  0.00    +0.091 C 
ATOM     18  C   UNL     1      -7.763  -2.475  -0.581  0.00  0.00    +0.239 C 
ATOM     19  O   UNL     1      -8.255  -2.610   0.675  0.00  0.00    -0.271 OA
BRANCH  18  20
ATOM     20  N   UNL     1      -8.559  -2.780  -1.672  0.00  0.00    -0.308 N 
ATOM     21  H   UNL     1      -8.185  -2.755  -2.567  0.00  0.00    +0.149 HD
BRANCH  20  22
ATOM     22  C   UNL     1      -9.966  -3.139  -1.476  0.00  0.00    +0.140 C 
BRANCH  22  23
ATOM     23  C   UNL     1     -10.571  -3.539  -2.797  0.00  0.00    -0.027 A 
ATOM     24  C   UNL     1     -11.168  -2.595  -3.619  0.00  0.00    +0.025 A 
ATOM     25  C   UNL     1     -11.713  -2.999  -4.823  0.00  0.00    +0.111 A 
ATOM     26  N   UNL     1     -11.670  -4.264  -5.192  0.00  0.00    -0.263 NA
ATOM     27  C   UNL     1     -11.111  -5.188  -4.436  0.00  0.00    +0.111 A 
ATOM     28  C   UNL     1     -10.540  -4.858  -3.221  0.00  0.00    +0.025 A 
ENDBRANCH  22  23
ENDBRANCH  20  22
ENDBRANCH  18  20
ENDBRANCH   5  17
BRANCH   1  30
ATOM     29  C   UNL     1       0.175   0.860   0.287  0.00  0.00    +0.010 C 
ATOM     30  C   UNL     1      -0.034  -0.651   0.396  0.00  0.00    +0.053 C 
ENDBRANCH   1  30
BRANCH   2  31
ATOM     31  C   UNL     1      -1.297  -0.948  -2.148  0.00  0.00    +0.339 C 
ATOM     32  O   UNL     1      -0.095  -0.770  -2.062  0.00  0.00    -0.245 OA
BRANCH  31  33
ATOM     33  O   UNL     1      -1.888  -0.999  -3.362  0.00  0.00    -0.465 OA
ATOM     34  C   UNL     1      -1.042  -0.835  -4.502  0.00  0.00    +0.280 C 
ENDBRANCH  31  33
ENDBRANCH   2  31
TORSDOF 8
