REMARK  Name = ZINC40516526
REMARK  3 active torsions:
REMARK  status: ('A' for Active; 'I' for Inactive)
REMARK    1  A    between atoms: C_1  and  C_2
REMARK    2  A    between atoms: C_3  and  N_15
REMARK    3  A    between atoms: C_4  and  C_14
REMARK                            x       y       z     vdW  Elec       q    Type
REMARK                         _______ _______ _______ _____ _____    ______ ____
ROOT
ATOM      1  C   UNL     1      -0.018   1.503   0.010  0.00  0.00    +0.069 C 
ATOM      2  C   UNL     1       0.002  -0.004   0.002  0.00  0.00    +0.081 A 
ATOM      3  C   UNL     1       0.008  -0.819  -1.141  0.00  0.00    +0.069 A 
ATOM      4  C   UNL     1       0.027  -2.112  -0.731  0.00  0.00    +0.064 A 
ATOM      5  N   UNL     1       0.034  -2.109   0.633  0.00  0.00    -0.217 N 
ATOM      6  N   UNL     1       0.023  -0.775   1.059  0.00  0.00    -0.168 NA
ATOM      7  C   UNL     1       0.053  -3.237   1.458  0.00  0.00    +0.154 A 
ATOM      8  C   UNL     1       0.562  -3.138   2.747  0.00  0.00    +0.049 A 
ATOM      9  C   UNL     1       0.575  -4.263   3.554  0.00  0.00    +0.020 A 
ATOM     10  C   UNL     1       0.075  -5.452   3.041  0.00  0.00    +0.036 A 
ATOM     11  C   UNL     1      -0.416  -5.477   1.749  0.00  0.00    +0.128 A 
ATOM     12  N   UNL     1      -0.420  -4.388   1.006  0.00  0.00    -0.235 NA
ATOM     13 BR   UNL     1       0.067  -7.021   4.097  0.00  0.00    -0.049 Br
ATOM     14  C   UNL     1       0.040  -3.328  -1.619  0.00  0.00    +0.068 C 
ENDROOT
BRANCH   3  15
ATOM     15  N   UNL     1      -0.005  -0.373  -2.476  0.00  0.00    -0.355 N 
ATOM     16  H   UNL     1      -0.019   0.577  -2.670  0.00  0.00    +0.142 HD
ATOM     17  H   UNL     1       0.000  -1.016  -3.202  0.00  0.00    +0.142 HD
ENDBRANCH   3  15
TORSDOF 1
