REMARK  Name = ZINC05145747
REMARK  5 active torsions:
REMARK  status: ('A' for Active; 'I' for Inactive)
REMARK    1  A    between atoms: C_1  and  O_2
REMARK    2  A    between atoms: O_2  and  C_3
REMARK    3  A    between atoms: C_6  and  C_8
REMARK    4  A    between atoms: C_12  and  N_13
REMARK    5  A    between atoms: C_14  and  C_16
REMARK                            x       y       z     vdW  Elec       q    Type
REMARK                         _______ _______ _______ _____ _____    ______ ____
ROOT
ATOM      1  C   UNL     1       5.131  -4.093  -0.080  0.00  0.00    +0.069 A 
ATOM      2  C   UNL     1       6.509  -4.553  -0.105  0.00  0.00    -0.023 A 
ATOM      3  C   UNL     1       7.441  -3.575  -0.110  0.00  0.00    -0.004 A 
ATOM      4  S   UNL     1       6.516  -2.066  -0.089  0.00  0.00    -0.077 S 
ATOM      5  C   UNL     1       4.912  -2.722  -0.074  0.00  0.00    +0.085 A 
ATOM      6  C   UNL     1       8.929  -3.746  -0.128  0.00  0.00    +0.043 C 
ATOM      7  C   UNL     1       9.253  -5.202   0.238  0.00  0.00    +0.005 C 
ATOM      8  C   UNL     1       8.363  -6.130  -0.594  0.00  0.00    +0.005 C 
ATOM      9  C   UNL     1       6.913  -6.022  -0.119  0.00  0.00    +0.037 C 
ENDROOT
BRANCH   1  13
ATOM     10  C   UNL     1       2.490  -6.351   1.122  0.00  0.00    +0.407 C 
ATOM     11  O   UNL     1       2.011  -6.742   0.076  0.00  0.00    -0.226 OA
ATOM     12  N   UNL     1       3.517  -5.479   1.109  0.00  0.00    -0.217 N 
ATOM     13  C   UNL     1       4.014  -5.041  -0.065  0.00  0.00    +0.255 C 
ATOM     14  O   UNL     1       3.535  -5.433  -1.113  0.00  0.00    -0.270 OA
ATOM     15  H   UNL     1       3.899  -5.166   1.944  0.00  0.00    +0.161 HD
BRANCH  10  17
ATOM     16  C   UNL     1       0.887  -7.726   2.233  0.00  0.00    +0.282 C 
ATOM     17  O   UNL     1       1.993  -6.788   2.295  0.00  0.00    -0.453 OA
ENDBRANCH  10  17
ENDBRANCH   1  13
BRANCH   5  18
ATOM     18  N   UNL     1       3.705  -2.043  -0.055  0.00  0.00    -0.275 N 
ATOM     19  C   UNL     1       3.690  -0.695  -0.047  0.00  0.00    +0.249 C 
ATOM     20  O   UNL     1       4.736  -0.075  -0.056  0.00  0.00    -0.270 OA
ATOM     21  H   UNL     1       2.870  -2.537  -0.048  0.00  0.00    +0.156 HD
BRANCH  19  22
ATOM     22  C   UNL     1       2.404   0.028  -0.026  0.00  0.00    +0.041 A 
ATOM     23  C   UNL     1       1.201  -0.682  -0.016  0.00  0.00    +0.017 A 
ATOM     24  C   UNL     1       0.002  -0.004   0.002  0.00  0.00    +0.050 A 
ATOM     25  C   UNL     1      -0.017   1.386   0.010  0.00  0.00    +0.162 A 
ATOM     26  C   UNL     1       1.179   2.100   0.002  0.00  0.00    +0.163 A 
ATOM     27  C   UNL     1       2.386   1.425  -0.017  0.00  0.00    +0.062 A 
ATOM     28  O   UNL     1       1.177   3.461   0.018  0.00  0.00    -0.485 OA
ATOM     29  C   UNL     1      -0.049   4.107  -0.339  0.00  0.00    +0.270 C 
ATOM     30  C   UNL     1      -1.194   3.412   0.409  0.00  0.00    +0.270 C 
ATOM     31  O   UNL     1      -1.212   2.034   0.019  0.00  0.00    -0.485 OA
ENDBRANCH  19  22
ENDBRANCH   5  18
TORSDOF 4
