REMARK  Name = ZINC53049673
REMARK  9 active torsions:
REMARK  status: ('A' for Active; 'I' for Inactive)
REMARK    1  A    between atoms: C_1  and  C_2
REMARK    2  A    between atoms: C_2  and  C_4
REMARK    3  A    between atoms: C_2  and  N_13
REMARK    4  A    between atoms: N_9  and  C_10
REMARK    5  A    between atoms: C_10  and  C_11
REMARK    6  A    between atoms: C_10  and  C_12
REMARK    7  A    between atoms: C_16  and  C_19
REMARK    8  A    between atoms: N_21  and  C_22
REMARK    9  A    between atoms: C_22  and  C_23
REMARK                            x       y       z     vdW  Elec       q    Type
REMARK                         _______ _______ _______ _____ _____    ______ ____
ROOT
ATOM      1  N   UNL     1       0.323  -0.926   1.099  0.00  0.00    +0.387 N 
ATOM      2  C   UNL     1      -0.004  -2.299   0.694  0.00  0.00    -0.077 C 
ATOM      3  C   UNL     1       0.404  -3.272   1.802  0.00  0.00    -0.006 C 
ATOM      4  C   UNL     1      -0.355  -2.923   3.086  0.00  0.00    +0.071 C 
ATOM      5  C   UNL     1      -0.065  -1.466   3.458  0.00  0.00    -0.006 C 
ATOM      6  C   UNL     1      -0.455  -0.559   2.288  0.00  0.00    -0.077 C 
ATOM      7  H   UNL     1       1.308  -0.866   1.311  0.00  0.00    -0.081 HD
ENDROOT
BRANCH   4   8
ATOM      8  C   UNL     1       0.099  -3.828   4.202  0.00  0.00    +0.216 C 
ATOM      9  O   UNL     1       0.946  -4.670   3.993  0.00  0.00    -0.276 OA
ATOM     10  N   UNL     1      -0.436  -3.701   5.432  0.00  0.00    -0.311 N 
ATOM     11  H   UNL     1      -1.114  -3.028   5.599  0.00  0.00    +0.149 HD
BRANCH  10  12
ATOM     12  C   UNL     1       0.005  -4.581   6.517  0.00  0.00    +0.139 C 
BRANCH  12  13
ATOM     13  C   UNL     1      -0.743  -4.236   7.779  0.00  0.00    -0.030 A 
ATOM     14  C   UNL     1      -0.234  -3.287   8.646  0.00  0.00    +0.008 A 
ATOM     15  C   UNL     1      -0.918  -2.969   9.803  0.00  0.00    +0.038 A 
ATOM     16  C   UNL     1      -2.115  -3.602  10.095  0.00  0.00    +0.123 A 
ATOM     17  C   UNL     1      -2.623  -4.553   9.227  0.00  0.00    +0.038 A 
ATOM     18  C   UNL     1      -1.939  -4.865   8.067  0.00  0.00    +0.008 A 
ATOM     19  F   UNL     1      -2.785  -3.293  11.227  0.00  0.00    -0.205 F 
ENDBRANCH  12  13
ENDBRANCH  10  12
ENDBRANCH   4   8
BRANCH   1  21
ATOM     20  C   UNL     1       0.360   1.425   0.416  0.00  0.00    -0.004 C 
ATOM     21  C   UNL     1       0.002  -0.004   0.002  0.00  0.00    +0.017 C 
BRANCH  21  22
ATOM     22  C   UNL     1       0.793  -0.386  -1.223  0.00  0.00    +0.207 C 
ATOM     23  O   UNL     1       1.869  -0.931  -1.103  0.00  0.00    -0.277 OA
ATOM     24  N   UNL     1       0.304  -0.121  -2.450  0.00  0.00    -0.242 N 
ATOM     25  C   UNL     1       1.011  -0.463  -3.546  0.00  0.00    +0.306 C 
ATOM     26  O   UNL     1       2.090  -1.009  -3.426  0.00  0.00    -0.252 OA
ATOM     27  N   UNL     1       0.522  -0.198  -4.773  0.00  0.00    -0.297 N 
ATOM     28  H   UNL     1      -0.557   0.315  -2.546  0.00  0.00    +0.159 HD
ATOM     29  H   UNL     1      -0.339   0.238  -4.869  0.00  0.00    +0.151 HD
BRANCH  27  30
ATOM     30  C   UNL     1       1.291  -0.569  -5.964  0.00  0.00    +0.068 C 
ATOM     31  C   UNL     1       1.002  -2.028  -6.323  0.00  0.00    +0.027 C 
ATOM     32  C   UNL     1       0.889   0.333  -7.132  0.00  0.00    +0.027 C 
ENDBRANCH  27  30
ENDBRANCH  21  22
ENDBRANCH   1  21
TORSDOF 6
