REMARK  Name = ZINC02759422
REMARK  5 active torsions:
REMARK  status: ('A' for Active; 'I' for Inactive)
REMARK    1  A    between atoms: C_1  and  C_2
REMARK    2  A    between atoms: C_4  and  C_8
REMARK    3  A    between atoms: C_5  and  C_7
REMARK    4  A    between atoms: N_10  and  C_11
REMARK    5  A    between atoms: C_12  and  C_21
REMARK                            x       y       z     vdW  Elec       q    Type
REMARK                         _______ _______ _______ _____ _____    ______ ____
ROOT
ATOM      1  C   UNL     1       1.683   2.071  -0.003  0.00  0.00    +0.085 A 
ATOM      2  C   UNL     1       2.229   0.797  -0.015  0.00  0.00    +0.068 A 
ATOM      3  C   UNL     1       1.311  -0.334  -0.008  0.00  0.00    -0.023 A 
ATOM      4  C   UNL     1       0.002  -0.004   0.002  0.00  0.00    -0.004 A 
ATOM      5  S   UNL     1      -0.022   1.768   0.012  0.00  0.00    -0.077 S 
ATOM      6  C   UNL     1      -1.175  -0.929  -0.009  0.00  0.00    +0.043 C 
ATOM      7  C   UNL     1      -0.979  -2.011   1.062  0.00  0.00    +0.005 C 
ATOM      8  C   UNL     1      -0.236  -3.184   0.432  0.00  0.00    +0.001 C 
ATOM      9  C   UNL     1       0.736  -2.681  -0.633  0.00  0.00    +0.005 C 
ATOM     10  C   UNL     1       1.793  -1.779  -0.006  0.00  0.00    +0.037 C 
ENDROOT
BRANCH   2  11
ATOM     11  C   UNL     1       3.681   0.595  -0.034  0.00  0.00    +0.244 C 
ATOM     12  O   UNL     1       4.271   0.516  -1.095  0.00  0.00    -0.270 OA
ATOM     13  N   UNL     1       4.363   0.497   1.125  0.00  0.00    -0.325 N 
ATOM     14  H   UNL     1       3.893   0.561   1.971  0.00  0.00    +0.145 HD
ATOM     15  H   UNL     1       5.324   0.364   1.112  0.00  0.00    +0.145 HD
ENDBRANCH   2  11
BRANCH   1  18
ATOM     16  C   UNL     1       1.634   4.438   0.011  0.00  0.00    +0.252 C 
ATOM     17  O   UNL     1       0.418   4.403   0.023  0.00  0.00    -0.270 OA
ATOM     18  N   UNL     1       2.341   3.291  -0.003  0.00  0.00    -0.275 N 
ATOM     19  H   UNL     1       3.311   3.319  -0.012  0.00  0.00    +0.156 HD
BRANCH  16  23
ATOM     20  C   UNL     1       5.279   8.007  -0.005  0.00  0.00    +0.086 C 
ATOM     21  C   UNL     1       3.952   7.292   0.004  0.00  0.00    +0.103 A 
ATOM     22  C   UNL     1       3.786   5.961   0.004  0.00  0.00    +0.057 A 
ATOM     23  C   UNL     1       2.333   5.735   0.011  0.00  0.00    +0.078 A 
ATOM     24  C   UNL     1       1.769   6.977   0.024  0.00  0.00    +0.114 A 
ATOM     25  O   UNL     1       2.749   7.886   0.019  0.00  0.00    -0.464 OA
ATOM     26  C   UNL     1       0.291   7.273   0.040  0.00  0.00    +0.087 C 
ENDBRANCH  16  23
ENDBRANCH   1  18
TORSDOF 3
