REMARK  Name = ZINC40200672
REMARK  9 active torsions:
REMARK  status: ('A' for Active; 'I' for Inactive)
REMARK    1  A    between atoms: C_1  and  C_2
REMARK    2  A    between atoms: C_7  and  C_9
REMARK    3  A    between atoms: C_7  and  C_10
REMARK    4  A    between atoms: N_11  and  C_13
REMARK    5  A    between atoms: C_13  and  C_14
REMARK    6  A    between atoms: N_16  and  C_17
REMARK    7  A    between atoms: C_26  and  C_27
REMARK    8  A    between atoms: C_27  and  O_29
REMARK    9  A    between atoms: O_29  and  C_30
REMARK                            x       y       z     vdW  Elec       q    Type
REMARK                         _______ _______ _______ _____ _____    ______ ____
ROOT
ATOM      1  C   UNL     1      -3.516  -2.510  -0.172  0.00  0.00    +0.201 C 
ATOM      2  O   UNL     1      -3.823  -1.337  -0.154  0.00  0.00    -0.278 OA
ATOM      3  N   UNL     1      -4.471  -3.458  -0.112  0.00  0.00    -0.285 N 
ATOM      4  H   UNL     1      -4.233  -4.394  -0.206  0.00  0.00    +0.155 HD
ENDROOT
BRANCH   3   5
ATOM      5  C   UNL     1      -5.800  -3.096   0.085  0.00  0.00    +0.073 A 
ATOM      6  C   UNL     1      -6.480  -1.926  -0.476  0.00  0.00    +0.023 A 
ATOM      7  C   UNL     1      -6.069  -0.883  -1.312  0.00  0.00    +0.027 A 
ATOM      8  C   UNL     1      -6.958   0.091  -1.670  0.00  0.00    +0.019 A 
ATOM      9  C   UNL     1      -8.269   0.053  -1.210  0.00  0.00    +0.017 A 
ATOM     10  C   UNL     1      -8.694  -0.965  -0.386  0.00  0.00    +0.027 A 
ATOM     11  C   UNL     1      -7.806  -1.969  -0.007  0.00  0.00    +0.049 A 
ATOM     12  N   UNL     1      -7.939  -3.085   0.786  0.00  0.00    -0.348 N 
ATOM     13  H   UNL     1      -8.755  -3.353   1.237  0.00  0.00    +0.166 HD
ATOM     14  C   UNL     1      -6.735  -3.771   0.841  0.00  0.00    +0.147 A 
ATOM     15 BR   UNL     1      -6.401   1.501  -2.800  0.00  0.00    -0.050 Br
BRANCH  14  16
ATOM     16  C   UNL     1      -6.503  -4.971   1.560  0.00  0.00    +0.357 C 
ATOM     17  O   UNL     1      -5.380  -5.435   1.624  0.00  0.00    -0.243 OA
BRANCH  16  18
ATOM     18  O   UNL     1      -7.528  -5.600   2.173  0.00  0.00    -0.463 OA
ATOM     19  C   UNL     1      -7.221  -6.803   2.880  0.00  0.00    +0.280 C 
ENDBRANCH  16  18
ENDBRANCH  14  16
ENDBRANCH   3   5
BRANCH   1  20
ATOM     20  C   UNL     1      -2.065  -2.907  -0.263  0.00  0.00    +0.019 C 
BRANCH  20  30
ATOM     21  C   UNL     1       0.120   1.037   1.696  0.00  0.00    +0.009 C 
ATOM     22  C   UNL     1       0.089  -0.434   1.256  0.00  0.00    -0.048 C 
ATOM     23  C   UNL     1       0.875  -0.673  -0.062  0.00  0.00    -0.011 C 
ATOM     24  C   UNL     1       0.198  -1.995  -0.524  0.00  0.00    -0.067 C 
ATOM     25  C   UNL     1       0.703  -3.110   0.371  0.00  0.00    -0.009 C 
ATOM     26  C   UNL     1       0.785  -2.821   1.854  0.00  0.00    -0.036 C 
ATOM     27  C   UNL     1       0.693  -1.375   2.298  0.00  0.00    +0.011 C 
ATOM     28  C   UNL     1      -0.282  -3.647   2.597  0.00  0.00    +0.011 C 
ATOM     29  C   UNL     1       2.155  -3.358   2.345  0.00  0.00    +0.011 C 
ATOM     30  N   UNL     1      -1.236  -1.709  -0.316  0.00  0.00    +0.388 N 
ATOM     31  C   UNL     1      -1.341  -0.919   0.925  0.00  0.00    -0.071 C 
ATOM     32  H   UNL     1      -1.560  -1.124  -1.089  0.00  0.00    -0.081 HD
ENDBRANCH  20  30
ENDBRANCH   1  20
TORSDOF 5
