REMARK  Name = ZINC63600767
REMARK  3 active torsions:
REMARK  status: ('A' for Active; 'I' for Inactive)
REMARK    1  A    between atoms: C_4  and  C_7
REMARK    2  A    between atoms: C_15  and  N_19
REMARK    3  A    between atoms: C_20  and  C_22
REMARK                            x       y       z     vdW  Elec       q    Type
REMARK                         _______ _______ _______ _____ _____    ______ ____
ROOT
ATOM      1  C   UNL     1       3.690  -0.694   0.074  0.00  0.00    +0.250 C 
ATOM      2  O   UNL     1       4.722  -0.075  -0.096  0.00  0.00    -0.270 OA
ATOM      3  N   UNL     1       3.723  -2.036   0.202  0.00  0.00    -0.261 N 
ATOM      4  C   UNL     1       4.932  -2.708   0.140  0.00  0.00    +0.166 A 
ATOM      5  N   UNL     1       6.138  -2.219  -0.030  0.00  0.00    -0.225 NA
ATOM      6  C   UNL     1       7.240  -3.000  -0.071  0.00  0.00    +0.080 A 
ATOM      7  C   UNL     1       8.585  -2.602  -0.247  0.00  0.00    +0.031 A 
ATOM      8  C   UNL     1       9.589  -3.519  -0.266  0.00  0.00    +0.025 A 
ATOM      9  C   UNL     1       9.336  -4.880  -0.113  0.00  0.00    +0.035 A 
ATOM     10  C   UNL     1       8.027  -5.310   0.063  0.00  0.00    +0.040 A 
ATOM     11  C   UNL     1       7.012  -4.387   0.082  0.00  0.00    +0.043 A 
ATOM     12  S   UNL     1       5.248  -4.461   0.278  0.00  0.00    -0.052 S 
ATOM     13  H   UNL     1       2.899  -2.530   0.338  0.00  0.00    +0.157 HD
ENDROOT
BRANCH   1  17
ATOM     14  C   UNL     1      -0.018   1.367   0.264  0.00  0.00    +0.000 A 
ATOM     15  C   UNL     1       1.154   2.076   0.071  0.00  0.00    +0.001 A 
ATOM     16  C   UNL     1       2.362   1.412   0.008  0.00  0.00    +0.013 A 
ATOM     17  C   UNL     1       2.400   0.023   0.141  0.00  0.00    +0.037 A 
ATOM     18  C   UNL     1       1.213  -0.686   0.335  0.00  0.00    +0.013 A 
ATOM     19  C   UNL     1       0.012  -0.010   0.395  0.00  0.00    +0.001 A 
ENDBRANCH   1  17
BRANCH   9  20
ATOM     20  N   UNL     1      10.389  -5.804  -0.137  0.00  0.00    -0.283 N 
ATOM     21  C   UNL     1      10.191  -7.038  -0.642  0.00  0.00    +0.248 C 
ATOM     22  O   UNL     1       9.131  -7.318  -1.162  0.00  0.00    -0.273 OA
ATOM     23  H   UNL     1      11.260  -5.556   0.209  0.00  0.00    +0.155 HD
BRANCH  21  24
ATOM     24  C   UNL     1      11.286  -8.070  -0.560  0.00  0.00    +0.242 C 
ATOM     25  C   UNL     1      11.288  -8.738   0.785  0.00  0.00    -0.007 C 
ATOM     26  C   UNL     1      11.035 -10.043   0.520  0.00  0.00    +0.095 C 
ATOM     27  C   UNL     1      10.949 -11.014   1.640  0.00  0.00    +0.005 A 
ATOM     28  C   UNL     1      10.970 -12.384   1.420  0.00  0.00    +0.010 A 
ATOM     29  C   UNL     1      10.921 -13.248   2.497  0.00  0.00    +0.001 A 
ATOM     30  C   UNL     1      10.855 -12.743   3.784  0.00  0.00    +0.000 A 
ATOM     31  C   UNL     1      10.821 -11.379   4.003  0.00  0.00    +0.004 A 
ATOM     32  C   UNL     1      10.852 -10.501   2.936  0.00  0.00    -0.038 A 
ATOM     33  C   UNL     1      10.730  -9.022   3.179  0.00  0.00    +0.040 C 
ATOM     34  C   UNL     1      11.524  -8.201   2.162  0.00  0.00    +0.040 C 
ATOM     35  N   UNL     1      10.895 -10.225  -0.810  0.00  0.00    -0.153 NA
ATOM     36  N   UNL     1      11.020  -9.190  -1.486  0.00  0.00    -0.170 NA
ENDBRANCH  21  24
ENDBRANCH   9  20
TORSDOF 3
