REMARK  Name = ZINC00544009
REMARK  3 active torsions:
REMARK  status: ('A' for Active; 'I' for Inactive)
REMARK    1  A    between atoms: C_1  and  C_2
REMARK    2  A    between atoms: C_7  and  N_12
REMARK    3  A    between atoms: N_16  and  C_17
REMARK                            x       y       z     vdW  Elec       q    Type
REMARK                         _______ _______ _______ _____ _____    ______ ____
ROOT
ATOM      1  N   UNL     1      -2.096   4.786   0.330  0.00  0.00    -0.292 N 
ATOM      2  H   UNL     1      -1.577   5.140   1.069  0.00  0.00    +0.151 HD
ATOM      3  C   UNL     1      -2.866   5.610  -0.408  0.00  0.00    +0.304 C 
ATOM      4  O   UNL     1      -3.517   5.167  -1.335  0.00  0.00    -0.252 OA
ATOM      5  N   UNL     1      -2.913   6.926  -0.120  0.00  0.00    -0.269 N 
ATOM      6  H   UNL     1      -2.447   7.269   0.658  0.00  0.00    +0.156 HD
ENDROOT
BRANCH   1  13
ATOM      7  C   UNL     1      -3.109   3.746   3.052  0.00  0.00    +0.047 C 
ATOM      8  C   UNL     1      -2.096   2.743   2.565  0.00  0.00    -0.008 A 
ATOM      9  C   UNL     1      -1.449   1.825   3.311  0.00  0.00    +0.198 A 
ATOM     10  O   UNL     1      -0.630   1.122   2.507  0.00  0.00    -0.467 OA
ATOM     11  C   UNL     1      -0.742   1.575   1.253  0.00  0.00    +0.110 A 
ATOM     12  C   UNL     1      -1.641   2.581   1.244  0.00  0.00    +0.017 A 
ATOM     13  C   UNL     1      -2.045   3.356   0.017  0.00  0.00    +0.108 C 
ATOM     14  C   UNL     1      -1.001   3.104  -1.079  0.00  0.00    +0.028 C 
ATOM     15  C   UNL     1      -0.759   1.599  -1.216  0.00  0.00    +0.010 C 
ATOM     16  C   UNL     1      -0.017   1.084   0.024  0.00  0.00    +0.075 C 
ENDBRANCH   1  13
BRANCH   5  17
ATOM     17  C   UNL     1      -3.635   7.798  -0.945  0.00  0.00    +0.035 A 
ATOM     18  C   UNL     1      -3.179   9.092  -1.156  0.00  0.00    +0.025 A 
ATOM     19  C   UNL     1      -3.890   9.948  -1.974  0.00  0.00    +0.022 A 
ATOM     20  C   UNL     1      -5.062   9.521  -2.573  0.00  0.00    +0.041 A 
ATOM     21  C   UNL     1      -5.521   8.233  -2.360  0.00  0.00    +0.022 A 
ATOM     22  C   UNL     1      -4.811   7.371  -1.547  0.00  0.00    +0.025 A 
ATOM     23 CL   UNL     1      -5.957  10.602  -3.595  0.00  0.00    -0.084 Cl
ENDBRANCH   5  17
TORSDOF 2
