REMARK  Name = ZINC63234524
REMARK  8 active torsions:
REMARK  status: ('A' for Active; 'I' for Inactive)
REMARK    1  A    between atoms: C_7  and  C_10
REMARK    2  A    between atoms: C_10  and  C_11
REMARK    3  A    between atoms: C_11  and  C_13
REMARK    4  A    between atoms: C_11  and  N_27
REMARK    5  A    between atoms: N_15  and  C_16
REMARK    6  A    between atoms: C_16  and  C_17
REMARK    7  A    between atoms: C_21  and  C_23
REMARK    8  A    between atoms: C_28  and  C_30
REMARK                            x       y       z     vdW  Elec       q    Type
REMARK                         _______ _______ _______ _____ _____    ______ ____
ROOT
ATOM      1  C   UNL     1       0.457  -3.653  -1.462  0.00  0.00    +0.163 C 
ENDROOT
BRANCH   1   2
ATOM      2  C   UNL     1      -0.578  -4.750  -1.471  0.00  0.00    +0.234 C 
ATOM      3  O   UNL     1      -0.231  -5.909  -1.548  0.00  0.00    -0.274 OA
ATOM      4  N   UNL     1      -1.887  -4.441  -1.394  0.00  0.00    -0.310 N 
ATOM      5  H   UNL     1      -2.164  -3.513  -1.333  0.00  0.00    +0.149 HD
BRANCH   4   6
ATOM      6  C   UNL     1      -2.893  -5.507  -1.403  0.00  0.00    +0.139 C 
BRANCH   6   7
ATOM      7  C   UNL     1      -4.269  -4.900  -1.308  0.00  0.00    -0.030 A 
ATOM      8  C   UNL     1      -4.842  -4.679  -0.069  0.00  0.00    +0.005 A 
ATOM      9  C   UNL     1      -6.104  -4.122   0.019  0.00  0.00    +0.001 A 
ATOM     10  C   UNL     1      -6.793  -3.786  -1.132  0.00  0.00    +0.012 A 
ATOM     11  C   UNL     1      -6.220  -4.006  -2.370  0.00  0.00    +0.055 A 
ATOM     12  C   UNL     1      -4.955  -4.559  -2.458  0.00  0.00    +0.017 A 
BRANCH  11  13
ATOM     13  C   UNL     1      -6.971  -3.640  -3.624  0.00  0.00    +0.417 C 
ATOM     14  F   UNL     1      -8.215  -3.099  -3.281  0.00  0.00    -0.166 F 
ATOM     15  F   UNL     1      -6.236  -2.696  -4.349  0.00  0.00    -0.166 F 
ATOM     16  F   UNL     1      -7.159  -4.784  -4.406  0.00  0.00    -0.166 F 
ENDBRANCH  11  13
ENDBRANCH   6   7
ENDBRANCH   4   6
ENDBRANCH   1   2
BRANCH   1  17
ATOM     17  N   UNL     1       1.712  -4.162  -2.020  0.00  0.00    -0.299 N 
ATOM     18  C   UNL     1       2.336  -5.203  -1.437  0.00  0.00    +0.251 C 
ATOM     19  O   UNL     1       1.857  -5.722  -0.445  0.00  0.00    -0.270 OA
ATOM     20  H   UNL     1       2.094  -3.748  -2.811  0.00  0.00    +0.150 HD
BRANCH  18  21
ATOM     21  C   UNL     1       3.592  -5.712  -1.996  0.00  0.00    +0.074 A 
ATOM     22  C   UNL     1       4.382  -6.764  -1.557  0.00  0.00    +0.021 A 
ATOM     23  C   UNL     1       5.516  -7.007  -2.294  0.00  0.00    +0.008 A 
ATOM     24  C   UNL     1       5.782  -6.227  -3.370  0.00  0.00    +0.046 A 
ATOM     25  S   UNL     1       4.499  -5.144  -3.421  0.00  0.00    -0.092 S 
ENDBRANCH  18  21
ENDBRANCH   1  17
BRANCH   1  26
ATOM     26  C   UNL     1       0.691  -3.186  -0.024  0.00  0.00    +0.065 C 
BRANCH  26  33
ATOM     27  C   UNL     1      -0.016   1.348   0.009  0.00  0.00    +0.001 A 
ATOM     28  C   UNL     1       1.166   2.101   0.002  0.00  0.00    +0.002 A 
ATOM     29  C   UNL     1       2.391   1.535  -0.013  0.00  0.00    +0.026 A 
ATOM     30  C   UNL     1       2.529   0.120  -0.022  0.00  0.00    +0.043 A 
ATOM     31  N   UNL     1       3.587  -0.654  -0.037  0.00  0.00    -0.380 N 
ATOM     32  C   UNL     1       3.143  -2.053  -0.041  0.00  0.00    +0.144 C 
ATOM     33  C   UNL     1       1.631  -2.008  -0.025  0.00  0.00    -0.039 C 
ATOM     34  C   UNL     1       1.295  -0.698  -0.014  0.00  0.00    -0.001 A 
ATOM     35  C   UNL     1       0.002  -0.004   0.002  0.00  0.00    +0.010 A 
ATOM     36  H   UNL     1       4.509  -0.353  -0.045  0.00  0.00    +0.160 HD
ENDBRANCH  26  33
ENDBRANCH   1  26
TORSDOF 8
