REMARK  Name = ZINC11881114
REMARK  10 active torsions:
REMARK  status: ('A' for Active; 'I' for Inactive)
REMARK    1  A    between atoms: C_1  and  C_2
REMARK    2  A    between atoms: C_5  and  C_9
REMARK    3  A    between atoms: C_6  and  C_8
REMARK    4  A    between atoms: N_11  and  C_12
REMARK    5  A    between atoms: C_15  and  N_18
REMARK    6  A    between atoms: C_21  and  N_64
REMARK    7  A    between atoms: C_24  and  C_26
REMARK    8  A    between atoms: C_24  and  C_27
REMARK    9  A    between atoms: C_24  and  N_64
REMARK   10  A    between atoms: C_27  and  C_28
REMARK                            x       y       z     vdW  Elec       q    Type
REMARK                         _______ _______ _______ _____ _____    ______ ____
ROOT
ATOM      1  C   UNL     1       0.592  -3.479   1.466  0.00  0.00    +0.034 A 
ATOM      2  C   UNL     1       1.201  -2.563   2.314  0.00  0.00    +0.025 A 
ATOM      3  C   UNL     1       1.282  -1.234   1.951  0.00  0.00    +0.025 A 
ATOM      4  C   UNL     1       0.754  -0.812   0.737  0.00  0.00    +0.030 A 
ATOM      5  C   UNL     1       0.140  -1.727  -0.108  0.00  0.00    +0.025 A 
ATOM      6  C   UNL     1       0.064  -3.058   0.253  0.00  0.00    +0.025 A 
ENDROOT
BRANCH   4   7
ATOM      7  N   UNL     1       0.835   0.535   0.369  0.00  0.00    -0.330 N 
ATOM      8  C   UNL     1       0.218   0.760  -0.945  0.00  0.00    +0.103 C 
ATOM      9  C   UNL     1       0.195   2.259  -1.249  0.00  0.00    +0.003 C 
ATOM     10  C   UNL     1       1.628   2.799  -1.238  0.00  0.00    -0.069 C 
ATOM     11  C   UNL     1       2.264   2.509   0.124  0.00  0.00    +0.003 C 
ATOM     12  C   UNL     1       2.227   1.002   0.388  0.00  0.00    +0.103 C 
BRANCH  10  13
ATOM     13  N   UNL     1       1.601   4.256  -1.468  0.00  0.00    +0.383 N 
ATOM     14  H   UNL     1       1.684   4.743  -0.568  0.00  0.00    -0.085 HD
ATOM     15  H   UNL     1       0.712   4.512  -1.914  0.00  0.00    -0.085 HD
BRANCH  13  16
ATOM     16  C   UNL     1       2.718   4.658  -2.343  0.00  0.00    -0.070 C 
ATOM     17  C   UNL     1       3.961   4.928  -1.493  0.00  0.00    -0.013 C 
BRANCH  16  18
ATOM     18  C   UNL     1       2.331   5.930  -3.100  0.00  0.00    +0.019 C 
BRANCH  18  19
ATOM     19  C   UNL     1       1.183   5.632  -4.030  0.00  0.00    -0.042 A 
ATOM     20  C   UNL     1      -0.123   5.772  -3.599  0.00  0.00    +0.011 A 
ATOM     21  C   UNL     1      -1.132   5.496  -4.461  0.00  0.00    +0.045 A 
ATOM     22  S   UNL     1      -0.241   5.021  -5.934  0.00  0.00    -0.105 S 
ATOM     23  C   UNL     1       1.416   5.228  -5.303  0.00  0.00    +0.048 A 
ENDBRANCH  18  19
ENDBRANCH  16  18
ENDBRANCH  13  16
ENDBRANCH  10  13
ENDBRANCH   4   7
BRANCH   1  26
ATOM     24  C   UNL     1       0.676  -5.791   0.908  0.00  0.00    +0.249 C 
ATOM     25  O   UNL     1       0.980  -5.493  -0.231  0.00  0.00    -0.270 OA
ATOM     26  N   UNL     1       0.510  -4.828   1.835  0.00  0.00    -0.281 N 
ATOM     27  H   UNL     1       0.333  -5.068   2.758  0.00  0.00    +0.155 HD
BRANCH  24  32
ATOM     28  C   UNL     1      -0.050 -11.318   2.338  0.00  0.00    +0.044 C 
ATOM     29  C   UNL     1       0.140  -9.870   1.964  0.00  0.00    -0.050 A 
ATOM     30  C   UNL     1       0.092  -8.893   2.943  0.00  0.00    +0.004 A 
ATOM     31  C   UNL     1       0.266  -7.567   2.607  0.00  0.00    +0.013 A 
ATOM     32  C   UNL     1       0.490  -7.211   1.276  0.00  0.00    +0.040 A 
ATOM     33  C   UNL     1       0.531  -8.201   0.292  0.00  0.00    -0.038 A 
ATOM     34  C   UNL     1       0.361  -9.524   0.643  0.00  0.00    +0.007 A 
ATOM     35  C   UNL     1       0.767  -7.825  -1.148  0.00  0.00    +0.044 C 
ENDBRANCH  24  32
ENDBRANCH   1  26
TORSDOF 7
