REMARK  Name = ZINC15133785
REMARK  8 active torsions:
REMARK  status: ('A' for Active; 'I' for Inactive)
REMARK    1  A    between atoms: C_1  and  C_2
REMARK    2  A    between atoms: C_2  and  C_3
REMARK    3  A    between atoms: C_3  and  N_4
REMARK    4  A    between atoms: C_5  and  C_7
REMARK    5  A    between atoms: N_9  and  N_10
REMARK    6  A    between atoms: C_11  and  C_12
REMARK    7  A    between atoms: N_32  and  C_35
REMARK    8  A    between atoms: C_38  and  C_41
REMARK                            x       y       z     vdW  Elec       q    Type
REMARK                         _______ _______ _______ _____ _____    ______ ____
ROOT
ATOM      1  C   UNL     1      -1.232  -0.357  -0.174  0.00  0.00    +0.070 C 
ATOM      2  C   UNL     1       0.003   0.510  -0.357  0.00  0.00    -0.027 A 
ATOM      3  C   UNL     1       1.240   0.045  -0.700  0.00  0.00    +0.005 A 
ATOM      4  C   UNL     1       2.284   0.952  -0.834  0.00  0.00    +0.000 A 
ATOM      5  C   UNL     1       2.070   2.301  -0.623  0.00  0.00    +0.000 A 
ATOM      6  C   UNL     1       0.808   2.768  -0.275  0.00  0.00    +0.004 A 
ATOM      7  C   UNL     1      -0.213   1.871  -0.145  0.00  0.00    -0.035 A 
ATOM      8  C   UNL     1      -1.643   2.230   0.224  0.00  0.00    +0.062 C 
ATOM      9  C   UNL     1      -2.507   1.619  -0.861  0.00  0.00    -0.035 A 
ATOM     10  C   UNL     1      -2.292   0.259  -1.073  0.00  0.00    -0.027 A 
ATOM     11  C   UNL     1      -3.000  -0.420  -2.023  0.00  0.00    +0.005 A 
ATOM     12  C   UNL     1      -3.943   0.269  -2.776  0.00  0.00    +0.000 A 
ATOM     13  C   UNL     1      -4.157   1.618  -2.564  0.00  0.00    +0.000 A 
ATOM     14  C   UNL     1      -3.432   2.303  -1.597  0.00  0.00    +0.004 A 
ATOM     15  C   UNL     1      -1.958   1.412   1.496  0.00  0.00    +0.101 C 
ATOM     16  C   UNL     1      -1.698  -0.108   1.277  0.00  0.00    +0.109 C 
ATOM     17  C   UNL     1      -0.599  -0.427   2.221  0.00  0.00    +0.232 C 
ATOM     18  O   UNL     1      -0.097  -1.522   2.359  0.00  0.00    -0.274 OA
ATOM     19  N   UNL     1      -0.248   0.677   2.892  0.00  0.00    -0.210 N 
ATOM     20  C   UNL     1      -0.948   1.771   2.564  0.00  0.00    +0.231 C 
ATOM     21  O   UNL     1      -0.795   2.873   3.046  0.00  0.00    -0.274 OA
ENDROOT
BRANCH  19  22
ATOM     22  C   UNL     1       0.767   0.687   3.859  0.00  0.00    +0.044 A 
ATOM     23  C   UNL     1       0.599  -0.005   5.051  0.00  0.00    +0.024 A 
ATOM     24  C   UNL     1       1.603   0.002   6.000  0.00  0.00    +0.005 A 
ATOM     25  C   UNL     1       2.770   0.707   5.768  0.00  0.00    -0.050 A 
ATOM     26  C   UNL     1       2.938   1.402   4.584  0.00  0.00    +0.005 A 
ATOM     27  C   UNL     1       1.939   1.394   3.630  0.00  0.00    +0.024 A 
ATOM     28  C   UNL     1       3.860   0.719   6.808  0.00  0.00    +0.044 C 
ENDBRANCH  19  22
BRANCH   1  30
ATOM     29  N   UNL     1      -1.276  -2.705   0.398  0.00  0.00    -0.191 NA
ATOM     30  C   UNL     1      -0.980  -1.813  -0.471  0.00  0.00    +0.120 C 
BRANCH  29  33
ATOM     31  C   UNL     1      -1.354  -4.996   1.038  0.00  0.00    +0.318 C 
ATOM     32  O   UNL     1      -1.839  -4.669   2.102  0.00  0.00    -0.263 OA
ATOM     33  N   UNL     1      -1.042  -4.058   0.122  0.00  0.00    -0.199 N 
ATOM     34  H   UNL     1      -0.655  -4.319  -0.728  0.00  0.00    +0.178 HD
BRANCH  31  36
ATOM     35  N   UNL     1      -1.417  -7.377   1.659  0.00  0.00    -0.308 N 
ATOM     36  C   UNL     1      -1.105  -6.439   0.744  0.00  0.00    +0.301 C 
ATOM     37  O   UNL     1      -0.620  -6.766  -0.320  0.00  0.00    -0.265 OA
ATOM     38  H   UNL     1      -1.804  -7.115   2.509  0.00  0.00    +0.149 HD
BRANCH  35  39
ATOM     39  C   UNL     1      -1.172  -8.792   1.370  0.00  0.00    +0.104 C 
BRANCH  39  41
ATOM     40  C   UNL     1      -1.356 -11.118   2.264  0.00  0.00    +0.005 C 
ATOM     41  C   UNL     1      -1.612  -9.640   2.566  0.00  0.00    +0.015 C 
ENDBRANCH  39  41
ENDBRANCH  35  39
ENDBRANCH  31  36
ENDBRANCH  29  33
ENDBRANCH   1  30
TORSDOF 6
