REMARK  Name = ZINC40329584
REMARK  6 active torsions:
REMARK  status: ('A' for Active; 'I' for Inactive)
REMARK    1  A    between atoms: C_4  and  N_20
REMARK    2  A    between atoms: C_6  and  S_7
REMARK    3  A    between atoms: S_7  and  N_10
REMARK    4  A    between atoms: N_10  and  C_11
REMARK    5  A    between atoms: N_10  and  C_15
REMARK    6  A    between atoms: C_11  and  C_12
REMARK                            x       y       z     vdW  Elec       q    Type
REMARK                         _______ _______ _______ _____ _____    ______ ____
ROOT
ATOM      1  S   UNL     1      -1.603  -0.366  -0.374  0.00  0.00    +0.062 S 
ATOM      2  O   UNL     1      -1.220  -1.415   0.505  0.00  0.00    -0.153 OA
ATOM      3  O   UNL     1      -2.589   0.597  -0.028  0.00  0.00    -0.153 OA
ENDROOT
BRANCH   1   9
ATOM      4  C   UNL     1      -0.220   1.850  -1.164  0.00  0.00    +0.031 A 
ATOM      5  C   UNL     1       0.929   2.558  -1.466  0.00  0.00    +0.042 A 
ATOM      6  C   UNL     1       2.166   1.949  -1.363  0.00  0.00    +0.144 A 
ATOM      7  C   UNL     1       2.252   0.622  -0.954  0.00  0.00    +0.062 A 
ATOM      8  C   UNL     1       1.097  -0.085  -0.652  0.00  0.00    +0.054 A 
ATOM      9  C   UNL     1      -0.136   0.531  -0.758  0.00  0.00    +0.107 A 
ATOM     10  F   UNL     1       3.288   2.640  -1.658  0.00  0.00    -0.204 F 
BRANCH   7  11
ATOM     11  N   UNL     1       3.501   0.001  -0.848  0.00  0.00    -0.356 N 
ATOM     12  H   UNL     1       4.308   0.496  -1.060  0.00  0.00    +0.142 HD
ATOM     13  H   UNL     1       3.560  -0.924  -0.563  0.00  0.00    +0.142 HD
ENDBRANCH   7  11
ENDBRANCH   1   9
BRANCH   1  14
ATOM     14  N   UNL     1      -2.117  -1.086  -1.774  0.00  0.00    -0.165 NA
BRANCH  14  15
ATOM     15  C   UNL     1      -3.041  -0.381  -2.665  0.00  0.00    +0.080 C 
ATOM     16  C   UNL     1      -4.247  -1.283  -2.998  0.00  0.00    +0.020 C 
ATOM     17  C   UNL     1      -4.563  -0.963  -4.480  0.00  0.00    +0.002 C 
ATOM     18  C   UNL     1      -3.155  -0.785  -5.100  0.00  0.00    +0.002 C 
ATOM     19  C   UNL     1      -2.347  -0.064  -4.001  0.00  0.00    +0.020 C 
ENDBRANCH  14  15
BRANCH  14  20
ATOM     20  C   UNL     1      -1.646  -2.429  -2.122  0.00  0.00    +0.205 C 
BRANCH  20  21
ATOM     21  C   UNL     1      -2.618  -3.454  -1.596  0.00  0.00    +0.226 C 
ATOM     22  O   UNL     1      -3.546  -3.107  -0.896  0.00  0.00    -0.275 OA
ATOM     23  N   UNL     1      -2.457  -4.756  -1.904  0.00  0.00    -0.328 N 
ATOM     24  H   UNL     1      -1.715  -5.034  -2.463  0.00  0.00    +0.145 HD
ATOM     25  H   UNL     1      -3.082  -5.416  -1.565  0.00  0.00    +0.145 HD
ENDBRANCH  20  21
ENDBRANCH  14  20
ENDBRANCH   1  14
TORSDOF 6
