REMARK  Name = ZINC14329256
REMARK  7 active torsions:
REMARK  status: ('A' for Active; 'I' for Inactive)
REMARK    1  A    between atoms: C_1  and  C_2
REMARK    2  A    between atoms: C_5  and  N_9
REMARK    3  A    between atoms: C_10  and  C_12
REMARK    4  A    between atoms: C_12  and  C_14
REMARK    5  A    between atoms: C_12  and  N_58
REMARK    6  A    between atoms: C_17  and  C_20
REMARK    7  A    between atoms: C_20  and  C_22
REMARK                            x       y       z     vdW  Elec       q    Type
REMARK                         _______ _______ _______ _____ _____    ______ ____
ROOT
ATOM      1  C   UNL     1      -7.402  -0.152  -0.507  0.00  0.00    -0.077 C 
ATOM      2  C   UNL     1      -6.058  -0.882  -0.579  0.00  0.00    -0.007 C 
ATOM      3  C   UNL     1      -4.970   0.001   0.040  0.00  0.00    +0.057 C 
ATOM      4  C   UNL     1      -5.355   0.333   1.484  0.00  0.00    -0.007 C 
ATOM      5  C   UNL     1      -6.719   1.027   1.496  0.00  0.00    -0.077 C 
ATOM      6  N   UNL     1      -7.726   0.117   0.910  0.00  0.00    +0.387 N 
ATOM      7  H   UNL     1      -7.716  -0.769   1.428  0.00  0.00    -0.081 HD
ENDROOT
BRANCH   6   8
ATOM      8  C   UNL     1      -9.071   0.718   1.014  0.00  0.00    +0.016 C 
ATOM      9  C   UNL     1      -9.108   2.078   0.314  0.00  0.00    -0.004 C 
BRANCH   8  11
ATOM     10  N   UNL     1     -10.609   1.409   2.824  0.00  0.00    -0.286 N 
ATOM     11  C   UNL     1      -9.415   0.894   2.471  0.00  0.00    +0.203 C 
ATOM     12  O   UNL     1      -8.617   0.571   3.325  0.00  0.00    -0.277 OA
ATOM     13  H   UNL     1     -11.221   1.728   2.142  0.00  0.00    +0.155 HD
BRANCH  10  18
ATOM     14  C   UNL     1     -12.057   1.717   8.301  0.00  0.00    +0.044 C 
ATOM     15  C   UNL     1     -11.673   1.635   6.846  0.00  0.00    -0.049 A 
ATOM     16  C   UNL     1     -10.355   1.814   6.470  0.00  0.00    +0.005 A 
ATOM     17  C   UNL     1      -9.999   1.740   5.138  0.00  0.00    +0.024 A 
ATOM     18  C   UNL     1     -10.967   1.485   4.175  0.00  0.00    +0.047 A 
ATOM     19  C   UNL     1     -12.291   1.311   4.556  0.00  0.00    +0.039 A 
ATOM     20  C   UNL     1     -12.640   1.381   5.891  0.00  0.00    +0.020 A 
ATOM     21 BR   UNL     1     -13.615   0.971   3.248  0.00  0.00    -0.048 Br
ENDBRANCH  10  18
ENDBRANCH   8  11
ENDBRANCH   6   8
BRANCH   3  22
ATOM     22  C   UNL     1      -3.656  -0.736   0.026  0.00  0.00    +0.166 C 
ATOM     23  O   UNL     1      -3.641  -1.949   0.009  0.00  0.00    -0.292 OA
BRANCH  22  24
ATOM     24  C   UNL     1      -2.393   0.014   0.033  0.00  0.00    +0.021 A 
ATOM     25  C   UNL     1      -2.408   1.414   0.052  0.00  0.00    +0.015 A 
ATOM     26  C   UNL     1      -1.223   2.113   0.053  0.00  0.00    +0.050 A 
ATOM     27  C   UNL     1      -0.008   1.435   0.043  0.00  0.00    +0.162 A 
ATOM     28  C   UNL     1       0.015   0.042   0.026  0.00  0.00    +0.163 A 
ATOM     29  C   UNL     1      -1.171  -0.668   0.021  0.00  0.00    +0.060 A 
ATOM     30  O   UNL     1       1.196  -0.635   0.017  0.00  0.00    -0.485 OA
ATOM     31  C   UNL     1       2.361   0.110  -0.354  0.00  0.00    +0.270 C 
ATOM     32  C   UNL     1       2.341   1.442   0.407  0.00  0.00    +0.270 C 
ATOM     33  O   UNL     1       1.149   2.148   0.044  0.00  0.00    -0.485 OA
ENDBRANCH  22  24
ENDBRANCH   3  22
TORSDOF 5
