REMARK  Name = ZINC35593878
REMARK  6 active torsions:
REMARK  status: ('A' for Active; 'I' for Inactive)
REMARK    1  A    between atoms: C_5  and  N_7
REMARK    2  A    between atoms: C_10  and  C_13
REMARK    3  A    between atoms: C_19  and  C_22
REMARK    4  A    between atoms: N_24  and  C_25
REMARK    5  A    between atoms: C_25  and  C_26
REMARK    6  A    between atoms: C_30  and  C_32
REMARK                            x       y       z     vdW  Elec       q    Type
REMARK                         _______ _______ _______ _____ _____    ______ ____
ROOT
ATOM      1  C   UNL     1      -1.536  -6.070   0.417  0.00  0.00    +0.266 C 
ATOM      2  O   UNL     1      -2.657  -6.533   0.506  0.00  0.00    -0.268 OA
ATOM      3  N   UNL     1      -0.463  -6.878   0.527  0.00  0.00    -0.296 N 
ATOM      4  C   UNL     1       0.898  -6.334   0.425  0.00  0.00    +0.108 C 
ATOM      5  C   UNL     1       1.694  -6.764   1.661  0.00  0.00    +0.020 C 
ATOM      6  C   UNL     1       1.635  -8.287   1.797  0.00  0.00    +0.016 C 
ATOM      7  C   UNL     1       0.182  -8.728   1.981  0.00  0.00    +0.092 C 
ATOM      8  C   UNL     1      -0.632  -8.320   0.755  0.00  0.00    +0.120 C 
ENDROOT
BRANCH   1  12
ATOM      9  N   UNL     1       1.048  -2.226  -1.116  0.00  0.00    -0.291 N 
ATOM     10  C   UNL     1      -0.043  -2.878  -0.565  0.00  0.00    +0.163 A 
ATOM     11  N   UNL     1      -0.224  -4.167  -0.356  0.00  0.00    -0.220 NA
ATOM     12  C   UNL     1      -1.350  -4.628   0.192  0.00  0.00    +0.135 A 
ATOM     13  C   UNL     1      -2.334  -3.736   0.541  0.00  0.00    +0.081 A 
ATOM     14  S   UNL     1      -1.573  -2.193   0.055  0.00  0.00    -0.060 S 
ATOM     15  H   UNL     1       1.763  -2.738  -1.524  0.00  0.00    +0.154 HD
BRANCH   9  20
ATOM     16  C   UNL     1       0.496   1.258  -0.078  0.00  0.00    +0.002 A 
ATOM     17  C   UNL     1       1.255   1.935  -1.015  0.00  0.00    +0.003 A 
ATOM     18  C   UNL     1       1.947   1.234  -1.986  0.00  0.00    +0.040 A 
ATOM     19  C   UNL     1       1.881  -0.146  -2.023  0.00  0.00    +0.144 A 
ATOM     20  C   UNL     1       1.118  -0.829  -1.082  0.00  0.00    +0.068 A 
ATOM     21  C   UNL     1       0.425  -0.121  -0.109  0.00  0.00    +0.026 A 
ATOM     22  F   UNL     1       2.556  -0.831  -2.972  0.00  0.00    -0.204 F 
ENDBRANCH   9  20
ENDBRANCH   1  12
BRANCH   7  23
ATOM     23  C   UNL     1       0.128 -10.225   2.148  0.00  0.00    +0.218 C 
ATOM     24  O   UNL     1       1.151 -10.875   2.122  0.00  0.00    -0.275 OA
ATOM     25  N   UNL     1      -1.058 -10.841   2.326  0.00  0.00    -0.311 N 
ATOM     26  H   UNL     1      -1.876 -10.321   2.347  0.00  0.00    +0.149 HD
BRANCH  25  27
ATOM     27  C   UNL     1      -1.110 -12.296   2.488  0.00  0.00    +0.139 C 
BRANCH  27  28
ATOM     28  C   UNL     1      -2.541 -12.730   2.669  0.00  0.00    -0.030 A 
ATOM     29  C   UNL     1      -3.088 -12.796   3.937  0.00  0.00    +0.005 A 
ATOM     30  C   UNL     1      -4.401 -13.194   4.104  0.00  0.00    +0.001 A 
ATOM     31  C   UNL     1      -5.168 -13.526   3.002  0.00  0.00    +0.012 A 
ATOM     32  C   UNL     1      -4.622 -13.460   1.734  0.00  0.00    +0.055 A 
ATOM     33  C   UNL     1      -3.309 -13.057   1.567  0.00  0.00    +0.017 A 
BRANCH  32  34
ATOM     34  C   UNL     1      -5.457 -13.822   0.534  0.00  0.00    +0.417 C 
ATOM     35  F   UNL     1      -6.740 -14.191   0.952  0.00  0.00    -0.166 F 
ATOM     36  F   UNL     1      -5.545 -12.720  -0.323  0.00  0.00    -0.166 F 
ATOM     37  F   UNL     1      -4.862 -14.892  -0.143  0.00  0.00    -0.166 F 
ENDBRANCH  32  34
ENDBRANCH  27  28
ENDBRANCH  25  27
ENDBRANCH   7  23
TORSDOF 6
