REMARK  Name = ZINC66135911
REMARK  8 active torsions:
REMARK  status: ('A' for Active; 'I' for Inactive)
REMARK    1  A    between atoms: C_1  and  C_2
REMARK    2  A    between atoms: C_3  and  C_19
REMARK    3  A    between atoms: C_4  and  C_9
REMARK    4  A    between atoms: C_12  and  C_15
REMARK    5  A    between atoms: C_15  and  C_16
REMARK    6  A    between atoms: C_15  and  C_17
REMARK    7  A    between atoms: C_15  and  C_18
REMARK    8  A    between atoms: N_21  and  C_22
REMARK                            x       y       z     vdW  Elec       q    Type
REMARK                         _______ _______ _______ _____ _____    ______ ____
ROOT
ATOM      1  C   UNL     1      -0.018   1.503   0.010  0.00  0.00    +0.066 C 
ATOM      2  C   UNL     1       0.002  -0.004   0.002  0.00  0.00    +0.056 A 
ATOM      3  C   UNL     1       0.006  -0.707  -1.209  0.00  0.00    +0.084 A 
ATOM      4  C   UNL     1       0.025  -2.118  -1.160  0.00  0.00    +0.088 A 
ATOM      5  N   UNL     1       0.039  -2.717   0.027  0.00  0.00    -0.214 NA
ATOM      6  C   UNL     1       0.035  -2.006   1.145  0.00  0.00    +0.213 A 
ATOM      7  N   UNL     1       0.022  -0.679   1.136  0.00  0.00    -0.219 NA
ATOM      8  N   UNL     1       0.049  -2.667   2.356  0.00  0.00    -0.327 N 
ATOM      9  H   UNL     1       0.062  -3.636   2.380  0.00  0.00    +0.145 HD
ATOM     10  H   UNL     1       0.046  -2.161   3.184  0.00  0.00    +0.145 HD
ENDROOT
BRANCH   4  11
ATOM     11  C   UNL     1       0.030  -2.916  -2.407  0.00  0.00    +0.001 A 
ATOM     12  C   UNL     1      -0.669  -2.467  -3.528  0.00  0.00    +0.010 A 
ATOM     13  C   UNL     1      -0.661  -3.215  -4.688  0.00  0.00    +0.005 A 
ATOM     14  C   UNL     1       0.038  -4.407  -4.740  0.00  0.00    -0.042 A 
ATOM     15  C   UNL     1       0.733  -4.858  -3.632  0.00  0.00    +0.005 A 
ATOM     16  C   UNL     1       0.738  -4.116  -2.469  0.00  0.00    +0.010 A 
BRANCH  14  17
ATOM     17  C   UNL     1       0.042  -5.220  -6.009  0.00  0.00    -0.013 C 
ATOM     18  C   UNL     1       0.641  -4.388  -7.145  0.00  0.00    +0.015 C 
ATOM     19  C   UNL     1       0.882  -6.482  -5.804  0.00  0.00    +0.015 C 
ATOM     20  C   UNL     1      -1.392  -5.614  -6.367  0.00  0.00    +0.015 C 
ENDBRANCH  14  17
ENDBRANCH   4  11
BRANCH   3  21
ATOM     21  C   UNL     1      -0.010   0.006  -2.498  0.00  0.00    +0.248 C 
ATOM     22  O   UNL     1       1.036   0.315  -3.035  0.00  0.00    -0.270 OA
ATOM     23  N   UNL     1      -1.185   0.316  -3.082  0.00  0.00    -0.314 N 
ATOM     24  C   UNL     1      -1.201   1.024  -4.364  0.00  0.00    +0.128 C 
ATOM     25  H   UNL     1      -2.019   0.069  -2.654  0.00  0.00    +0.149 HD
ENDBRANCH   3  21
TORSDOF 3
