REMARK  Name = ZINC64661442
REMARK  8 active torsions:
REMARK  status: ('A' for Active; 'I' for Inactive)
REMARK    1  A    between atoms: C_7  and  C_10
REMARK    2  A    between atoms: C_10  and  C_11
REMARK    3  A    between atoms: C_11  and  N_12
REMARK    4  A    between atoms: C_13  and  C_15
REMARK    5  A    between atoms: C_19  and  S_22
REMARK    6  A    between atoms: S_22  and  C_23
REMARK    7  A    between atoms: C_23  and  C_24
REMARK    8  A    between atoms: C_24  and  C_26
REMARK                            x       y       z     vdW  Elec       q    Type
REMARK                         _______ _______ _______ _____ _____    ______ ____
ROOT
ATOM      1  N   UNL     1      -0.320  -4.904  -1.466  0.00  0.00    -0.311 N 
ATOM      2  C   UNL     1      -0.850  -5.350  -2.622  0.00  0.00    +0.238 C 
ATOM      3  O   UNL     1      -0.602  -4.776  -3.667  0.00  0.00    -0.271 OA
ATOM      4  H   UNL     1      -0.518  -5.361  -0.634  0.00  0.00    +0.149 HD
ENDROOT
BRANCH   2   5
ATOM      5  C   UNL     1      -1.694  -6.485  -2.622  0.00  0.00    +0.086 C 
ATOM      6  C   UNL     1      -2.126  -7.005  -3.789  0.00  0.00    +0.020 C 
ATOM      7  C   UNL     1      -3.163  -8.120  -3.849  0.00  0.00    +0.122 C 
ATOM      8  S   UNL     1      -3.922  -7.751  -5.491  0.00  0.00    -0.122 S 
ATOM      9  C   UNL     1      -2.510  -6.787  -6.177  0.00  0.00    +0.188 C 
ATOM     10  N   UNL     1      -1.675  -6.568  -4.983  0.00  0.00    -0.326 N 
ATOM     11  H   UNL     1      -0.817  -6.121  -5.055  0.00  0.00    +0.148 HD
BRANCH   9  12
ATOM     12  S   UNL     1      -3.079  -5.209  -6.867  0.00  0.00    -0.120 S 
BRANCH  12  13
ATOM     13  C   UNL     1      -3.879  -4.381  -5.465  0.00  0.00    +0.151 C 
BRANCH  13  14
ATOM     14  C   UNL     1      -4.404  -3.039  -5.907  0.00  0.00    +0.179 C 
ATOM     15  O   UNL     1      -4.253  -2.677  -7.056  0.00  0.00    -0.291 OA
BRANCH  14  16
ATOM     16  C   UNL     1      -5.072  -2.203  -4.985  0.00  0.00    +0.055 A 
ATOM     17  C   UNL     1      -5.631  -0.945  -5.187  0.00  0.00    +0.019 A 
ATOM     18  C   UNL     1      -6.219  -0.373  -4.088  0.00  0.00    +0.008 A 
ATOM     19  C   UNL     1      -6.218  -1.049  -2.910  0.00  0.00    +0.046 A 
ATOM     20  S   UNL     1      -5.424  -2.488  -3.261  0.00  0.00    -0.094 S 
ENDBRANCH  14  16
ENDBRANCH  13  14
ENDBRANCH  12  13
ENDBRANCH   9  12
ENDBRANCH   2   5
BRANCH   1  21
ATOM     21  C   UNL     1       0.554  -3.728  -1.466  0.00  0.00    +0.109 C 
BRANCH  21  22
ATOM     22  C   UNL     1       1.016  -3.435  -0.038  0.00  0.00    +0.052 C 
BRANCH  22  29
ATOM     23  C   UNL     1       0.217   1.021   0.710  0.00  0.00    +0.001 A 
ATOM     24  C   UNL     1       1.363   1.822   0.609  0.00  0.00    +0.002 A 
ATOM     25  C   UNL     1       2.582   1.319   0.318  0.00  0.00    +0.026 A 
ATOM     26  C   UNL     1       2.749  -0.077   0.100  0.00  0.00    +0.043 A 
ATOM     27  N   UNL     1       3.807  -0.794  -0.191  0.00  0.00    -0.380 N 
ATOM     28  C   UNL     1       3.403  -2.199  -0.307  0.00  0.00    +0.144 C 
ATOM     29  C   UNL     1       1.915  -2.226  -0.038  0.00  0.00    -0.040 C 
ATOM     30  C   UNL     1       1.554  -0.944   0.201  0.00  0.00    -0.001 A 
ATOM     31  C   UNL     1       0.266  -0.317   0.521  0.00  0.00    +0.010 A 
ATOM     32  H   UNL     1       4.707  -0.452  -0.310  0.00  0.00    +0.160 HD
ENDBRANCH  22  29
ENDBRANCH  21  22
ENDBRANCH   1  21
TORSDOF 8
