REMARK  Name = ZINC09309067
REMARK  9 active torsions:
REMARK  status: ('A' for Active; 'I' for Inactive)
REMARK    1  A    between atoms: C_1  and  C_2
REMARK    2  A    between atoms: C_2  and  O_3
REMARK    3  A    between atoms: O_3  and  C_4
REMARK    4  A    between atoms: C_7  and  C_10
REMARK    5  A    between atoms: C_12  and  C_22
REMARK    6  A    between atoms: N_14  and  C_16
REMARK    7  A    between atoms: C_23  and  C_24
REMARK    8  A    between atoms: C_25  and  C_38
REMARK    9  A    between atoms: C_25  and  C_39
REMARK                            x       y       z     vdW  Elec       q    Type
REMARK                         _______ _______ _______ _____ _____    ______ ____
ROOT
ATOM      1  C   UNL     1       1.109  -6.040  -1.847  0.00  0.00    +0.134 C 
ATOM      2  C   UNL     1       2.498  -6.511  -1.472  0.00  0.00    -0.009 C 
ATOM      3  C   UNL     1       3.026  -7.054  -2.576  0.00  0.00    +0.099 C 
ATOM      4  N   UNL     1       2.150  -6.995  -3.632  0.00  0.00    -0.242 N 
ATOM      5  N   UNL     1       0.973  -6.400  -3.272  0.00  0.00    -0.224 NA
ATOM      6  H   UNL     1       0.192  -7.023  -3.415  0.00  0.00    +0.146 HD
ENDROOT
BRANCH   1  10
ATOM      7  C   UNL     1       0.777  -1.810  -1.336  0.00  0.00    +0.121 A 
ATOM      8  C   UNL     1       0.243  -2.669  -0.386  0.00  0.00    +0.046 A 
ATOM      9  C   UNL     1       0.351  -4.036  -0.554  0.00  0.00    +0.009 A 
ATOM     10  C   UNL     1       0.992  -4.548  -1.667  0.00  0.00    -0.024 A 
ATOM     11  C   UNL     1       1.525  -3.694  -2.615  0.00  0.00    +0.009 A 
ATOM     12  C   UNL     1       1.414  -2.327  -2.455  0.00  0.00    +0.046 A 
BRANCH   7  13
ATOM     13  O   UNL     1       0.671  -0.465  -1.174  0.00  0.00    -0.492 OA
BRANCH  13  15
ATOM     14  C   UNL     1      -0.019   1.526   0.010  0.00  0.00    +0.048 C 
ATOM     15  C   UNL     1       0.002  -0.004   0.002  0.00  0.00    +0.225 C 
ENDBRANCH  13  15
ENDBRANCH   7  13
ENDBRANCH   1  10
BRANCH   4  16
ATOM     16  C   UNL     1       2.425  -7.484  -4.912  0.00  0.00    +0.049 A 
ATOM     17  C   UNL     1       1.475  -7.373  -5.919  0.00  0.00    +0.025 A 
ATOM     18  C   UNL     1       1.750  -7.856  -7.183  0.00  0.00    +0.002 A 
ATOM     19  C   UNL     1       2.971  -8.451  -7.447  0.00  0.00    +0.000 A 
ATOM     20  C   UNL     1       3.920  -8.563  -6.446  0.00  0.00    +0.002 A 
ATOM     21  C   UNL     1       3.653  -8.076  -5.182  0.00  0.00    +0.025 A 
ENDBRANCH   4  16
BRANCH   2  22
ATOM     22  C   UNL     1       3.139  -6.396  -0.157  0.00  0.00    +0.006 C 
ATOM     23  C   UNL     1       2.486  -5.827   0.855  0.00  0.00    +0.019 C 
BRANCH  23  24
ATOM     24  C   UNL     1       3.144  -5.709   2.205  0.00  0.00    +0.130 C 
ATOM     25  C   UNL     1       2.366  -6.516   3.253  0.00  0.00    +0.034 C 
ATOM     26  C   UNL     1       3.273  -7.670   3.578  0.00  0.00    -0.017 A 
ATOM     27  C   UNL     1       3.045  -8.761   4.396  0.00  0.00    +0.006 A 
ATOM     28  C   UNL     1       4.067  -9.696   4.505  0.00  0.00    +0.000 A 
ATOM     29  C   UNL     1       5.258  -9.542   3.826  0.00  0.00    +0.002 A 
ATOM     30  C   UNL     1       5.498  -8.450   3.009  0.00  0.00    +0.023 A 
ATOM     31  C   UNL     1       4.480  -7.496   2.893  0.00  0.00    +0.035 A 
ATOM     32  N   UNL     1       4.489  -6.318   2.179  0.00  0.00    -0.304 N 
ATOM     33  C   UNL     1       5.623  -5.646   1.525  0.00  0.00    +0.117 C 
ATOM     34  C   UNL     1       5.790  -4.288   2.219  0.00  0.00    +0.115 C 
ATOM     35  C   UNL     1       4.462  -3.668   2.526  0.00  0.00    +0.216 C 
ATOM     36  O   UNL     1       4.446  -2.473   2.731  0.00  0.00    -0.276 OA
ATOM     37  N   UNL     1       3.296  -4.307   2.576  0.00  0.00    -0.290 N 
ATOM     38  C   UNL     1       2.112  -5.668   4.501  0.00  0.00    +0.020 C 
ATOM     39  C   UNL     1       1.046  -7.021   2.669  0.00  0.00    +0.020 C 
ATOM     40  H   UNL     1       2.519  -3.822   2.896  0.00  0.00    +0.151 HD
ENDBRANCH  23  24
ENDBRANCH   2  22
TORSDOF 6
