REMARK  Name = ZINC45254024
REMARK  7 active torsions:
REMARK  status: ('A' for Active; 'I' for Inactive)
REMARK    1  A    between atoms: C_1  and  C_2
REMARK    2  A    between atoms: C_2  and  C_35
REMARK    3  A    between atoms: C_7  and  C_11
REMARK    4  A    between atoms: C_7  and  C_22
REMARK    5  A    between atoms: C_14  and  O_17
REMARK    6  A    between atoms: O_17  and  C_18
REMARK    7  A    between atoms: C_26  and  C_28
REMARK                            x       y       z     vdW  Elec       q    Type
REMARK                         _______ _______ _______ _____ _____    ______ ____
ROOT
ATOM      1  C   UNL     1      -0.019   1.526   0.010  0.00  0.00    +0.037 C 
ATOM      2  C   UNL     1       0.002  -0.004   0.002  0.00  0.00    +0.074 C 
ATOM      3  C   UNL     1       0.805  -0.527  -1.204  0.00  0.00    +0.144 C 
ATOM      4  N   UNL     1       1.908  -1.278  -0.575  0.00  0.00    -0.257 N 
ATOM      5  C   UNL     1       1.760  -1.198   0.786  0.00  0.00    +0.136 C 
ATOM      6  N   UNL     1       0.737  -0.515   1.165  0.00  0.00    -0.262 NA
ATOM      7  C   UNL     1       2.928  -1.992   1.351  0.00  0.00    +0.170 C 
ATOM      8  N   UNL     1       3.649  -2.460   0.158  0.00  0.00    -0.232 NA
ATOM      9  C   UNL     1       3.022  -2.023  -0.888  0.00  0.00    +0.182 C 
ATOM     10  N   UNL     1       3.428  -2.277  -2.176  0.00  0.00    -0.331 N 
ATOM     11  C   UNL     1      -1.424  -0.558  -0.017  0.00  0.00    +0.037 C 
ATOM     12  H   UNL     1       2.920  -1.924  -2.924  0.00  0.00    +0.145 HD
ATOM     13  H   UNL     1       4.223  -2.809  -2.339  0.00  0.00    +0.145 HD
ENDROOT
BRANCH   7  14
ATOM     14  C   UNL     1       3.813  -1.106   2.189  0.00  0.00    -0.008 A 
ATOM     15  C   UNL     1       3.269  -0.031   2.868  0.00  0.00    +0.010 A 
ATOM     16  C   UNL     1       4.078   0.783   3.637  0.00  0.00    +0.046 A 
ATOM     17  C   UNL     1       5.438   0.521   3.728  0.00  0.00    +0.130 A 
ATOM     18  C   UNL     1       5.981  -0.559   3.047  0.00  0.00    +0.046 A 
ATOM     19  C   UNL     1       5.167  -1.373   2.283  0.00  0.00    +0.010 A 
BRANCH  17  20
ATOM     20  O   UNL     1       6.236   1.320   4.484  0.00  0.00    -0.406 OA
BRANCH  20  21
ATOM     21  C   UNL     1       7.625   0.990   4.532  0.00  0.00    +0.575 C 
ATOM     22  F   UNL     1       8.161   1.037   3.240  0.00  0.00    -0.133 F 
ATOM     23  F   UNL     1       8.295   1.908   5.348  0.00  0.00    -0.133 F 
ATOM     24  F   UNL     1       7.781  -0.298   5.054  0.00  0.00    -0.133 F 
ENDBRANCH  20  21
ENDBRANCH  17  20
ENDBRANCH   7  14
BRANCH   7  25
ATOM     25  C   UNL     1       2.430  -3.161   2.160  0.00  0.00    -0.008 A 
ATOM     26  C   UNL     1       1.215  -3.080   2.815  0.00  0.00    +0.007 A 
ATOM     27  C   UNL     1       0.752  -4.150   3.560  0.00  0.00    +0.001 A 
ATOM     28  C   UNL     1       1.501  -5.305   3.652  0.00  0.00    +0.008 A 
ATOM     29  C   UNL     1       2.725  -5.393   2.994  0.00  0.00    -0.013 A 
ATOM     30  C   UNL     1       3.185  -4.314   2.241  0.00  0.00    +0.015 A 
BRANCH  29  31
ATOM     31  C   UNL     1       3.535  -6.633   3.089  0.00  0.00    +0.036 A 
ATOM     32  C   UNL     1       3.801  -7.212   4.332  0.00  0.00    +0.014 A 
ATOM     33  C   UNL     1       4.562  -8.369   4.368  0.00  0.00    +0.020 A 
ATOM     34  C   UNL     1       5.029  -8.910   3.184  0.00  0.00    +0.114 A 
ATOM     35  N   UNL     1       4.762  -8.342   2.024  0.00  0.00    -0.227 NA
ATOM     36  C   UNL     1       4.038  -7.242   1.938  0.00  0.00    +0.221 A 
ATOM     37  F   UNL     1       3.786  -6.698   0.728  0.00  0.00    -0.183 F 
ENDBRANCH  29  31
ENDBRANCH   7  25
TORSDOF 5
