REMARK  Name = ZINC35664241
REMARK  12 active torsions:
REMARK  status: ('A' for Active; 'I' for Inactive)
REMARK    1  A    between atoms: C_1  and  C_2
REMARK    2  A    between atoms: C_2  and  N_3
REMARK    3  A    between atoms: C_4  and  C_23
REMARK    4  A    between atoms: C_5  and  C_18
REMARK    5  A    between atoms: C_6  and  C_11
REMARK    6  A    between atoms: C_18  and  O_20
REMARK    7  A    between atoms: O_20  and  C_21
REMARK    8  A    between atoms: C_21  and  C_22
REMARK    9  A    between atoms: C_23  and  N_24
REMARK   10  A    between atoms: N_33  and  C_34
REMARK   11  A    between atoms: C_34  and  C_35
REMARK   12  A    between atoms: C_34  and  C_36
REMARK                            x       y       z     vdW  Elec       q    Type
REMARK                         _______ _______ _______ _____ _____    ______ ____
ROOT
ATOM      1  N   UNL     1      -1.421  -0.367   0.200  0.00  0.00    -0.261 N 
ATOM      2  C   UNL     1      -1.778  -0.926   1.393  0.00  0.00    +0.010 C 
ATOM      3  C   UNL     1      -2.905  -1.660   1.510  0.00  0.00    +0.076 C 
ATOM      4  C   UNL     1      -3.760  -1.841   0.272  0.00  0.00    +0.144 C 
ATOM      5  N   UNL     1      -3.288  -1.196  -0.965  0.00  0.00    -0.288 N 
ATOM      6  C   UNL     1      -2.141  -0.490  -0.923  0.00  0.00    +0.307 C 
ATOM      7  O   UNL     1      -1.744   0.049  -1.938  0.00  0.00    -0.252 OA
ATOM      8  H   UNL     1      -3.792  -1.276  -1.790  0.00  0.00    +0.151 HD
ENDROOT
BRANCH   4   9
ATOM      9  C   UNL     1      -5.137  -1.308   0.576  0.00  0.00    -0.020 A 
ATOM     10  C   UNL     1      -5.379   0.052   0.519  0.00  0.00    +0.006 A 
ATOM     11  C   UNL     1      -6.641   0.543   0.798  0.00  0.00    +0.003 A 
ATOM     12  C   UNL     1      -7.662  -0.326   1.134  0.00  0.00    +0.038 A 
ATOM     13  C   UNL     1      -7.421  -1.688   1.191  0.00  0.00    +0.124 A 
ATOM     14  C   UNL     1      -6.157  -2.179   0.905  0.00  0.00    +0.044 A 
ATOM     15  F   UNL     1      -8.418  -2.538   1.519  0.00  0.00    -0.205 F 
ENDBRANCH   4   9
BRANCH   1  17
ATOM     16  C   UNL     1      -0.494   1.880   0.473  0.00  0.00    +0.025 C 
ATOM     17  C   UNL     1      -0.185   0.417   0.145  0.00  0.00    +0.111 C 
ENDBRANCH   1  17
BRANCH   3  18
ATOM     18  C   UNL     1      -3.276  -2.241   2.745  0.00  0.00    +0.339 C 
ATOM     19  O   UNL     1      -2.622  -2.011   3.746  0.00  0.00    -0.245 OA
BRANCH  18  20
ATOM     20  O   UNL     1      -4.354  -3.050   2.815  0.00  0.00    -0.462 OA
BRANCH  20  21
ATOM     21  C   UNL     1      -4.669  -3.601   4.094  0.00  0.00    +0.229 C 
ATOM     22  C   UNL     1      -5.913  -4.485   3.976  0.00  0.00    +0.048 C 
ENDBRANCH  20  21
ENDBRANCH  18  20
ENDBRANCH   3  18
BRANCH   2  23
ATOM     23  C   UNL     1      -0.899  -0.721   2.600  0.00  0.00    -0.026 C 
BRANCH  23  24
ATOM     24  N   UNL     1      -0.069  -1.915   2.810  0.00  0.00    +0.384 N 
ATOM     25  C   UNL     1       0.576  -1.805   4.116  0.00  0.00    -0.077 C 
ATOM     26  C   UNL     1       0.812  -3.190   4.676  0.00  0.00    +0.000 C 
ATOM     27  C   UNL     1       2.228  -3.662   4.298  0.00  0.00    +0.107 C 
ATOM     28  N   UNL     1       2.569  -3.265   2.916  0.00  0.00    -0.287 N 
ATOM     29  C   UNL     1       1.619  -3.358   1.827  0.00  0.00    +0.091 C 
ATOM     30  C   UNL     1       0.816  -2.041   1.716  0.00  0.00    -0.059 C 
ATOM     31  C   UNL     1       3.807  -2.800   2.661  0.00  0.00    +0.302 C 
ATOM     32  O   UNL     1       4.649  -2.799   3.538  0.00  0.00    -0.253 OA
ATOM     33  N   UNL     1       4.113  -2.335   1.433  0.00  0.00    -0.297 N 
ATOM     34  H   UNL     1       3.423  -2.267   0.755  0.00  0.00    +0.150 HD
ATOM     35  H   UNL     1      -0.674  -2.723   2.824  0.00  0.00    -0.081 HD
BRANCH  33  36
ATOM     36  C   UNL     1       5.487  -1.933   1.123  0.00  0.00    +0.068 C 
ATOM     37  C   UNL     1       6.294  -3.161   0.698  0.00  0.00    +0.027 C 
ATOM     38  C   UNL     1       5.475  -0.912  -0.016  0.00  0.00    +0.027 C 
ENDBRANCH  33  36
ENDBRANCH  23  24
ENDBRANCH   2  23
TORSDOF 8
