REMARK  Name = ZINC09317999
REMARK  6 active torsions:
REMARK  status: ('A' for Active; 'I' for Inactive)
REMARK    1  A    between atoms: C_1  and  C_2
REMARK    2  A    between atoms: C_5  and  N_8
REMARK    3  A    between atoms: C_14  and  C_17
REMARK    4  A    between atoms: N_19  and  C_20
REMARK    5  A    between atoms: C_22  and  C_27
REMARK    6  A    between atoms: C_24  and  C_26
REMARK                            x       y       z     vdW  Elec       q    Type
REMARK                         _______ _______ _______ _____ _____    ______ ____
ROOT
ATOM      1  N   UNL     1      -8.427   3.954   0.527  0.00  0.00    -0.269 N 
ATOM      2  C   UNL     1      -7.175   4.430   0.674  0.00  0.00    +0.310 C 
ATOM      3  O   UNL     1      -6.997   5.609   0.916  0.00  0.00    -0.252 OA
ATOM      4  N   UNL     1      -6.120   3.600   0.553  0.00  0.00    -0.248 N 
ATOM      5  C   UNL     1      -4.829   4.091   0.704  0.00  0.00    +0.166 A 
ATOM      6  N   UNL     1      -3.682   3.449   0.624  0.00  0.00    -0.220 NA
ATOM      7  C   UNL     1      -2.537   4.112   0.803  0.00  0.00    +0.135 A 
ATOM      8  C   UNL     1      -2.583   5.455   1.074  0.00  0.00    +0.081 A 
ATOM      9  S   UNL     1      -4.292   5.757   1.057  0.00  0.00    -0.060 S 
ATOM     10  H   UNL     1      -8.573   3.003   0.409  0.00  0.00    +0.156 HD
ATOM     11  H   UNL     1      -6.262   2.661   0.360  0.00  0.00    +0.158 HD
ENDROOT
BRANCH   1  16
ATOM     12  C   UNL     1     -12.844   7.514   0.600  0.00  0.00    +0.044 C 
ATOM     13  C   UNL     1     -11.670   6.569   0.581  0.00  0.00    -0.050 A 
ATOM     14  C   UNL     1     -10.460   6.981   0.054  0.00  0.00    +0.005 A 
ATOM     15  C   UNL     1      -9.383   6.117   0.034  0.00  0.00    +0.023 A 
ATOM     16  C   UNL     1      -9.516   4.833   0.546  0.00  0.00    +0.035 A 
ATOM     17  C   UNL     1     -10.734   4.420   1.071  0.00  0.00    +0.023 A 
ATOM     18  C   UNL     1     -11.806   5.291   1.092  0.00  0.00    +0.005 A 
ENDBRANCH   1  16
BRANCH   7  19
ATOM     19  C   UNL     1      -1.246   3.411   0.718  0.00  0.00    +0.267 C 
ATOM     20  O   UNL     1      -0.209   4.024   0.883  0.00  0.00    -0.268 OA
ATOM     21  N   UNL     1      -1.214   2.089   0.456  0.00  0.00    -0.280 N 
ATOM     22  H   UNL     1      -2.035   1.614   0.258  0.00  0.00    +0.155 HD
BRANCH  21  23
ATOM     23  C   UNL     1       0.005   1.404   0.470  0.00  0.00    +0.034 A 
ATOM     24  C   UNL     1       1.160   2.028   0.017  0.00  0.00    +0.026 A 
ATOM     25  C   UNL     1       2.361   1.346   0.028  0.00  0.00    -0.048 A 
ATOM     26  C   UNL     1       2.415   0.043   0.488  0.00  0.00    +0.006 A 
ATOM     27  C   UNL     1       1.266  -0.581   0.939  0.00  0.00    -0.048 A 
ATOM     28  C   UNL     1       0.062   0.095   0.932  0.00  0.00    +0.026 A 
ATOM     29  C   UNL     1       1.329  -2.001   1.440  0.00  0.00    +0.044 C 
ATOM     30  C   UNL     1       3.616   2.023  -0.462  0.00  0.00    +0.044 C 
ENDBRANCH  21  23
ENDBRANCH   7  19
TORSDOF 3
