REMARK  Name = ZINC12246525
REMARK  7 active torsions:
REMARK  status: ('A' for Active; 'I' for Inactive)
REMARK    1  A    between atoms: C_6  and  C_7
REMARK    2  A    between atoms: C_8  and  C_13
REMARK    3  A    between atoms: C_13  and  N_65
REMARK    4  A    between atoms: C_14  and  N_65
REMARK    5  A    between atoms: N_17  and  C_20
REMARK    6  A    between atoms: C_23  and  C_26
REMARK    7  A    between atoms: N_28  and  C_29
REMARK                            x       y       z     vdW  Elec       q    Type
REMARK                         _______ _______ _______ _____ _____    ______ ____
ROOT
ATOM      1  C   UNL     1      -2.368   5.830  -2.007  0.00  0.00    -0.068 C 
ATOM      2  C   UNL     1      -3.865   5.522  -2.102  0.00  0.00    +0.003 C 
ATOM      3  C   UNL     1      -4.629   6.813  -2.404  0.00  0.00    +0.103 C 
ATOM      4  N   UNL     1      -4.147   7.384  -3.668  0.00  0.00    -0.330 N 
ATOM      5  C   UNL     1      -2.723   7.732  -3.585  0.00  0.00    +0.103 C 
ATOM      6  C   UNL     1      -1.902   6.469  -3.319  0.00  0.00    +0.003 C 
ENDROOT
BRANCH   4   7
ATOM      7  C   UNL     1      -4.909   8.487  -4.039  0.00  0.00    +0.030 A 
ATOM      8  C   UNL     1      -4.291   9.713  -4.269  0.00  0.00    +0.024 A 
ATOM      9  C   UNL     1      -5.042  10.804  -4.641  0.00  0.00    +0.015 A 
ATOM     10  C   UNL     1      -6.428  10.684  -4.777  0.00  0.00    +0.037 A 
ATOM     11  C   UNL     1      -7.046   9.453  -4.540  0.00  0.00    +0.015 A 
ATOM     12  C   UNL     1      -6.290   8.364  -4.173  0.00  0.00    +0.024 A 
BRANCH  10  13
ATOM     13  C   UNL     1      -7.236  11.854  -5.170  0.00  0.00    +0.244 C 
ATOM     14  O   UNL     1      -8.442  11.748  -5.287  0.00  0.00    -0.270 OA
ATOM     15  N   UNL     1      -6.639  13.040  -5.398  0.00  0.00    -0.308 N 
ATOM     16  H   UNL     1      -5.677  13.124  -5.304  0.00  0.00    +0.149 HD
BRANCH  15  17
ATOM     17  C   UNL     1      -7.441  14.202  -5.788  0.00  0.00    +0.073 C 
ATOM     18  C   UNL     1      -7.610  14.238  -7.321  0.00  0.00    +0.022 C 
ATOM     19  C   UNL     1      -7.548  15.744  -7.675  0.00  0.00    +0.002 C 
ATOM     20  C   UNL     1      -6.468  16.280  -6.703  0.00  0.00    +0.002 C 
ATOM     21  C   UNL     1      -6.715  15.500  -5.395  0.00  0.00    +0.022 C 
ENDBRANCH  15  17
ENDBRANCH  10  13
ENDBRANCH   4   7
BRANCH   1  22
ATOM     22  N   UNL     1      -1.619   4.579  -1.783  0.00  0.00    +0.384 N 
ATOM     23  H   UNL     1      -2.082   3.813  -2.287  0.00  0.00    -0.085 HD
ATOM     24  H   UNL     1      -0.661   4.691  -2.135  0.00  0.00    -0.085 HD
BRANCH  22  25
ATOM     25  C   UNL     1      -1.575   4.259  -0.344  0.00  0.00    -0.043 C 
BRANCH  25  27
ATOM     26  C   UNL     1       0.698   3.013  -0.165  0.00  0.00    +0.094 A 
ATOM     27  C   UNL     1      -0.710   3.044  -0.135  0.00  0.00    -0.019 A 
ATOM     28  C   UNL     1      -1.146   1.789   0.110  0.00  0.00    +0.107 A 
ATOM     29  N   UNL     1      -0.065   0.990   0.239  0.00  0.00    -0.284 N 
ATOM     30  H   UNL     1      -0.081   0.008   0.429  0.00  0.00    +0.188 HD
ATOM     31  N   UNL     1       1.081   1.774   0.061  0.00  0.00    -0.174 NA
BRANCH  26  37
ATOM     32  C   UNL     1       2.703   4.037  -1.238  0.00  0.00    +0.011 A 
ATOM     33  C   UNL     1       3.529   5.119  -1.465  0.00  0.00    +0.020 A 
ATOM     34  C   UNL     1       3.260   6.336  -0.862  0.00  0.00    +0.041 A 
ATOM     35  C   UNL     1       2.160   6.474  -0.033  0.00  0.00    +0.020 A 
ATOM     36  C   UNL     1       1.326   5.399   0.196  0.00  0.00    +0.011 A 
ATOM     37  C   UNL     1       1.592   4.173  -0.408  0.00  0.00    +0.002 A 
ATOM     38 CL   UNL     1       4.305   7.692  -1.147  0.00  0.00    -0.084 Cl
ENDBRANCH  26  37
ENDBRANCH  25  27
ENDBRANCH  22  25
ENDBRANCH   1  22
TORSDOF 7
