REMARK  Name = ZINC20106298
REMARK  8 active torsions:
REMARK  status: ('A' for Active; 'I' for Inactive)
REMARK    1  A    between atoms: C_1  and  O_2
REMARK    2  A    between atoms: O_2  and  C_3
REMARK    3  A    between atoms: C_7  and  N_9
REMARK    4  A    between atoms: C_10  and  C_12
REMARK    5  A    between atoms: N_23  and  C_35
REMARK    6  A    between atoms: C_24  and  C_26
REMARK    7  A    between atoms: N_28  and  C_29
REMARK    8  A    between atoms: C_35  and  C_36
REMARK                            x       y       z     vdW  Elec       q    Type
REMARK                         _______ _______ _______ _____ _____    ______ ____
ROOT
ATOM      1  C   UNL     1      -2.570   4.138   0.252  0.00  0.00    +0.123 C 
ATOM      2  C   UNL     1      -3.263   3.814   1.615  0.00  0.00    +0.155 C 
ATOM      3  C   UNL     1      -2.238   4.111   2.717  0.00  0.00    +0.004 C 
ATOM      4  C   UNL     1      -2.125   5.442   2.808  0.00  0.00    +0.009 C 
ATOM      5  C   UNL     1      -3.038   5.946   1.748  0.00  0.00    +0.127 C 
ATOM      6  C   UNL     1      -2.350   5.658   0.363  0.00  0.00    +0.128 C 
ATOM      7  C   UNL     1      -3.187   6.488  -0.569  0.00  0.00    +0.224 C 
ATOM      8  O   UNL     1      -3.332   6.281  -1.755  0.00  0.00    -0.275 OA
ATOM      9  N   UNL     1      -3.758   7.506   0.148  0.00  0.00    -0.282 N 
ATOM     10  C   UNL     1      -3.456   7.375   1.594  0.00  0.00    +0.199 C 
ATOM     11  O   UNL     1      -4.136   4.994   1.743  0.00  0.00    -0.358 OA
ENDROOT
BRANCH   1  13
ATOM     12  N   UNL     1      -1.237   2.068   0.019  0.00  0.00    -0.285 N 
ATOM     13  C   UNL     1      -1.256   3.411   0.128  0.00  0.00    +0.224 C 
ATOM     14  O   UNL     1      -0.216   4.034   0.127  0.00  0.00    -0.275 OA
ATOM     15  H   UNL     1      -2.182   1.509  -0.057  0.00  0.00    +0.155 HD
BRANCH  12  20
ATOM     16  C   UNL     1       1.298  -0.542   0.572  0.00  0.00    +0.122 A 
ATOM     17  C   UNL     1       2.401   0.032  -0.046  0.00  0.00    +0.046 A 
ATOM     18  C   UNL     1       2.294   1.276  -0.637  0.00  0.00    +0.005 A 
ATOM     19  C   UNL     1       1.090   1.953  -0.615  0.00  0.00    +0.023 A 
ATOM     20  C   UNL     1      -0.017   1.384   0.002  0.00  0.00    +0.037 A 
ATOM     21  C   UNL     1       0.089   0.135   0.596  0.00  0.00    +0.069 A 
BRANCH  16  23
ATOM     22  C   UNL     1       2.681  -2.405   1.091  0.00  0.00    +0.277 C 
ATOM     23  O   UNL     1       1.405  -1.765   1.154  0.00  0.00    -0.495 OA
ENDBRANCH  16  23
ENDBRANCH  12  20
ENDBRANCH   1  13
BRANCH  10  24
ATOM     24  C   UNL     1      -2.332   8.299   1.984  0.00  0.00    +0.237 C 
ATOM     25  O   UNL     1      -1.641   8.810   1.128  0.00  0.00    -0.274 OA
ATOM     26  N   UNL     1      -2.093   8.558   3.285  0.00  0.00    -0.311 N 
ATOM     27  H   UNL     1      -2.720   8.095   4.062  0.00  0.00    +0.149 HD
BRANCH  26  28
ATOM     28  C   UNL     1      -1.000   9.457   3.665  0.00  0.00    +0.073 C 
ATOM     29  C   UNL     1       0.308   8.667   3.734  0.00  0.00    +0.022 C 
ATOM     30  C   UNL     1       1.450   9.606   4.131  0.00  0.00    +0.002 C 
ATOM     31  C   UNL     1       1.153  10.220   5.500  0.00  0.00    +0.000 C 
ATOM     32  C   UNL     1      -0.156  11.010   5.431  0.00  0.00    +0.002 C 
ATOM     33  C   UNL     1      -1.298  10.071   5.035  0.00  0.00    +0.022 C 
ENDBRANCH  26  28
ENDBRANCH  10  24
BRANCH   9  34
ATOM     34  C   UNL     1      -4.552   8.587  -0.441  0.00  0.00    +0.151 C 
BRANCH  34  35
ATOM     35  C   UNL     1      -3.644   9.729  -0.819  0.00  0.00    +0.007 A 
ATOM     36  C   UNL     1      -2.997   9.952  -1.989  0.00  0.00    +0.013 A 
ATOM     37  C   UNL     1      -2.207  11.080  -2.113  0.00  0.00    +0.008 A 
ATOM     38  C   UNL     1      -2.104  11.929  -1.062  0.00  0.00    +0.045 A 
ATOM     39  S   UNL     1      -3.148  11.141   0.153  0.00  0.00    -0.100 S 
ENDBRANCH  34  35
ENDBRANCH   9  34
TORSDOF 7
