REMARK  Name = ZINC62562112
REMARK  5 active torsions:
REMARK  status: ('A' for Active; 'I' for Inactive)
REMARK    1  A    between atoms: C_1  and  C_2
REMARK    2  A    between atoms: C_2  and  C_3
REMARK    3  A    between atoms: C_2  and  C_4
REMARK    4  A    between atoms: C_7  and  C_10
REMARK    5  A    between atoms: C_19  and  N_22
REMARK                            x       y       z     vdW  Elec       q    Type
REMARK                         _______ _______ _______ _____ _____    ______ ____
ROOT
ATOM      1  C   UNL     1      -5.419  -2.005   0.043  0.00  0.00    +0.289 C 
ATOM      2  C   UNL     1      -6.276  -1.155  -0.861  0.00  0.00    +0.263 C 
ATOM      3  O   UNL     1      -6.867  -0.195  -0.414  0.00  0.00    -0.271 OA
ATOM      4  N   UNL     1      -6.382  -1.468  -2.171  0.00  0.00    -0.279 N 
ATOM      5  C   UNL     1      -5.717  -2.604  -2.655  0.00  0.00    +0.080 A 
ATOM      6  C   UNL     1      -5.530  -2.787  -4.017  0.00  0.00    +0.065 A 
ATOM      7  C   UNL     1      -4.872  -3.914  -4.478  0.00  0.00    +0.127 A 
ATOM      8  C   UNL     1      -4.400  -4.860  -3.584  0.00  0.00    +0.064 A 
ATOM      9  C   UNL     1      -4.584  -4.683  -2.219  0.00  0.00    +0.071 A 
ATOM     10  C   UNL     1      -5.243  -3.551  -1.753  0.00  0.00    +0.164 A 
ATOM     11  O   UNL     1      -5.430  -3.358  -0.419  0.00  0.00    -0.471 OA
ATOM     12  F   UNL     1      -4.690  -4.092  -5.805  0.00  0.00    -0.205 F 
ATOM     13  H   UNL     1      -6.911  -0.916  -2.767  0.00  0.00    +0.155 HD
ENDROOT
BRANCH   1  17
ATOM     14  C   UNL     1      -1.412  -0.526   0.013  0.00  0.00    -0.045 A 
ATOM     15  C   UNL     1      -2.259  -0.204   1.056  0.00  0.00    +0.004 A 
ATOM     16  C   UNL     1      -3.556  -0.683   1.066  0.00  0.00    +0.008 A 
ATOM     17  C   UNL     1      -4.006  -1.482   0.032  0.00  0.00    +0.002 A 
ATOM     18  C   UNL     1      -3.159  -1.803  -1.012  0.00  0.00    +0.008 A 
ATOM     19  C   UNL     1      -1.863  -1.321  -1.024  0.00  0.00    +0.004 A 
BRANCH  14  21
ATOM     20  C   UNL     1      -0.019   1.526   0.010  0.00  0.00    +0.012 C 
ATOM     21  C   UNL     1       0.002  -0.004   0.002  0.00  0.00    +0.013 C 
ATOM     22  C   UNL     1       0.742  -0.511   1.242  0.00  0.00    +0.012 C 
ENDBRANCH  14  21
ENDBRANCH   1  17
BRANCH   9  23
ATOM     23  N   UNL     1      -4.108  -5.640  -1.316  0.00  0.00    -0.355 N 
ATOM     24  H   UNL     1      -3.648  -6.429  -1.643  0.00  0.00    +0.142 HD
ATOM     25  H   UNL     1      -4.237  -5.514  -0.363  0.00  0.00    +0.142 HD
ENDBRANCH   9  23
TORSDOF 3
