REMARK  Name = ZINC53007031
REMARK  5 active torsions:
REMARK  status: ('A' for Active; 'I' for Inactive)
REMARK    1  A    between atoms: C_1  and  C_2
REMARK    2  A    between atoms: C_5  and  N_18
REMARK    3  A    between atoms: C_6  and  C_8
REMARK    4  A    between atoms: C_15  and  C_17
REMARK    5  A    between atoms: N_18  and  N_19
REMARK                            x       y       z     vdW  Elec       q    Type
REMARK                         _______ _______ _______ _____ _____    ______ ____
ROOT
ATOM      1  C   UNL     1       0.710   0.881  -0.616  0.00  0.00    +0.044 C 
ATOM      2  C   UNL     1      -0.110  -0.335  -0.269  0.00  0.00    -0.050 A 
ATOM      3  C   UNL     1      -1.101  -0.769  -1.136  0.00  0.00    +0.005 A 
ATOM      4  C   UNL     1      -1.859  -1.880  -0.831  0.00  0.00    +0.025 A 
ATOM      5  C   UNL     1      -1.632  -2.573   0.352  0.00  0.00    +0.053 A 
ATOM      6  C   UNL     1      -0.630  -2.137   1.232  0.00  0.00    +0.059 A 
ATOM      7  C   UNL     1       0.133  -1.013   0.905  0.00  0.00    +0.018 A 
ENDROOT
BRANCH   6   8
ATOM      8  C   UNL     1      -0.379  -2.863   2.490  0.00  0.00    +0.249 C 
ATOM      9  O   UNL     1      -0.239  -4.071   2.477  0.00  0.00    -0.270 OA
ATOM     10  N   UNL     1      -0.305  -2.188   3.654  0.00  0.00    -0.295 N 
ATOM     11  C   UNL     1      -0.586  -0.747   3.704  0.00  0.00    +0.108 C 
ATOM     12  C   UNL     1      -1.655  -0.489   4.770  0.00  0.00    +0.019 C 
ATOM     13  C   UNL     1      -1.196  -1.086   6.102  0.00  0.00    +0.003 C 
ATOM     14  C   UNL     1      -1.018  -2.599   5.952  0.00  0.00    +0.022 C 
ATOM     15  C   UNL     1       0.052  -2.881   4.900  0.00  0.00    +0.073 C 
ATOM     16  C   UNL     1       0.132  -4.388   4.644  0.00  0.00    +0.028 C 
ENDBRANCH   6   8
BRANCH   5  17
ATOM     17  N   UNL     1      -2.395  -3.692   0.663  0.00  0.00    -0.282 N 
ATOM     18  H   UNL     1      -2.185  -4.218   1.450  0.00  0.00    +0.166 HD
BRANCH  17  19
ATOM     19  N   UNL     1      -3.440  -4.051  -0.141  0.00  0.00    -0.256 NA
ATOM     20  H   UNL     1      -3.897  -4.879   0.210  0.00  0.00    +0.140 HD
ATOM     21  H   UNL     1      -4.095  -3.291  -0.242  0.00  0.00    +0.140 HD
ENDBRANCH  17  19
ENDBRANCH   5  17
TORSDOF 3
