REMARK  Name = ZINC00729083
REMARK  6 active torsions:
REMARK  status: ('A' for Active; 'I' for Inactive)
REMARK    1  A    between atoms: C_1  and  C_2
REMARK    2  A    between atoms: C_8  and  C_9
REMARK    3  A    between atoms: C_8  and  N_55
REMARK    4  A    between atoms: N_11  and  C_12
REMARK    5  A    between atoms: C_13  and  C_20
REMARK    6  A    between atoms: N_22  and  C_23
REMARK                            x       y       z     vdW  Elec       q    Type
REMARK                         _______ _______ _______ _____ _____    ______ ____
ROOT
ATOM      1  C   UNL     1      -2.397   2.073  -3.397  0.00  0.00    +0.084 A 
ATOM      2  C   UNL     1      -3.005   1.973  -2.157  0.00  0.00    +0.069 A 
ATOM      3  C   UNL     1      -2.336   1.166  -1.137  0.00  0.00    -0.023 A 
ATOM      4  C   UNL     1      -1.179   0.600  -1.525  0.00  0.00    -0.004 A 
ATOM      5  S   UNL     1      -0.967   1.115  -3.212  0.00  0.00    -0.077 S 
ATOM      6  C   UNL     1      -0.550  -0.209  -0.423  0.00  0.00    +0.043 C 
ATOM      7  C   UNL     1      -1.252   0.272   0.866  0.00  0.00    +0.010 C 
ATOM      8  C   UNL     1      -2.606   0.771   0.315  0.00  0.00    +0.037 C 
ENDROOT
BRANCH   1  11
ATOM      9  C   UNL     1      -2.095   2.750  -5.646  0.00  0.00    +0.201 C 
ATOM     10  O   UNL     1      -1.058   2.123  -5.685  0.00  0.00    -0.278 OA
ATOM     11  N   UNL     1      -2.828   2.770  -4.515  0.00  0.00    -0.281 N 
ATOM     12  H   UNL     1      -3.657   3.272  -4.484  0.00  0.00    +0.155 HD
BRANCH   9  13
ATOM     13  C   UNL     1      -2.563   3.508  -6.861  0.00  0.00    +0.019 C 
BRANCH  13  20
ATOM     14  C   UNL     1       2.020   4.791  -8.101  0.00  0.00    +0.005 C 
ATOM     15  C   UNL     1       0.779   4.001  -8.523  0.00  0.00    -0.031 C 
ATOM     16  C   UNL     1       0.291   4.505  -9.884  0.00  0.00    -0.001 C 
ATOM     17  C   UNL     1      -0.985   3.752 -10.271  0.00  0.00    -0.018 C 
ATOM     18  C   UNL     1      -2.041   3.955  -9.182  0.00  0.00    -0.078 C 
ATOM     19  C   UNL     1      -0.328   4.197  -7.485  0.00  0.00    -0.075 C 
ATOM     20  N   UNL     1      -1.519   3.428  -7.903  0.00  0.00    +0.386 N 
ATOM     21  H   UNL     1      -1.252   2.445  -8.033  0.00  0.00    -0.081 HD
ENDBRANCH  13  20
ENDBRANCH   9  13
ENDBRANCH   1  11
BRANCH   2  22
ATOM     22  C   UNL     1      -4.274   2.652  -1.877  0.00  0.00    +0.251 C 
ATOM     23  O   UNL     1      -4.273   3.785  -1.433  0.00  0.00    -0.270 OA
ATOM     24  N   UNL     1      -5.442   2.021  -2.111  0.00  0.00    -0.281 N 
ATOM     25  H   UNL     1      -5.443   1.096  -2.402  0.00  0.00    +0.155 HD
BRANCH  24  26
ATOM     26  C   UNL     1      -6.652   2.701  -1.936  0.00  0.00    +0.034 A 
ATOM     27  C   UNL     1      -6.784   3.634  -0.915  0.00  0.00    +0.024 A 
ATOM     28  C   UNL     1      -7.977   4.308  -0.747  0.00  0.00    +0.017 A 
ATOM     29  C   UNL     1      -9.045   4.046  -1.588  0.00  0.00    +0.018 A 
ATOM     30  C   UNL     1      -8.918   3.114  -2.602  0.00  0.00    +0.017 A 
ATOM     31  C   UNL     1      -7.724   2.441  -2.778  0.00  0.00    +0.024 A 
ATOM     32 BR   UNL     1     -10.680   4.966  -1.351  0.00  0.00    -0.050 Br
ENDBRANCH  24  26
ENDBRANCH   2  22
TORSDOF 5
