REMARK  Name = ZINC33010401
REMARK  4 active torsions:
REMARK  status: ('A' for Active; 'I' for Inactive)
REMARK    1  A    between atoms: C_6  and  N_7
REMARK    2  A    between atoms: C_15  and  C_29
REMARK    3  A    between atoms: C_18  and  N_23
REMARK    4  A    between atoms: C_24  and  C_26
REMARK                            x       y       z     vdW  Elec       q    Type
REMARK                         _______ _______ _______ _____ _____    ______ ____
ROOT
ATOM      1  N   UNL     1       0.858  -0.259   1.321  0.00  0.00    -0.327 N 
ATOM      2  C   UNL     1       0.241   0.150   0.052  0.00  0.00    +0.124 C 
ATOM      3  C   UNL     1       0.091   1.673   0.028  0.00  0.00    +0.125 C 
ATOM      4  N   UNL     1       1.413   2.295   0.193  0.00  0.00    -0.314 N 
ATOM      5  C   UNL     1       2.030   1.886   1.462  0.00  0.00    +0.125 C 
ATOM      6  C   UNL     1       2.180   0.363   1.485  0.00  0.00    +0.124 C 
ATOM      7  C   UNL     1       1.326   3.678   0.105  0.00  0.00    +0.100 A 
ATOM      8  C   UNL     1       2.495   4.438   0.245  0.00  0.00    +0.057 A 
ATOM      9  C   UNL     1       2.423   5.821   0.153  0.00  0.00    +0.075 A 
ATOM     10  C   UNL     1       1.103   6.412  -0.076  0.00  0.00    +0.014 A 
ATOM     11  C   UNL     1       0.930   7.795  -0.176  0.00  0.00    +0.034 A 
ATOM     12  C   UNL     1      -0.333   8.308  -0.392  0.00  0.00    +0.034 A 
ATOM     13  C   UNL     1      -1.435   7.453  -0.512  0.00  0.00    +0.025 A 
ATOM     14  C   UNL     1      -1.289   6.105  -0.418  0.00  0.00    +0.028 A 
ATOM     15  C   UNL     1      -0.015   5.550  -0.197  0.00  0.00    +0.049 A 
ATOM     16  N   UNL     1       0.150   4.227  -0.101  0.00  0.00    -0.343 N 
ATOM     17  H   UNL     1      -0.743   3.593  -0.201  0.00  0.00    +0.167 HD
ENDROOT
BRANCH   1  23
ATOM     18  C   UNL     1       0.472  -2.445   0.373  0.00  0.00    +0.024 A 
ATOM     19  C   UNL     1       0.565  -3.820   0.460  0.00  0.00    +0.022 A 
ATOM     20  C   UNL     1       1.119  -4.407   1.584  0.00  0.00    +0.041 A 
ATOM     21  C   UNL     1       1.586  -3.619   2.621  0.00  0.00    +0.022 A 
ATOM     22  C   UNL     1       1.501  -2.243   2.536  0.00  0.00    +0.024 A 
ATOM     23  C   UNL     1       0.946  -1.651   1.409  0.00  0.00    +0.030 A 
ATOM     24 CL   UNL     1       1.227  -6.137   1.694  0.00  0.00    -0.084 Cl
ENDBRANCH   1  23
BRANCH  12  25
ATOM     25  N   UNL     1      -0.512   9.691  -0.493  0.00  0.00    -0.285 N 
ATOM     26  C   UNL     1      -1.650  10.257  -0.044  0.00  0.00    +0.220 C 
ATOM     27  O   UNL     1      -2.478   9.581   0.531  0.00  0.00    -0.275 OA
ATOM     28  H   UNL     1       0.275  10.316  -0.939  0.00  0.00    +0.155 HD
BRANCH  26  29
ATOM     29  C   UNL     1      -1.894  11.728  -0.257  0.00  0.00    +0.075 C 
ATOM     30  C   UNL     1      -1.883  12.632   0.978  0.00  0.00    +0.013 C 
ATOM     31  C   UNL     1      -3.205  12.311   0.277  0.00  0.00    +0.013 C 
ENDBRANCH  26  29
ENDBRANCH  12  25
BRANCH   9  32
ATOM     32  C   UNL     1       3.629   6.664   0.288  0.00  0.00    +0.387 C 
ATOM     33  O   UNL     1       3.525   7.874   0.306  0.00  0.00    -0.241 OA
ATOM     34  O   UNL     1       4.843   6.091   0.391  0.00  0.00    -0.241 OA
ENDBRANCH   9  32
TORSDOF 4
