REMARK  Name = ZINC46815489
REMARK  4 active torsions:
REMARK  status: ('A' for Active; 'I' for Inactive)
REMARK    1  A    between atoms: C_3  and  N_27
REMARK    2  A    between atoms: C_6  and  N_7
REMARK    3  A    between atoms: C_8  and  C_10
REMARK    4  A    between atoms: C_17  and  C_19
REMARK                            x       y       z     vdW  Elec       q    Type
REMARK                         _______ _______ _______ _____ _____    ______ ____
ROOT
ATOM      1  N   UNL     1      -1.380  -0.426  -0.126  0.00  0.00    -0.285 N 
ATOM      2  C   UNL     1      -1.267  -1.762  -0.271  0.00  0.00    +0.222 C 
ATOM      3  O   UNL     1      -0.170  -2.276  -0.319  0.00  0.00    -0.275 OA
ATOM      4  H   UNL     1      -2.255  -0.023  -0.012  0.00  0.00    +0.155 HD
ENDROOT
BRANCH   2   5
ATOM      5  C   UNL     1      -2.505  -2.615  -0.375  0.00  0.00    +0.093 C 
ATOM      6  C   UNL     1      -2.101  -4.083  -0.531  0.00  0.00    +0.016 C 
ATOM      7  C   UNL     1      -3.357  -4.947  -0.669  0.00  0.00    +0.020 C 
ATOM      8  C   UNL     1      -4.207  -4.812   0.598  0.00  0.00    +0.108 C 
ATOM      9  N   UNL     1      -4.478  -3.388   0.835  0.00  0.00    -0.297 N 
ATOM     10  C   UNL     1      -3.346  -2.453   0.895  0.00  0.00    +0.120 C 
ATOM     11  C   UNL     1      -5.742  -2.946   0.995  0.00  0.00    +0.247 C 
ATOM     12  O   UNL     1      -5.948  -1.780   1.267  0.00  0.00    -0.270 OA
BRANCH  11  13
ATOM     13  C   UNL     1      -6.876  -3.881   0.840  0.00  0.00    +0.038 A 
ATOM     14  C   UNL     1      -6.835  -5.139   1.446  0.00  0.00    +0.014 A 
ATOM     15  C   UNL     1      -7.896  -6.007   1.298  0.00  0.00    +0.022 A 
ATOM     16  C   UNL     1      -9.001  -5.634   0.550  0.00  0.00    +0.059 A 
ATOM     17  C   UNL     1      -9.048  -4.387  -0.053  0.00  0.00    +0.060 A 
ATOM     18  C   UNL     1      -7.994  -3.508   0.093  0.00  0.00    +0.034 A 
ATOM     19 CL   UNL     1     -10.436  -3.929  -0.988  0.00  0.00    -0.082 Cl
ATOM     20 CL   UNL     1     -10.332  -6.733   0.368  0.00  0.00    -0.082 Cl
ENDBRANCH  11  13
ENDBRANCH   2   5
BRANCH   1  26
ATOM     21  C   UNL     1       0.845   0.039  -0.946  0.00  0.00    +0.025 A 
ATOM     22  C   UNL     1       1.974   0.833  -0.959  0.00  0.00    +0.025 A 
ATOM     23  C   UNL     1       2.033   1.971  -0.165  0.00  0.00    +0.030 A 
ATOM     24  C   UNL     1       0.955   2.311   0.642  0.00  0.00    +0.025 A 
ATOM     25  C   UNL     1      -0.175   1.517   0.654  0.00  0.00    +0.025 A 
ATOM     26  C   UNL     1      -0.233   0.379  -0.139  0.00  0.00    +0.034 A 
BRANCH  23  27
ATOM     27  N   UNL     1       3.178   2.775  -0.178  0.00  0.00    -0.320 N 
ATOM     28  C   UNL     1       3.226   4.051   0.555  0.00  0.00    +0.124 C 
ATOM     29  C   UNL     1       4.332   3.955   1.608  0.00  0.00    +0.123 C 
ATOM     30  N   UNL     1       5.550   3.405   1.029  0.00  0.00    -0.313 N 
ATOM     31  C   UNL     1       5.593   2.662  -0.078  0.00  0.00    +0.230 C 
ATOM     32  O   UNL     1       6.659   2.193  -0.419  0.00  0.00    -0.274 OA
ATOM     33  C   UNL     1       4.384   2.377  -0.919  0.00  0.00    +0.200 C 
ATOM     34  H   UNL     1       6.388   3.591   1.480  0.00  0.00    +0.149 HD
ENDBRANCH  23  27
ENDBRANCH   1  26
TORSDOF 4
