REMARK  Name = ZINC39637409
REMARK  7 active torsions:
REMARK  status: ('A' for Active; 'I' for Inactive)
REMARK    1  A    between atoms: C_1  and  C_2
REMARK    2  A    between atoms: C_7  and  N_12
REMARK    3  A    between atoms: C_9  and  C_11
REMARK    4  A    between atoms: C_13  and  C_15
REMARK    5  A    between atoms: C_26  and  C_28
REMARK    6  A    between atoms: C_33  and  O_34
REMARK    7  A    between atoms: O_34  and  C_35
REMARK                            x       y       z     vdW  Elec       q    Type
REMARK                         _______ _______ _______ _____ _____    ______ ____
ROOT
ATOM      1  C   UNL     1       2.564  -4.391   4.120  0.00  0.00    +0.100 C 
ATOM      2  C   UNL     1       3.836  -3.513   4.154  0.00  0.00    +0.121 C 
ATOM      3  N   UNL     1       4.928  -4.451   4.505  0.00  0.00    -0.296 N 
ATOM      4  C   UNL     1       4.609  -5.688   3.753  0.00  0.00    +0.115 C 
ATOM      5  C   UNL     1       3.076  -5.817   3.856  0.00  0.00    -0.004 C 
ATOM      6  C   UNL     1       2.700  -6.736   5.014  0.00  0.00    -0.010 C 
ATOM      7  C   UNL     1       3.169  -8.160   4.703  0.00  0.00    -0.082 C 
ATOM      8  N   UNL     1       2.540  -8.623   3.460  0.00  0.00    +0.379 N 
ATOM      9  C   UNL     1       2.980  -7.790   2.335  0.00  0.00    -0.082 C 
ATOM     10  C   UNL     1       2.503  -6.350   2.546  0.00  0.00    -0.010 C 
ATOM     11  C   UNL     1       5.976  -4.230   5.324  0.00  0.00    +0.252 C 
ATOM     12  O   UNL     1       6.846  -5.072   5.439  0.00  0.00    -0.270 OA
ATOM     13  H   UNL     1       2.802  -9.582   3.289  0.00  0.00    -0.086 HD
ATOM     14  H   UNL     1       1.537  -8.563   3.550  0.00  0.00    -0.086 HD
ENDROOT
BRANCH  11  15
ATOM     15  C   UNL     1       6.068  -2.966   6.079  0.00  0.00    +0.099 A 
ATOM     16  C   UNL     1       5.606  -1.768   5.522  0.00  0.00    +0.020 A 
ATOM     17  C   UNL     1       5.714  -0.610   6.271  0.00  0.00    +0.021 A 
ATOM     18  C   UNL     1       6.270  -0.668   7.537  0.00  0.00    +0.114 A 
ATOM     19  N   UNL     1       6.700  -1.808   8.043  0.00  0.00    -0.220 NA
ATOM     20  C   UNL     1       6.614  -2.944   7.371  0.00  0.00    +0.233 A 
BRANCH  20  21
ATOM     21  O   UNL     1       7.063  -4.092   7.931  0.00  0.00    -0.437 OA
BRANCH  21  22
ATOM     22  C   UNL     1       7.673  -4.015   9.144  0.00  0.00    +0.130 A 
ATOM     23  C   UNL     1       6.912  -3.892  10.297  0.00  0.00    +0.048 A 
ATOM     24  C   UNL     1       7.534  -3.814  11.528  0.00  0.00    +0.023 A 
ATOM     25  C   UNL     1       8.915  -3.858  11.611  0.00  0.00    +0.041 A 
ATOM     26  C   UNL     1       9.675  -3.980  10.462  0.00  0.00    +0.023 A 
ATOM     27  C   UNL     1       9.057  -4.064   9.229  0.00  0.00    +0.048 A 
ATOM     28 CL   UNL     1       9.694  -3.759  13.159  0.00  0.00    -0.084 Cl
ENDBRANCH  21  22
ENDBRANCH  20  21
ENDBRANCH  11  15
BRANCH   1  30
ATOM     29  N   UNL     1       0.323  -4.157   3.100  0.00  0.00    -0.312 N 
ATOM     30  C   UNL     1       1.651  -3.946   3.007  0.00  0.00    +0.218 C 
ATOM     31  O   UNL     1       2.110  -3.399   2.027  0.00  0.00    -0.275 OA
ATOM     32  H   UNL     1      -0.045  -4.595   3.884  0.00  0.00    +0.149 HD
BRANCH  29  38
ATOM     33  C   UNL     1      -4.305  -2.808   2.002  0.00  0.00    +0.008 C 
ATOM     34  C   UNL     1      -2.899  -3.041   1.445  0.00  0.00    -0.009 C 
ATOM     35  C   UNL     1      -2.951  -4.124   0.365  0.00  0.00    +0.003 C 
ATOM     36  C   UNL     1      -1.545  -4.357  -0.191  0.00  0.00    +0.002 C 
ATOM     37  C   UNL     1      -0.618  -4.808   0.939  0.00  0.00    +0.022 C 
ATOM     38  C   UNL     1      -0.565  -3.726   2.018  0.00  0.00    +0.076 C 
ATOM     39  C   UNL     1      -1.971  -3.492   2.575  0.00  0.00    +0.009 C 
ATOM     40  C   UNL     1      -2.502  -4.793   3.182  0.00  0.00    +0.009 C 
ENDBRANCH  29  38
ENDBRANCH   1  30
TORSDOF 5
