REMARK  Name = ZINC37334558
REMARK  5 active torsions:
REMARK  status: ('A' for Active; 'I' for Inactive)
REMARK    1  A    between atoms: C_1  and  C_2
REMARK    2  A    between atoms: N_8  and  C_9
REMARK    3  A    between atoms: C_12  and  C_19
REMARK    4  A    between atoms: C_14  and  C_15
REMARK    5  A    between atoms: N_16  and  O_17
REMARK                            x       y       z     vdW  Elec       q    Type
REMARK                         _______ _______ _______ _____ _____    ______ ____
ROOT
ATOM      1  C   UNL     1       1.351   0.394   2.052  0.00  0.00    +0.041 A 
ATOM      2  C   UNL     1       0.667   0.947   3.127  0.00  0.00    +0.024 A 
ATOM      3  C   UNL     1       1.309   1.827   3.975  0.00  0.00    +0.014 A 
ATOM      4  C   UNL     1       2.635   2.164   3.762  0.00  0.00    +0.056 A 
ATOM      5  C   UNL     1       3.329   1.624   2.700  0.00  0.00    +0.025 A 
ATOM      6  C   UNL     1       2.695   0.729   1.838  0.00  0.00    +0.039 A 
ENDROOT
BRANCH   1  13
ATOM      7  C   UNL     1      -0.019   1.526   0.010  0.00  0.00    +0.028 C 
ATOM      8  C   UNL     1       0.002  -0.004   0.002  0.00  0.00    +0.070 C 
ATOM      9  C   UNL     1      -1.434  -0.537   0.020  0.00  0.00    +0.022 C 
ATOM     10  C   UNL     1      -1.406  -2.062   0.152  0.00  0.00    +0.003 C 
ATOM     11  C   UNL     1      -0.731  -2.449   1.469  0.00  0.00    +0.019 C 
ATOM     12  C   UNL     1       0.713  -1.938   1.468  0.00  0.00    +0.105 C 
ATOM     13  N   UNL     1       0.706  -0.494   1.195  0.00  0.00    -0.327 N 
ENDBRANCH   1  13
BRANCH   6  14
ATOM     14  C   UNL     1       3.435   0.141   0.701  0.00  0.00    +0.164 C 
ATOM     15  N   UNL     1       2.839  -0.690  -0.104  0.00  0.00    -0.071 NA
ATOM     16  N   UNL     1       4.763   0.475   0.493  0.00  0.00    -0.340 N 
ATOM     17  H   UNL     1       5.208   1.094   1.093  0.00  0.00    +0.144 HD
ATOM     18  H   UNL     1       5.249   0.089  -0.253  0.00  0.00    +0.144 HD
BRANCH  15  19
ATOM     19  O   UNL     1       3.548  -1.252  -1.193  0.00  0.00    -0.408 OA
ATOM     20  H   UNL     1       3.023  -1.857  -1.734  0.00  0.00    +0.328 HD
ENDBRANCH  15  19
ENDBRANCH   6  14
BRANCH   4  21
ATOM     21  C   UNL     1       3.323   3.127   4.696  0.00  0.00    +0.417 C 
ATOM     22  F   UNL     1       2.425   3.538   5.687  0.00  0.00    -0.166 F 
ATOM     23  F   UNL     1       4.419   2.494   5.293  0.00  0.00    -0.166 F 
ATOM     24  F   UNL     1       3.764   4.241   3.974  0.00  0.00    -0.166 F 
ENDBRANCH   4  21
TORSDOF 4
