REMARK  Name = ZINC39937073
REMARK  11 active torsions:
REMARK  status: ('A' for Active; 'I' for Inactive)
REMARK    1  A    between atoms: C_1  and  C_2
REMARK    2  A    between atoms: C_4  and  C_7
REMARK    3  A    between atoms: C_8  and  C_9
REMARK    4  A    between atoms: C_8  and  C_10
REMARK    5  A    between atoms: C_15  and  C_41
REMARK    6  A    between atoms: C_20  and  C_40
REMARK    7  A    between atoms: C_22  and  O_39
REMARK    8  A    between atoms: C_24  and  C_38
REMARK    9  A    between atoms: C_28  and  C_36
REMARK   10  A    between atoms: C_28  and  C_37
REMARK   11  A    between atoms: C_29  and  O_35
REMARK                            x       y       z     vdW  Elec       q    Type
REMARK                         _______ _______ _______ _____ _____    ______ ____
ROOT
ATOM      1  C   UNL     1      -4.331  -3.574   0.448  0.00  0.00    +0.205 C 
ATOM      2  C   UNL     1      -5.428  -3.476  -0.617  0.00  0.00    +0.083 C 
ATOM      3  C   UNL     1      -5.645  -4.854  -1.250  0.00  0.00    +0.154 C 
ATOM      4  C   UNL     1      -6.724  -5.014  -2.313  0.00  0.00    +0.093 C 
ATOM      5  O   UNL     1      -5.328  -4.995  -2.636  0.00  0.00    -0.365 OA
ATOM      6  C   UNL     1      -7.435  -6.366  -2.417  0.00  0.00    +0.037 C 
ATOM      7  C   UNL     1      -8.597  -6.442  -1.429  0.00  0.00    +0.003 C 
ATOM      8  C   UNL     1      -8.099  -6.926  -0.064  0.00  0.00    +0.006 C 
ATOM      9  C   UNL     1      -9.094  -7.941   0.503  0.00  0.00    +0.015 C 
ATOM     10  C   UNL     1      -8.559  -8.575   1.780  0.00  0.00    +0.127 C 
ATOM     11  C   UNL     1      -8.681  -7.652   2.995  0.00  0.00    +0.081 C 
ATOM     12  C   UNL     1      -7.441  -7.799   3.845  0.00  0.00    +0.147 C 
ATOM     13  O   UNL     1      -6.887  -8.880   3.883  0.00  0.00    -0.296 OA
ATOM     14  C   UNL     1      -6.875  -6.665   4.657  0.00  0.00    +0.050 C 
ATOM     15  C   UNL     1      -5.676  -6.059   3.933  0.00  0.00    +0.138 C 
ATOM     16  C   UNL     1      -5.938  -4.628   3.475  0.00  0.00    +0.152 C 
ATOM     17  C   UNL     1      -4.726  -4.122   2.722  0.00  0.00    +0.310 C 
ATOM     18  O   UNL     1      -3.626  -4.515   3.030  0.00  0.00    -0.251 OA
ATOM     19  O   UNL     1      -4.877  -3.240   1.725  0.00  0.00    -0.457 OA
ATOM     20  C   UNL     1      -7.939  -5.612   4.953  0.00  0.00    +0.021 C 
ATOM     21  C   UNL     1      -6.386  -7.240   6.000  0.00  0.00    +0.021 C 
ATOM     22  C   UNL     1      -9.888  -8.102   3.834  0.00  0.00    +0.018 C 
ATOM     23  C   UNL     1     -10.448  -7.269   0.728  0.00  0.00    +0.010 C 
ATOM     24  C   UNL     1      -7.547  -3.792  -2.727  0.00  0.00    +0.044 C 
ENDROOT
BRANCH   1  26
ATOM     25  C   UNL     1      -2.015  -3.085  -0.210  0.00  0.00    +0.031 C 
ATOM     26  C   UNL     1      -3.217  -2.618   0.102  0.00  0.00    -0.031 C 
ATOM     27  C   UNL     1      -3.469  -1.133   0.112  0.00  0.00    +0.043 C 
BRANCH  25  31
ATOM     28  C   UNL     1      -0.413   1.385  -1.724  0.00  0.00    +0.073 C 
ATOM     29  C   UNL     1      -0.296  -0.080  -1.392  0.00  0.00    +0.076 A 
ATOM     30  N   UNL     1      -1.226  -0.887  -0.955  0.00  0.00    -0.245 NA
ATOM     31  C   UNL     1      -0.971  -2.165  -0.705  0.00  0.00    +0.071 A 
ATOM     32  C   UNL     1       0.315  -2.585  -0.931  0.00  0.00    +0.074 A 
ATOM     33  S   UNL     1       1.062  -1.068  -1.503  0.00  0.00    -0.080 S 
ENDBRANCH  25  31
ENDBRANCH   1  26
BRANCH  15  34
ATOM     34  O   UNL     1      -5.349  -6.862   2.796  0.00  0.00    -0.390 OA
ATOM     35  H   UNL     1      -4.594  -6.536   2.287  0.00  0.00    +0.210 HD
ENDBRANCH  15  34
BRANCH  10  36
ATOM     36  O   UNL     1      -9.278  -9.786   2.047  0.00  0.00    -0.391 OA
ATOM     37  H   UNL     1      -8.991 -10.245   2.847  0.00  0.00    +0.210 HD
ENDBRANCH  10  36
TORSDOF 4
