REMARK  Name = ZINC40345980
REMARK  6 active torsions:
REMARK  status: ('A' for Active; 'I' for Inactive)
REMARK    1  A    between atoms: C_1  and  C_2
REMARK    2  A    between atoms: C_5  and  C_7
REMARK    3  A    between atoms: C_7  and  C_9
REMARK    4  A    between atoms: C_7  and  N_10
REMARK    5  A    between atoms: C_11  and  C_13
REMARK    6  A    between atoms: C_17  and  N_19
REMARK                            x       y       z     vdW  Elec       q    Type
REMARK                         _______ _______ _______ _____ _____    ______ ____
ROOT
ATOM      1  N   UNL     1       2.811  -2.961  -0.914  0.00  0.00    -0.302 N 
ATOM      2  C   UNL     1       3.494  -3.975  -1.482  0.00  0.00    +0.245 C 
ATOM      3  O   UNL     1       3.174  -5.125  -1.254  0.00  0.00    -0.270 OA
ATOM      4  H   UNL     1       3.066  -2.043  -1.096  0.00  0.00    +0.150 HD
ENDROOT
BRANCH   2   5
ATOM      5  C   UNL     1       4.631  -3.688  -2.382  0.00  0.00    +0.039 A 
ATOM      6  C   UNL     1       5.003  -2.368  -2.640  0.00  0.00    +0.014 A 
ATOM      7  C   UNL     1       6.065  -2.102  -3.480  0.00  0.00    +0.018 A 
ATOM      8  C   UNL     1       6.764  -3.141  -4.068  0.00  0.00    +0.039 A 
ATOM      9  C   UNL     1       6.401  -4.460  -3.817  0.00  0.00    +0.039 A 
ATOM     10  C   UNL     1       5.339  -4.736  -2.970  0.00  0.00    +0.037 A 
ATOM     11 BR   UNL     1       8.218  -2.766  -5.218  0.00  0.00    -0.048 Br
BRANCH   9  12
ATOM     12  N   UNL     1       7.110  -5.506  -4.414  0.00  0.00    -0.357 N 
ATOM     13  H   UNL     1       7.855  -5.312  -5.004  0.00  0.00    +0.142 HD
ATOM     14  H   UNL     1       6.856  -6.425  -4.239  0.00  0.00    +0.142 HD
ENDBRANCH   9  12
ENDBRANCH   2   5
BRANCH   1  15
ATOM     15  C   UNL     1       1.684  -3.245  -0.023  0.00  0.00    +0.136 C 
ATOM     16  C   UNL     1       2.205  -3.494   1.394  0.00  0.00    +0.036 C 
BRANCH  15  21
ATOM     17  C   UNL     1      -0.018   1.503   0.010  0.00  0.00    +0.086 C 
ATOM     18  C   UNL     1       0.002  -0.004   0.002  0.00  0.00    +0.102 A 
ATOM     19  C   UNL     1      -1.078  -0.805   0.003  0.00  0.00    +0.045 A 
ATOM     20  C   UNL     1      -0.601  -2.136  -0.007  0.00  0.00    +0.047 A 
ATOM     21  C   UNL     1       0.742  -2.069  -0.013  0.00  0.00    +0.125 A 
ATOM     22  O   UNL     1       1.102  -0.775  -0.013  0.00  0.00    -0.463 OA
ENDBRANCH  15  21
ENDBRANCH   1  15
TORSDOF 4
