REMARK  Name = ZINC01768885
REMARK  7 active torsions:
REMARK  status: ('A' for Active; 'I' for Inactive)
REMARK    1  A    between atoms: C_8  and  C_13
REMARK    2  A    between atoms: C_13  and  C_14
REMARK    3  A    between atoms: N_16  and  C_17
REMARK    4  A    between atoms: C_22  and  S_23
REMARK    5  A    between atoms: S_23  and  C_24
REMARK    6  A    between atoms: C_24  and  C_25
REMARK    7  A    between atoms: C_25  and  C_26
REMARK                            x       y       z     vdW  Elec       q    Type
REMARK                         _______ _______ _______ _____ _____    ______ ____
ROOT
ATOM      1  C   UNL     1       1.335   5.028   2.485  0.00  0.00    +0.219 C 
ATOM      2  O   UNL     1       1.995   5.562   1.619  0.00  0.00    -0.275 OA
ATOM      3  N   UNL     1       1.671   5.181   3.780  0.00  0.00    -0.285 N 
ATOM      4  H   UNL     1       1.107   4.809   4.476  0.00  0.00    +0.155 HD
ENDROOT
BRANCH   3   5
ATOM      5  C   UNL     1       2.837   5.880   4.124  0.00  0.00    +0.047 A 
ATOM      6  C   UNL     1       3.248   6.962   3.361  0.00  0.00    +0.024 A 
ATOM      7  C   UNL     1       4.398   7.650   3.702  0.00  0.00    +0.002 A 
ATOM      8  C   UNL     1       5.141   7.262   4.802  0.00  0.00    +0.001 A 
ATOM      9  C   UNL     1       4.739   6.185   5.568  0.00  0.00    +0.017 A 
ATOM     10  C   UNL     1       3.583   5.492   5.237  0.00  0.00    +0.035 A 
BRANCH  10  11
ATOM     11  S   UNL     1       3.063   4.122   6.215  0.00  0.00    -0.044 S 
BRANCH  11  12
ATOM     12  C   UNL     1       4.323   4.008   7.515  0.00  0.00    +0.370 C 
ATOM     13  F   UNL     1       5.576   3.794   6.933  0.00  0.00    -0.186 F 
ATOM     14  F   UNL     1       4.346   5.200   8.248  0.00  0.00    -0.186 F 
BRANCH  12  15
ATOM     15  C   UNL     1       3.988   2.842   8.449  0.00  0.00    +0.413 C 
ATOM     16  F   UNL     1       2.735   3.057   9.032  0.00  0.00    -0.188 F 
ATOM     17  F   UNL     1       3.965   1.651   7.717  0.00  0.00    -0.188 F 
BRANCH  15  18
ATOM     18  C   UNL     1       5.051   2.746   9.545  0.00  0.00    +0.461 C 
ATOM     19  F   UNL     1       5.075   3.938  10.278  0.00  0.00    -0.165 F 
ATOM     20  F   UNL     1       4.745   1.681  10.399  0.00  0.00    -0.165 F 
ATOM     21  F   UNL     1       6.305   2.532   8.963  0.00  0.00    -0.165 F 
ENDBRANCH  15  18
ENDBRANCH  12  15
ENDBRANCH  11  12
ENDBRANCH  10  11
ENDBRANCH   3   5
BRANCH   1  22
ATOM     22  C   UNL     1       0.138   4.192   2.111  0.00  0.00    +0.127 C 
BRANCH  22  30
ATOM     23  C   UNL     1       2.356   0.029  -0.017  0.00  0.00    +0.002 A 
ATOM     24  C   UNL     1       1.160  -0.664  -0.018  0.00  0.00    +0.002 A 
ATOM     25  C   UNL     1      -0.043   0.018  -0.008  0.00  0.00    +0.025 A 
ATOM     26  C   UNL     1      -0.051   1.403   0.003  0.00  0.00    +0.055 A 
ATOM     27  C   UNL     1       1.157   2.101  -0.005  0.00  0.00    +0.049 A 
ATOM     28  C   UNL     1       2.358   1.413  -0.010  0.00  0.00    +0.025 A 
ATOM     29  N   UNL     1       1.131   3.503  -0.021  0.00  0.00    -0.331 N 
ATOM     30  C   UNL     1      -0.022   4.181   0.589  0.00  0.00    +0.166 C 
ATOM     31  C   UNL     1      -1.281   3.439   0.217  0.00  0.00    +0.238 C 
ATOM     32  O   UNL     1      -2.324   4.048   0.102  0.00  0.00    -0.273 OA
ATOM     33  N   UNL     1      -1.260   2.110   0.011  0.00  0.00    -0.282 N 
ATOM     34  H   UNL     1       1.853   4.011  -0.424  0.00  0.00    +0.147 HD
ATOM     35  H   UNL     1      -2.093   1.635  -0.133  0.00  0.00    +0.155 HD
ENDBRANCH  22  30
ENDBRANCH   1  22
TORSDOF 7
