REMARK  Name = ZINC10519024
REMARK  8 active torsions:
REMARK  status: ('A' for Active; 'I' for Inactive)
REMARK    1  A    between atoms: C_1  and  C_2
REMARK    2  A    between atoms: C_2  and  O_3
REMARK    3  A    between atoms: O_3  and  C_4
REMARK    4  A    between atoms: C_9  and  S_10
REMARK    5  A    between atoms: S_10  and  N_13
REMARK    6  A    between atoms: C_17  and  S_24
REMARK    7  A    between atoms: C_21  and  C_23
REMARK    8  A    between atoms: S_24  and  N_27
REMARK                            x       y       z     vdW  Elec       q    Type
REMARK                         _______ _______ _______ _____ _____    ______ ____
ROOT
ATOM      1  N   UNL     1       2.630   3.703  -0.026  0.00  0.00    -0.200 N 
ATOM      2  C   UNL     1       1.413   3.049  -0.230  0.00  0.00    +0.055 A 
ATOM      3  C   UNL     1       0.145   3.589  -0.454  0.00  0.00    +0.027 A 
ATOM      4  C   UNL     1      -0.941   2.759  -0.634  0.00  0.00    +0.030 A 
ATOM      5  C   UNL     1      -0.782   1.386  -0.598  0.00  0.00    +0.105 A 
ATOM      6  C   UNL     1       0.469   0.844  -0.371  0.00  0.00    +0.034 A 
ATOM      7  C   UNL     1       1.561   1.671  -0.191  0.00  0.00    -0.021 A 
ATOM      8  C   UNL     1       3.017   1.351   0.064  0.00  0.00    +0.061 C 
ATOM      9  C   UNL     1       3.702   2.723   0.169  0.00  0.00    +0.099 C 
ATOM     10  C   UNL     1       4.336   2.898   1.550  0.00  0.00    +0.030 C 
ENDROOT
BRANCH   1  11
ATOM     11  S   UNL     1       2.831   5.346  -0.007  0.00  0.00    +0.078 S 
ATOM     12  O   UNL     1       4.138   5.601  -0.503  0.00  0.00    -0.150 OA
ATOM     13  O   UNL     1       1.668   5.905  -0.602  0.00  0.00    -0.150 OA
BRANCH  11  19
ATOM     14  C   UNL     1       1.672   5.725   2.440  0.00  0.00    +0.147 A 
ATOM     15  C   UNL     1       1.671   6.124   3.769  0.00  0.00    +0.049 A 
ATOM     16  C   UNL     1       2.818   6.647   4.334  0.00  0.00    +0.019 A 
ATOM     17  C   UNL     1       3.968   6.774   3.574  0.00  0.00    +0.020 A 
ATOM     18  C   UNL     1       3.973   6.371   2.251  0.00  0.00    +0.047 A 
ATOM     19  C   UNL     1       2.826   5.852   1.681  0.00  0.00    +0.151 A 
ATOM     20 BR   UNL     1       5.537   7.490   4.349  0.00  0.00    -0.050 Br
BRANCH  14  21
ATOM     21  O   UNL     1       0.544   5.210   1.883  0.00  0.00    -0.490 OA
BRANCH  21  23
ATOM     22  C   UNL     1      -1.815   4.690   1.867  0.00  0.00    +0.048 C 
ATOM     23  C   UNL     1      -0.633   5.201   2.693  0.00  0.00    +0.226 C 
ENDBRANCH  21  23
ENDBRANCH  14  21
ENDBRANCH  11  19
ENDBRANCH   1  11
BRANCH   5  24
ATOM     24  S   UNL     1      -2.172   0.330  -0.834  0.00  0.00    +0.056 S 
ATOM     25  O   UNL     1      -3.131   1.078  -1.570  0.00  0.00    -0.153 OA
ATOM     26  O   UNL     1      -1.663  -0.915  -1.292  0.00  0.00    -0.153 OA
BRANCH  24  27
ATOM     27  N   UNL     1      -2.835   0.050   0.658  0.00  0.00    -0.204 NA
ATOM     28  H   UNL     1      -2.439   0.452   1.447  0.00  0.00    +0.144 HD
ATOM     29  H   UNL     1      -3.619  -0.515   0.742  0.00  0.00    +0.144 HD
ENDBRANCH  24  27
ENDBRANCH   5  24
TORSDOF 6
