REMARK  Name = ZINC67246656
REMARK  5 active torsions:
REMARK  status: ('A' for Active; 'I' for Inactive)
REMARK    1  A    between atoms: C_1  and  C_2
REMARK    2  A    between atoms: C_3  and  C_17
REMARK    3  A    between atoms: N_6  and  C_7
REMARK    4  A    between atoms: N_19  and  N_20
REMARK    5  A    between atoms: N_20  and  C_21
REMARK                            x       y       z     vdW  Elec       q    Type
REMARK                         _______ _______ _______ _____ _____    ______ ____
ROOT
ATOM      1  C   UNL     1      -0.018   1.503   0.010  0.00  0.00    +0.068 C 
ATOM      2  C   UNL     1       0.002  -0.004   0.002  0.00  0.00    +0.074 A 
ATOM      3  C   UNL     1       0.009  -0.813  -1.099  0.00  0.00    +0.172 A 
ATOM      4  N   UNL     1       0.028  -2.092  -0.688  0.00  0.00    -0.124 NA
ATOM      5  N   UNL     1       0.034  -2.131   0.599  0.00  0.00    -0.060 NA
ATOM      6  N   UNL     1       0.023  -0.815   1.082  0.00  0.00    -0.216 N 
ENDROOT
BRANCH   6   7
ATOM      7  C   UNL     1       0.030  -0.417   2.427  0.00  0.00    +0.071 A 
ATOM      8  C   UNL     1       0.703   0.737   2.807  0.00  0.00    +0.031 A 
ATOM      9  C   UNL     1       0.711   1.128   4.131  0.00  0.00    +0.051 A 
ATOM     10  C   UNL     1       0.048   0.371   5.086  0.00  0.00    +0.162 A 
ATOM     11  C   UNL     1      -0.628  -0.783   4.708  0.00  0.00    +0.164 A 
ATOM     12  C   UNL     1      -0.640  -1.174   3.378  0.00  0.00    +0.077 A 
ATOM     13  O   UNL     1      -1.292  -1.535   5.629  0.00  0.00    -0.485 OA
ATOM     14  C   UNL     1      -0.953  -1.316   7.003  0.00  0.00    +0.270 C 
ATOM     15  C   UNL     1      -0.915   0.198   7.253  0.00  0.00    +0.270 C 
ATOM     16  O   UNL     1       0.070   0.771   6.387  0.00  0.00    -0.485 OA
ENDBRANCH   6   7
BRANCH   3  17
ATOM     17  C   UNL     1      -0.004  -0.358  -2.503  0.00  0.00    +0.282 C 
ATOM     18  O   UNL     1      -0.022   0.831  -2.757  0.00  0.00    -0.267 OA
ATOM     19  N   UNL     1       0.004  -1.261  -3.503  0.00  0.00    -0.231 N 
ATOM     20  H   UNL     1       0.019  -2.210  -3.301  0.00  0.00    +0.173 HD
BRANCH  19  21
ATOM     21  N   UNL     1      -0.008  -0.830  -4.836  0.00  0.00    -0.264 N 
ATOM     22  H   UNL     1      -0.022   0.119  -5.039  0.00  0.00    +0.170 HD
BRANCH  21  23
ATOM     23  C   UNL     1       0.001  -1.766  -5.874  0.00  0.00    +0.045 A 
ATOM     24  C   UNL     1       0.016  -3.125  -5.585  0.00  0.00    +0.027 A 
ATOM     25  C   UNL     1       0.024  -4.048  -6.613  0.00  0.00    +0.040 A 
ATOM     26  C   UNL     1       0.019  -3.620  -7.929  0.00  0.00    +0.124 A 
ATOM     27  C   UNL     1       0.004  -2.267  -8.220  0.00  0.00    +0.040 A 
ATOM     28  C   UNL     1      -0.011  -1.340  -7.196  0.00  0.00    +0.027 A 
ATOM     29  F   UNL     1       0.028  -4.525  -8.933  0.00  0.00    -0.205 F 
ENDBRANCH  21  23
ENDBRANCH  19  21
ENDBRANCH   3  17
TORSDOF 4
