REMARK  Name = ZINC40520845
REMARK  3 active torsions:
REMARK  status: ('A' for Active; 'I' for Inactive)
REMARK    1  A    between atoms: C_3  and  N_12
REMARK    2  A    between atoms: C_6  and  C_7
REMARK    3  A    between atoms: C_8  and  C_9
REMARK                            x       y       z     vdW  Elec       q    Type
REMARK                         _______ _______ _______ _____ _____    ______ ____
ROOT
ATOM      1  C   UNL     1      -0.013   1.393  -0.189  0.00  0.00    +0.010 A 
ATOM      2  C   UNL     1       1.168   2.090  -0.190  0.00  0.00    +0.024 A 
ATOM      3  C   UNL     1       2.376   1.419  -0.020  0.00  0.00    +0.035 A 
ATOM      4  C   UNL     1       2.391   0.038   0.153  0.00  0.00    +0.024 A 
ATOM      5  C   UNL     1       1.215  -0.668   0.155  0.00  0.00    +0.010 A 
ATOM      6  C   UNL     1      -0.002   0.003  -0.016  0.00  0.00    -0.025 A 
ENDROOT
BRANCH   3   7
ATOM      7  N   UNL     1       3.573   2.132  -0.022  0.00  0.00    -0.269 N 
ATOM      8  C   UNL     1       3.614   3.383   0.477  0.00  0.00    +0.310 C 
ATOM      9  O   UNL     1       2.631   3.854   1.017  0.00  0.00    -0.252 OA
ATOM     10  N   UNL     1       4.743   4.112   0.378  0.00  0.00    -0.247 N 
ATOM     11  C   UNL     1       4.785   5.403   0.893  0.00  0.00    +0.189 A 
ATOM     12  N   UNL     1       3.839   6.082   1.512  0.00  0.00    -0.126 NA
ATOM     13  N   UNL     1       4.027   7.261   1.929  0.00  0.00    -0.148 NA
ATOM     14  C   UNL     1       5.202   7.828   1.740  0.00  0.00    +0.183 A 
ATOM     15  S   UNL     1       6.060   6.506   0.896  0.00  0.00    -0.039 S 
ATOM     16  H   UNL     1       4.378   1.728  -0.383  0.00  0.00    +0.156 HD
ATOM     17  H   UNL     1       5.527   3.736  -0.052  0.00  0.00    +0.158 HD
ENDBRANCH   3   7
BRANCH   6  18
ATOM     18  C   UNL     1      -1.264  -0.748  -0.014  0.00  0.00    +0.015 C 
ATOM     19  C   UNL     1      -1.252  -2.091   0.153  0.00  0.00    +0.096 C 
BRANCH  19  20
ATOM     20  C   UNL     1      -2.466  -2.814   0.155  0.00  0.00    +0.380 C 
ATOM     21  O   UNL     1      -3.530  -2.225   0.005  0.00  0.00    -0.241 OA
ATOM     22  O   UNL     1      -2.455  -4.030   0.307  0.00  0.00    -0.241 OA
ENDBRANCH  19  20
ENDBRANCH   6  18
TORSDOF 3
