REMARK  Name = ZINC39853471
REMARK  6 active torsions:
REMARK  status: ('A' for Active; 'I' for Inactive)
REMARK    1  A    between atoms: C_1  and  C_2
REMARK    2  A    between atoms: N_4  and  C_5
REMARK    3  A    between atoms: C_6  and  C_14
REMARK    4  A    between atoms: C_14  and  C_16
REMARK    5  A    between atoms: C_14  and  N_23
REMARK    6  A    between atoms: N_26  and  C_29
REMARK                            x       y       z     vdW  Elec       q    Type
REMARK                         _______ _______ _______ _____ _____    ______ ____
ROOT
ATOM      1  C   UNL     1      -0.255  -2.366  -3.691  0.00  0.00    -0.004 C 
ENDROOT
BRANCH   1   3
ATOM      2  C   UNL     1      -0.274  -2.622  -1.220  0.00  0.00    +0.074 A 
ATOM      3  C   UNL     1      -0.285  -3.212  -2.444  0.00  0.00    -0.025 A 
ATOM      4  C   UNL     1      -0.327  -4.603  -2.544  0.00  0.00    -0.033 A 
ATOM      5  C   UNL     1      -0.354  -5.297  -1.375  0.00  0.00    -0.005 A 
ATOM      6  S   UNL     1      -0.315  -4.036  -0.130  0.00  0.00    -0.078 S 
ATOM      7  C   UNL     1      -0.401  -6.780  -1.197  0.00  0.00    +0.043 C 
ATOM      8  C   UNL     1      -0.785  -7.416  -2.542  0.00  0.00    +0.005 C 
ATOM      9  C   UNL     1       0.078  -6.794  -3.643  0.00  0.00    +0.005 C 
ATOM     10  C   UNL     1      -0.341  -5.343  -3.879  0.00  0.00    +0.036 C 
BRANCH   2  14
ATOM     11  C   UNL     1      -0.050   0.588   0.733  0.00  0.00    +0.109 C 
ATOM     12  C   UNL     1      -0.093  -0.878   0.386  0.00  0.00    +0.214 C 
ATOM     13  O   UNL     1      -0.000  -1.712   1.262  0.00  0.00    -0.276 OA
ATOM     14  N   UNL     1      -0.234  -1.262  -0.898  0.00  0.00    -0.280 N 
ATOM     15  H   UNL     1      -0.308  -0.596  -1.599  0.00  0.00    +0.155 HD
ENDBRANCH   2  14
ENDBRANCH   1   3
BRANCH   1  16
ATOM     16  C   UNL     1      -1.573  -1.652  -3.846  0.00  0.00    -0.056 A 
ATOM     17  C   UNL     1      -1.703  -0.343  -3.422  0.00  0.00    +0.005 A 
ATOM     18  C   UNL     1      -2.911   0.313  -3.564  0.00  0.00    +0.038 A 
ATOM     19  C   UNL     1      -3.991  -0.341  -4.132  0.00  0.00    +0.123 A 
ATOM     20  C   UNL     1      -3.859  -1.652  -4.557  0.00  0.00    +0.038 A 
ATOM     21  C   UNL     1      -2.648  -2.304  -4.418  0.00  0.00    +0.005 A 
ATOM     22  F   UNL     1      -5.172   0.299  -4.271  0.00  0.00    -0.205 F 
ENDBRANCH   1  16
BRANCH   1  23
ATOM     23  N   UNL     1       0.828  -1.379  -3.586  0.00  0.00    +0.389 N 
ATOM     24  C   UNL     1       0.935  -0.636  -4.848  0.00  0.00    -0.058 C 
ATOM     25  C   UNL     1       1.985   0.470  -4.701  0.00  0.00    +0.086 C 
ATOM     26  N   UNL     1       3.244  -0.140  -4.247  0.00  0.00    -0.333 N 
ATOM     27  C   UNL     1       3.200  -1.035  -3.081  0.00  0.00    +0.086 C 
ATOM     28  C   UNL     1       2.093  -2.070  -3.304  0.00  0.00    -0.058 C 
ATOM     29  H   UNL     1       0.623  -0.735  -2.836  0.00  0.00    -0.080 HD
BRANCH  26  30
ATOM     30  C   UNL     1       4.448   0.123  -4.906  0.00  0.00    +0.030 A 
ATOM     31  C   UNL     1       4.479   1.017  -5.968  0.00  0.00    +0.023 A 
ATOM     32  C   UNL     1       5.671   1.276  -6.616  0.00  0.00    +0.002 A 
ATOM     33  C   UNL     1       6.832   0.645  -6.209  0.00  0.00    +0.000 A 
ATOM     34  C   UNL     1       6.805  -0.246  -5.152  0.00  0.00    +0.002 A 
ATOM     35  C   UNL     1       5.617  -0.505  -4.495  0.00  0.00    +0.023 A 
ENDBRANCH  26  30
ENDBRANCH   1  23
TORSDOF 5
