REMARK  Name = ZINC09910194
REMARK  7 active torsions:
REMARK  status: ('A' for Active; 'I' for Inactive)
REMARK    1  A    between atoms: C_6  and  N_7
REMARK    2  A    between atoms: C_8  and  C_10
REMARK    3  A    between atoms: C_14  and  N_15
REMARK    4  A    between atoms: C_16  and  C_18
REMARK    5  A    between atoms: C_18  and  S_19
REMARK    6  A    between atoms: S_19  and  C_20
REMARK    7  A    between atoms: N_24  and  C_25
REMARK                            x       y       z     vdW  Elec       q    Type
REMARK                         _______ _______ _______ _____ _____    ______ ____
ROOT
ATOM      1  C   UNL     1      -0.521   0.981   2.416  0.00  0.00    +0.069 A 
ATOM      2  C   UNL     1      -0.573   1.678   1.145  0.00  0.00    -0.023 A 
ATOM      3  C   UNL     1      -1.469   2.689   1.077  0.00  0.00    -0.004 A 
ATOM      4  S   UNL     1      -2.231   2.722   2.675  0.00  0.00    -0.077 S 
ATOM      5  C   UNL     1      -1.376   1.413   3.420  0.00  0.00    +0.084 A 
ATOM      6  C   UNL     1      -1.744   3.578  -0.096  0.00  0.00    +0.043 C 
ATOM      7  C   UNL     1      -0.595   3.418  -1.103  0.00  0.00    +0.005 C 
ATOM      8  C   UNL     1      -0.330   1.925  -1.315  0.00  0.00    +0.005 C 
ATOM      9  C   UNL     1       0.296   1.323  -0.056  0.00  0.00    +0.037 C 
ENDROOT
BRANCH   1  11
ATOM     10  N   UNL     1       1.642   0.095   3.105  0.00  0.00    -0.281 N 
ATOM     11  C   UNL     1       0.402  -0.137   2.632  0.00  0.00    +0.251 C 
ATOM     12  O   UNL     1       0.048  -1.275   2.384  0.00  0.00    -0.270 OA
ATOM     13  H   UNL     1       1.951   1.006   3.231  0.00  0.00    +0.155 HD
BRANCH  10  19
ATOM     14  C   UNL     1       3.856  -0.864   3.227  0.00  0.00    +0.025 A 
ATOM     15  C   UNL     1       4.685  -1.923   3.539  0.00  0.00    +0.022 A 
ATOM     16  C   UNL     1       4.151  -3.101   4.029  0.00  0.00    +0.041 A 
ATOM     17  C   UNL     1       2.784  -3.220   4.214  0.00  0.00    +0.022 A 
ATOM     18  C   UNL     1       1.950  -2.162   3.909  0.00  0.00    +0.025 A 
ATOM     19  C   UNL     1       2.485  -0.978   3.416  0.00  0.00    +0.034 A 
ATOM     20 CL   UNL     1       5.196  -4.433   4.414  0.00  0.00    -0.084 Cl
ENDBRANCH  10  19
ENDBRANCH   1  11
BRANCH   5  21
ATOM     21  N   UNL     1      -1.512   0.917   4.708  0.00  0.00    -0.279 N 
ATOM     22  C   UNL     1      -2.405   1.470   5.552  0.00  0.00    +0.228 C 
ATOM     23  O   UNL     1      -3.090   2.402   5.186  0.00  0.00    -0.275 OA
ATOM     24  H   UNL     1      -0.965   0.172   5.001  0.00  0.00    +0.155 HD
BRANCH  22  25
ATOM     25  C   UNL     1      -2.554   0.931   6.952  0.00  0.00    +0.173 C 
BRANCH  25  26
ATOM     26  S   UNL     1      -3.822   1.877   7.831  0.00  0.00    -0.077 S 
BRANCH  26  27
ATOM     27  C   UNL     1      -3.788   1.058   9.391  0.00  0.00    +0.192 A 
ATOM     28  N   UNL     1      -3.017   0.049   9.726  0.00  0.00    -0.123 NA
ATOM     29  N   UNL     1      -3.256  -0.299  10.940  0.00  0.00    -0.137 NA
ATOM     30  C   UNL     1      -4.185   0.461  11.448  0.00  0.00    +0.226 A 
ATOM     31  N   UNL     1      -4.553   1.356  10.482  0.00  0.00    -0.305 N 
BRANCH  31  32
ATOM     32  C   UNL     1      -5.561   2.413  10.593  0.00  0.00    +0.091 C 
ATOM     33  C   UNL     1      -6.148   2.687  11.979  0.00  0.00    +0.027 C 
ATOM     34  C   UNL     1      -6.996   1.990  10.913  0.00  0.00    +0.027 C 
ENDBRANCH  31  32
ENDBRANCH  26  27
ENDBRANCH  25  26
ENDBRANCH  22  25
ENDBRANCH   5  21
TORSDOF 7
