REMARK  Name = ZINC10029383
REMARK  7 active torsions:
REMARK  status: ('A' for Active; 'I' for Inactive)
REMARK    1  A    between atoms: C_1  and  C_2
REMARK    2  A    between atoms: N_4  and  C_5
REMARK    3  A    between atoms: C_8  and  S_11
REMARK    4  A    between atoms: S_11  and  N_14
REMARK    5  A    between atoms: C_17  and  N_20
REMARK    6  A    between atoms: C_21  and  C_23
REMARK    7  A    between atoms: C_24  and  C_25
REMARK                            x       y       z     vdW  Elec       q    Type
REMARK                         _______ _______ _______ _____ _____    ______ ____
ROOT
ATOM      1  N   UNL     1      -5.734   3.587   2.024  0.00  0.00    -0.176 NA
ATOM      2  C   UNL     1      -6.365   2.554   2.857  0.00  0.00    +0.111 C 
ATOM      3  C   UNL     1      -7.586   3.153   3.553  0.00  0.00    +0.039 C 
ATOM      4  C   UNL     1      -7.168   4.410   4.319  0.00  0.00    +0.076 C 
ATOM      5  C   UNL     1      -6.611   5.445   3.340  0.00  0.00    +0.039 C 
ATOM      6  C   UNL     1      -5.374   4.870   2.643  0.00  0.00    +0.111 C 
ENDROOT
BRANCH   4   7
ATOM      7  N   UNL     1      -8.331   4.969   5.012  0.00  0.00    -0.309 N 
ATOM      8  C   UNL     1      -8.682   4.500   6.226  0.00  0.00    +0.237 C 
ATOM      9  O   UNL     1      -8.033   3.612   6.747  0.00  0.00    -0.271 OA
ATOM     10  H   UNL     1      -8.849   5.677   4.597  0.00  0.00    +0.149 HD
BRANCH   8  11
ATOM     11  C   UNL     1      -9.845   5.059   6.918  0.00  0.00    +0.068 C 
ATOM     12  C   UNL     1     -10.197   4.590   8.132  0.00  0.00    +0.014 C 
BRANCH  12  13
ATOM     13  C   UNL     1     -11.365   5.151   8.828  0.00  0.00    -0.006 A 
ATOM     14  C   UNL     1     -12.110   6.176   8.235  0.00  0.00    +0.011 A 
ATOM     15  C   UNL     1     -13.207   6.694   8.890  0.00  0.00    +0.020 A 
ATOM     16  C   UNL     1     -13.566   6.210  10.138  0.00  0.00    +0.042 A 
ATOM     17  C   UNL     1     -12.830   5.199  10.734  0.00  0.00    +0.040 A 
ATOM     18  C   UNL     1     -11.733   4.667  10.089  0.00  0.00    +0.049 A 
ATOM     19 CL   UNL     1     -10.812   3.400  10.837  0.00  0.00    -0.083 Cl
ATOM     20 CL   UNL     1     -14.945   6.873  10.957  0.00  0.00    -0.083 Cl
ENDBRANCH  12  13
ENDBRANCH   8  11
ENDBRANCH   4   7
BRANCH   1  21
ATOM     21  S   UNL     1      -5.439   3.312   0.418  0.00  0.00    +0.061 S 
ATOM     22  O   UNL     1      -5.379   4.587  -0.207  0.00  0.00    -0.153 OA
ATOM     23  O   UNL     1      -6.351   2.304   0.005  0.00  0.00    -0.153 OA
BRANCH  21  27
ATOM     24  C   UNL     1      -1.292   1.520   0.104  0.00  0.00    +0.033 A 
ATOM     25  C   UNL     1      -1.460   2.897   0.056  0.00  0.00    +0.025 A 
ATOM     26  C   UNL     1      -2.727   3.441   0.145  0.00  0.00    +0.030 A 
ATOM     27  C   UNL     1      -3.826   2.615   0.296  0.00  0.00    +0.106 A 
ATOM     28  C   UNL     1      -3.662   1.243   0.350  0.00  0.00    +0.030 A 
ATOM     29  C   UNL     1      -2.398   0.693   0.255  0.00  0.00    +0.025 A 
BRANCH  24  33
ATOM     30  C   UNL     1       2.335   1.032  -0.773  0.00  0.00    +0.109 C 
ATOM     31  C   UNL     1       0.924   1.561  -0.759  0.00  0.00    +0.214 C 
ATOM     32  O   UNL     1       0.631   2.523  -1.436  0.00  0.00    -0.276 OA
ATOM     33  N   UNL     1      -0.011   0.966   0.007  0.00  0.00    -0.286 N 
ATOM     34  H   UNL     1       0.203   0.151   0.488  0.00  0.00    +0.155 HD
ENDBRANCH  24  33
ENDBRANCH  21  27
ENDBRANCH   1  21
TORSDOF 6
