REMARK  Name = ZINC14836498
REMARK  11 active torsions:
REMARK  status: ('A' for Active; 'I' for Inactive)
REMARK    1  A    between atoms: C_1  and  C_2
REMARK    2  A    between atoms: C_2  and  C_3
REMARK    3  A    between atoms: C_3  and  C_5
REMARK    4  A    between atoms: C_3  and  N_6
REMARK    5  A    between atoms: C_7  and  C_9
REMARK    6  A    between atoms: C_13  and  N_15
REMARK    7  A    between atoms: N_15  and  C_16
REMARK    8  A    between atoms: C_16  and  N_18
REMARK    9  A    between atoms: C_19  and  C_21
REMARK   10  A    between atoms: C_26  and  O_27
REMARK   11  A    between atoms: O_27  and  C_28
REMARK                            x       y       z     vdW  Elec       q    Type
REMARK                         _______ _______ _______ _____ _____    ______ ____
ROOT
ATOM      1  N   UNL     1       3.512   7.343   0.006  0.00  0.00    -0.297 N 
ATOM      2  H   UNL     1       3.434   6.563  -0.565  0.00  0.00    +0.154 HD
ENDROOT
BRANCH   1   7
ATOM      3  C   UNL     1       5.687  10.318  -0.083  0.00  0.00    +0.038 A 
ATOM      4  C   UNL     1       6.943   9.716  -0.180  0.00  0.00    +0.013 A 
ATOM      5  C   UNL     1       7.048   8.341  -0.214  0.00  0.00    +0.003 A 
ATOM      6  C   UNL     1       5.913   7.554  -0.153  0.00  0.00    +0.023 A 
ATOM      7  C   UNL     1       4.658   8.143  -0.056  0.00  0.00    +0.033 A 
ATOM      8  C   UNL     1       4.541   9.525  -0.027  0.00  0.00    +0.036 A 
BRANCH   3  10
ATOM      9  N   UNL     1       6.680  12.556  -0.107  0.00  0.00    -0.309 N 
ATOM     10  C   UNL     1       5.571  11.792  -0.047  0.00  0.00    +0.244 C 
ATOM     11  O   UNL     1       4.477  12.313   0.037  0.00  0.00    -0.270 OA
ATOM     12  H   UNL     1       7.553  12.140  -0.174  0.00  0.00    +0.149 HD
BRANCH   9  13
ATOM     13  C   UNL     1       6.565  14.016  -0.071  0.00  0.00    +0.070 C 
ATOM     14  C   UNL     1       6.497  14.486   1.384  0.00  0.00    +0.028 C 
BRANCH  13  16
ATOM     15  C   UNL     1       7.784  14.271  -2.237  0.00  0.00    +0.005 C 
ATOM     16  C   UNL     1       7.785  14.640  -0.752  0.00  0.00    +0.018 C 
ENDBRANCH  13  16
ENDBRANCH   9  13
ENDBRANCH   3  10
ENDBRANCH   1   7
BRANCH   1  17
ATOM     17  C   UNL     1       2.516   7.657   0.858  0.00  0.00    +0.141 C 
ATOM     18  S   UNL     1       2.711   8.949   1.964  0.00  0.00    -0.018 S 
BRANCH  17  19
ATOM     19  N   UNL     1       1.367   6.953   0.840  0.00  0.00    -0.263 N 
ATOM     20  C   UNL     1       0.371   7.267   1.692  0.00  0.00    +0.253 C 
ATOM     21  O   UNL     1       0.510   8.184   2.477  0.00  0.00    -0.270 OA
ATOM     22  H   UNL     1       1.256   6.221   0.213  0.00  0.00    +0.157 HD
BRANCH  20  23
ATOM     23  C   UNL     1      -0.886   6.497   1.672  0.00  0.00    +0.080 A 
ATOM     24  C   UNL     1      -1.050   5.441   0.771  0.00  0.00    +0.032 A 
ATOM     25  C   UNL     1      -2.228   4.726   0.758  0.00  0.00    +0.019 A 
ATOM     26  C   UNL     1      -3.250   5.045   1.638  0.00  0.00    +0.019 A 
ATOM     27  C   UNL     1      -3.103   6.089   2.530  0.00  0.00    +0.047 A 
ATOM     28  C   UNL     1      -1.925   6.820   2.557  0.00  0.00    +0.132 A 
ATOM     29 BR   UNL     1      -2.447   3.297  -0.461  0.00  0.00    -0.050 Br
BRANCH  28  30
ATOM     30  O   UNL     1      -1.777   7.843   3.436  0.00  0.00    -0.494 OA
ATOM     31  C   UNL     1      -2.877   8.113   4.307  0.00  0.00    +0.277 C 
ENDBRANCH  28  30
ENDBRANCH  20  23
ENDBRANCH  17  19
ENDBRANCH   1  17
TORSDOF 8
