REMARK  Name = ZINC13070191
REMARK  6 active torsions:
REMARK  status: ('A' for Active; 'I' for Inactive)
REMARK    1  A    between atoms: C_1  and  C_2
REMARK    2  A    between atoms: C_5  and  N_8
REMARK    3  A    between atoms: C_9  and  C_11
REMARK    4  A    between atoms: C_14  and  N_17
REMARK    5  A    between atoms: N_17  and  S_18
REMARK    6  A    between atoms: S_18  and  C_21
REMARK                            x       y       z     vdW  Elec       q    Type
REMARK                         _______ _______ _______ _____ _____    ______ ____
ROOT
ATOM      1  C   UNL     1      -1.163  -1.017   0.021  0.00  0.00    +0.037 A 
ATOM      2  C   UNL     1      -2.240  -0.154   0.248  0.00  0.00    +0.015 A 
ATOM      3  C   UNL     1      -3.521  -0.653   0.297  0.00  0.00    +0.025 A 
ATOM      4  C   UNL     1      -3.745  -2.017   0.133  0.00  0.00    +0.048 A 
ATOM      5  C   UNL     1      -2.675  -2.880  -0.088  0.00  0.00    +0.025 A 
ATOM      6  C   UNL     1      -1.392  -2.387  -0.144  0.00  0.00    +0.015 A 
ENDROOT
BRANCH   1   8
ATOM      7  N   UNL     1       0.429   0.836   0.120  0.00  0.00    -0.282 N 
ATOM      8  C   UNL     1       0.211  -0.485  -0.039  0.00  0.00    +0.248 C 
ATOM      9  O   UNL     1       1.146  -1.237  -0.232  0.00  0.00    -0.270 OA
ATOM     10  H   UNL     1      -0.321   1.446   0.195  0.00  0.00    +0.155 HD
BRANCH   7  15
ATOM     11  C   UNL     1       5.737   2.827   0.334  0.00  0.00    +0.044 C 
ATOM     12  C   UNL     1       4.327   2.298   0.277  0.00  0.00    -0.050 A 
ATOM     13  C   UNL     1       3.324   3.066  -0.284  0.00  0.00    +0.005 A 
ATOM     14  C   UNL     1       2.030   2.584  -0.338  0.00  0.00    +0.023 A 
ATOM     15  C   UNL     1       1.738   1.326   0.173  0.00  0.00    +0.034 A 
ATOM     16  C   UNL     1       2.747   0.559   0.741  0.00  0.00    +0.023 A 
ATOM     17  C   UNL     1       4.039   1.045   0.787  0.00  0.00    +0.005 A 
ENDBRANCH   7  15
ENDBRANCH   1   8
BRANCH   4  18
ATOM     18  N   UNL     1      -5.041  -2.519   0.189  0.00  0.00    -0.216 N 
ATOM     19  H   UNL     1      -5.342  -3.160  -0.474  0.00  0.00    +0.174 HD
BRANCH  18  20
ATOM     20  S   UNL     1      -6.070  -2.023   1.388  0.00  0.00    +0.072 S 
ATOM     21  O   UNL     1      -6.044  -0.603   1.384  0.00  0.00    -0.150 OA
ATOM     22  O   UNL     1      -7.271  -2.764   1.224  0.00  0.00    -0.150 OA
BRANCH  20  23
ATOM     23  C   UNL     1      -5.368  -2.535   2.921  0.00  0.00    +0.112 A 
ATOM     24  C   UNL     1      -5.600  -3.814   3.392  0.00  0.00    +0.032 A 
ATOM     25  C   UNL     1      -5.048  -4.225   4.592  0.00  0.00    +0.051 A 
ATOM     26  C   UNL     1      -4.270  -3.345   5.327  0.00  0.00    +0.162 A 
ATOM     27  C   UNL     1      -4.042  -2.060   4.857  0.00  0.00    +0.164 A 
ATOM     28  C   UNL     1      -4.592  -1.654   3.652  0.00  0.00    +0.078 A 
ATOM     29  O   UNL     1      -3.273  -1.201   5.587  0.00  0.00    -0.488 OA
ATOM     30  C   UNL     1      -3.833  -0.762   6.827  0.00  0.00    +0.232 C 
ATOM     31  C   UNL     1      -3.558  -1.771   7.931  0.00  0.00    +0.082 C 
ATOM     32  C   UNL     1      -4.249  -3.103   7.683  0.00  0.00    +0.232 C 
ATOM     33  O   UNL     1      -3.723  -3.736   6.514  0.00  0.00    -0.488 OA
ENDBRANCH  20  23
ENDBRANCH  18  20
ENDBRANCH   4  18
TORSDOF 5
