REMARK  Name = ZINC14111086
REMARK  7 active torsions:
REMARK  status: ('A' for Active; 'I' for Inactive)
REMARK    1  A    between atoms: C_3  and  C_25
REMARK    2  A    between atoms: C_5  and  N_7
REMARK    3  A    between atoms: C_8  and  C_10
REMARK    4  A    between atoms: C_10  and  C_11
REMARK    5  A    between atoms: C_11  and  N_12
REMARK    6  A    between atoms: N_27  and  C_28
REMARK    7  A    between atoms: C_32  and  C_34
REMARK                            x       y       z     vdW  Elec       q    Type
REMARK                         _______ _______ _______ _____ _____    ______ ____
ROOT
ATOM      1  C   UNL     1       2.810   0.956  -0.882  0.00  0.00    +0.003 A 
ATOM      2  C   UNL     1       2.265   2.073  -0.282  0.00  0.00    +0.013 A 
ATOM      3  C   UNL     1       1.081   1.965   0.450  0.00  0.00    +0.039 A 
ATOM      4  C   UNL     1       0.452   0.726   0.571  0.00  0.00    +0.036 A 
ATOM      5  C   UNL     1       1.007  -0.390  -0.036  0.00  0.00    +0.034 A 
ATOM      6  C   UNL     1       2.187  -0.272  -0.762  0.00  0.00    +0.023 A 
ENDROOT
BRANCH   5   7
ATOM      7  N   UNL     1       0.380  -1.636   0.083  0.00  0.00    -0.285 N 
ATOM      8  C   UNL     1      -0.964  -1.710   0.153  0.00  0.00    +0.219 C 
ATOM      9  O   UNL     1      -1.634  -0.708   0.021  0.00  0.00    -0.275 OA
ATOM     10  H   UNL     1       0.913  -2.446   0.114  0.00  0.00    +0.155 HD
BRANCH   8  11
ATOM     11  C   UNL     1      -1.634  -3.037   0.397  0.00  0.00    +0.115 C 
BRANCH  11  12
ATOM     12  C   UNL     1      -3.151  -2.844   0.431  0.00  0.00    +0.125 C 
BRANCH  12  13
ATOM     13  N   UNL     1      -3.802  -4.135   0.668  0.00  0.00    -0.241 N 
ATOM     14  C   UNL     1      -4.178  -4.976  -0.333  0.00  0.00    +0.226 C 
ATOM     15  O   UNL     1      -4.238  -4.722  -1.516  0.00  0.00    -0.275 OA
ATOM     16  C   UNL     1      -4.501  -6.280   0.325  0.00  0.00    +0.087 C 
ATOM     17  C   UNL     1      -5.591  -7.157  -0.246  0.00  0.00    +0.013 C 
ATOM     18  C   UNL     1      -5.709  -8.378   0.684  0.00  0.00    +0.001 C 
ATOM     19  C   UNL     1      -5.980  -7.975   2.130  0.00  0.00    +0.001 C 
ATOM     20  C   UNL     1      -4.947  -6.951   2.644  0.00  0.00    +0.013 C 
ATOM     21  C   UNL     1      -5.012  -5.770   1.705  0.00  0.00    +0.087 C 
ATOM     22  C   UNL     1      -4.085  -4.612   1.911  0.00  0.00    +0.226 C 
ATOM     23  O   UNL     1      -3.673  -4.185   2.967  0.00  0.00    -0.275 OA
ENDBRANCH  12  13
ENDBRANCH  11  12
ENDBRANCH   8  11
ENDBRANCH   5   7
BRANCH   3  24
ATOM     24  C   UNL     1       0.496   3.160   1.094  0.00  0.00    +0.248 C 
ATOM     25  O   UNL     1      -0.535   3.063   1.730  0.00  0.00    -0.270 OA
ATOM     26  N   UNL     1       1.106   4.356   0.976  0.00  0.00    -0.281 N 
ATOM     27  H   UNL     1       1.887   4.448   0.407  0.00  0.00    +0.155 HD
BRANCH  26  28
ATOM     28  C   UNL     1       0.613   5.464   1.672  0.00  0.00    +0.034 A 
ATOM     29  C   UNL     1       0.706   6.733   1.116  0.00  0.00    +0.023 A 
ATOM     30  C   UNL     1       0.219   7.825   1.807  0.00  0.00    +0.002 A 
ATOM     31  C   UNL     1      -0.361   7.656   3.051  0.00  0.00    +0.012 A 
ATOM     32  C   UNL     1      -0.456   6.394   3.607  0.00  0.00    +0.057 A 
ATOM     33  C   UNL     1       0.024   5.296   2.919  0.00  0.00    +0.035 A 
BRANCH  32  34
ATOM     34  C   UNL     1      -1.088   6.214   4.963  0.00  0.00    +0.417 C 
ATOM     35  F   UNL     1      -1.499   7.457   5.455  0.00  0.00    -0.166 F 
ATOM     36  F   UNL     1      -2.196   5.367   4.852  0.00  0.00    -0.166 F 
ATOM     37  F   UNL     1      -0.156   5.650   5.841  0.00  0.00    -0.166 F 
ENDBRANCH  32  34
ENDBRANCH  26  28
ENDBRANCH   3  24
TORSDOF 7
