REMARK  Name = ZINC22505969
REMARK  10 active torsions:
REMARK  status: ('A' for Active; 'I' for Inactive)
REMARK    1  A    between atoms: C_1  and  C_2
REMARK    2  A    between atoms: C_2  and  O_3
REMARK    3  A    between atoms: O_3  and  C_4
REMARK    4  A    between atoms: C_4  and  C_6
REMARK    5  A    between atoms: C_9  and  N_12
REMARK    6  A    between atoms: C_13  and  C_15
REMARK    7  A    between atoms: C_15  and  C_16
REMARK    8  A    between atoms: C_21  and  N_23
REMARK    9  A    between atoms: N_23  and  N_24
REMARK   10  A    between atoms: C_36  and  C_38
REMARK                            x       y       z     vdW  Elec       q    Type
REMARK                         _______ _______ _______ _____ _____    ______ ____
ROOT
ATOM      1  C   UNL     1       4.021  -7.383   7.202  0.00  0.00    +0.150 C 
ATOM      2  C   UNL     1       4.649  -8.005   8.443  0.00  0.00    +0.252 C 
ATOM      3  O   UNL     1       5.829  -7.882   8.706  0.00  0.00    -0.272 OA
ATOM      4  N   UNL     1       3.831  -8.678   9.205  0.00  0.00    -0.155 NA
ATOM      5  C   UNL     1       2.537  -8.839   8.960  0.00  0.00    +0.191 C 
ATOM      6  S   UNL     1       2.282  -7.948   7.429  0.00  0.00    -0.076 S 
ENDROOT
BRANCH   1   7
ATOM      7  C   UNL     1       4.121  -5.857   7.229  0.00  0.00    +0.120 C 
BRANCH   7   9
ATOM      8  N   UNL     1       3.478  -3.957   5.781  0.00  0.00    -0.285 N 
ATOM      9  C   UNL     1       3.504  -5.290   5.976  0.00  0.00    +0.219 C 
ATOM     10  O   UNL     1       3.031  -6.034   5.144  0.00  0.00    -0.275 OA
ATOM     11  H   UNL     1       3.924  -3.366   6.409  0.00  0.00    +0.155 HD
BRANCH   8  15
ATOM     12  C   UNL     1       1.486  -2.372   2.485  0.00  0.00    +0.059 A 
ATOM     13  C   UNL     1       1.003  -3.527   3.107  0.00  0.00    +0.017 A 
ATOM     14  C   UNL     1       1.664  -4.048   4.196  0.00  0.00    +0.024 A 
ATOM     15  C   UNL     1       2.812  -3.427   4.678  0.00  0.00    +0.033 A 
ATOM     16  C   UNL     1       3.295  -2.276   4.062  0.00  0.00    +0.024 A 
ATOM     17  C   UNL     1       2.643  -1.753   2.969  0.00  0.00    +0.017 A 
BRANCH  12  18
ATOM     18  C   UNL     1       0.780  -1.811   1.318  0.00  0.00    +0.339 C 
ATOM     19  O   UNL     1       1.204  -0.810   0.775  0.00  0.00    -0.245 OA
BRANCH  18  20
ATOM     20  O   UNL     1      -0.334  -2.409   0.853  0.00  0.00    -0.461 OA
BRANCH  20  22
ATOM     21  C   UNL     1      -2.206  -2.623  -0.661  0.00  0.00    +0.048 C 
ATOM     22  C   UNL     1      -0.966  -1.811  -0.281  0.00  0.00    +0.229 C 
ENDBRANCH  20  22
ENDBRANCH  18  20
ENDBRANCH  12  18
ENDBRANCH   8  15
ENDBRANCH   7   9
ENDBRANCH   1   7
BRANCH   5  23
ATOM     23  N   UNL     1       1.617  -9.524   9.701  0.00  0.00    -0.094 NA
BRANCH  23  24
ATOM     24  N   UNL     1       2.007 -10.165  10.883  0.00  0.00    -0.167 NA
ATOM     25  C   UNL     1       1.144 -10.807  11.578  0.00  0.00    +0.042 C 
ATOM     26  C   UNL     1       1.562 -11.493  12.853  0.00  0.00    +0.053 C 
ATOM     27  C   UNL     1       2.301 -10.496  13.749  0.00  0.00    +0.006 C 
ATOM     28  C   UNL     1       1.556 -10.355  15.077  0.00  0.00    +0.000 C 
ATOM     29  C   UNL     1       1.320  -8.873  15.374  0.00  0.00    +0.000 C 
ATOM     30  C   UNL     1      -0.164  -8.641  15.667  0.00  0.00    +0.000 C 
ATOM     31  C   UNL     1      -0.700  -7.541  14.749  0.00  0.00    +0.000 C 
ATOM     32  C   UNL     1      -1.952  -8.044  14.027  0.00  0.00    +0.000 C 
ATOM     33  C   UNL     1      -1.783  -7.850  12.519  0.00  0.00    +0.000 C 
ATOM     34  C   UNL     1      -1.997  -9.187  11.806  0.00  0.00    +0.001 C 
ATOM     35  C   UNL     1      -0.816  -9.462  10.873  0.00  0.00    +0.009 C 
ATOM     36  C   UNL     1      -0.291 -10.873  11.123  0.00  0.00    +0.032 C 
ATOM     37  C   UNL     1      -0.379 -11.678   9.825  0.00  0.00    +0.014 C 
ENDBRANCH  23  24
ENDBRANCH   5  23
TORSDOF 8
