REMARK  Name = ZINC35383430
REMARK  18 active torsions:
REMARK  status: ('A' for Active; 'I' for Inactive)
REMARK    1  A    between atoms: C_1  and  C_2
REMARK    2  A    between atoms: C_6  and  C_7
REMARK    3  A    between atoms: C_7  and  N_8
REMARK    4  A    between atoms: N_8  and  C_9
REMARK    5  A    between atoms: C_9  and  C_10
REMARK    6  A    between atoms: C_17  and  C_19
REMARK    7  A    between atoms: C_19  and  N_20
REMARK    8  A    between atoms: N_20  and  C_21
REMARK    9  A    between atoms: C_21  and  C_22
REMARK   10  A    between atoms: C_22  and  N_23
REMARK   11  A    between atoms: C_28  and  C_30
REMARK   12  A    between atoms: C_30  and  C_31
REMARK   13  A    between atoms: C_31  and  C_33
REMARK   14  A    between atoms: C_31  and  C_34
REMARK   15  A    between atoms: C_34  and  C_35
REMARK   16  A    between atoms: C_35  and  C_36
REMARK   17  A    between atoms: C_35  and  C_37
REMARK   18  A    between atoms: C_35  and  C_38
REMARK                            x       y       z     vdW  Elec       q    Type
REMARK                         _______ _______ _______ _____ _____    ______ ____
ROOT
ATOM      1  C   UNL     1      -0.667   3.572   0.572  0.00  0.00    +0.203 C 
ENDROOT
BRANCH   1   3
ATOM      2  N   UNL     1       0.570   1.514   1.169  0.00  0.00    -0.291 N 
ATOM      3  C   UNL     1      -0.583   2.211   1.214  0.00  0.00    +0.234 C 
ATOM      4  O   UNL     1      -1.553   1.743   1.772  0.00  0.00    -0.274 OA
BRANCH   2   5
ATOM      5  C   UNL     1       1.710   2.033   0.409  0.00  0.00    +0.150 C 
BRANCH   5  11
ATOM      6  C   UNL     1       2.636  -0.618  -0.836  0.00  0.00    +0.044 C 
ATOM      7  C   UNL     1       1.969   0.472  -1.635  0.00  0.00    -0.039 A 
ATOM      8  C   UNL     1       1.739   0.310  -2.988  0.00  0.00    +0.011 A 
ATOM      9  C   UNL     1       1.136   1.309  -3.677  0.00  0.00    +0.046 A 
ATOM     10  S   UNL     1       0.873   2.530  -2.402  0.00  0.00    -0.100 S 
ATOM     11  C   UNL     1       1.579   1.624  -1.036  0.00  0.00    +0.010 A 
ENDBRANCH   5  11
ENDBRANCH   2   5
BRANCH   2  12
ATOM     12  C   UNL     1       0.683   0.238   1.879  0.00  0.00    +0.143 C 
BRANCH  12  13
ATOM     13  C   UNL     1       1.181   0.485   3.279  0.00  0.00    -0.030 A 
ATOM     14  C   UNL     1       2.539   0.491   3.538  0.00  0.00    +0.008 A 
ATOM     15  C   UNL     1       2.997   0.717   4.822  0.00  0.00    +0.038 A 
ATOM     16  C   UNL     1       2.095   0.938   5.850  0.00  0.00    +0.123 A 
ATOM     17  C   UNL     1       0.735   0.932   5.589  0.00  0.00    +0.038 A 
ATOM     18  C   UNL     1       0.280   0.710   4.303  0.00  0.00    +0.008 A 
ATOM     19  F   UNL     1       2.542   1.159   7.105  0.00  0.00    -0.205 F 
ENDBRANCH  12  13
ENDBRANCH   2  12
ENDBRANCH   1   3
BRANCH   1  20
ATOM     20  N   UNL     1      -1.973   4.169   0.861  0.00  0.00    -0.294 N 
ATOM     21  C   UNL     1      -3.010   3.959   0.025  0.00  0.00    +0.216 C 
ATOM     22  O   UNL     1      -2.861   3.276  -0.966  0.00  0.00    -0.276 OA
BRANCH  20  23
ATOM     23  C   UNL     1      -2.152   4.994   2.058  0.00  0.00    +0.090 C 
BRANCH  23  24
ATOM     24  C   UNL     1      -1.845   6.454   1.722  0.00  0.00    -0.060 C 
BRANCH  24  25
ATOM     25  N   UNL     1      -2.025   7.281   2.923  0.00  0.00    +0.381 N 
ATOM     26  C   UNL     1      -0.973   6.967   3.923  0.00  0.00    -0.079 C 
ATOM     27  C   UNL     1      -0.941   8.235   4.814  0.00  0.00    -0.020 C 
ATOM     28  C   UNL     1      -1.166   9.377   3.797  0.00  0.00    -0.020 C 
ATOM     29  C   UNL     1      -1.849   8.711   2.588  0.00  0.00    -0.079 C 
ATOM     30  H   UNL     1      -2.940   7.127   3.318  0.00  0.00    -0.082 HD
ENDBRANCH  24  25
ENDBRANCH  23  24
ENDBRANCH  20  23
BRANCH  21  31
ATOM     31  C   UNL     1      -4.353   4.573   0.323  0.00  0.00    +0.099 C 
BRANCH  31  32
ATOM     32  C   UNL     1      -5.347   4.183  -0.773  0.00  0.00    -0.005 C 
ATOM     33  C   UNL     1      -5.576   2.671  -0.738  0.00  0.00    +0.008 C 
BRANCH  32  34
ATOM     34  C   UNL     1      -6.675   4.906  -0.539  0.00  0.00    +0.010 C 
BRANCH  34  35
ATOM     35  C   UNL     1      -7.615   4.639  -1.716  0.00  0.00    -0.037 C 
ATOM     36  C   UNL     1      -8.277   3.271  -1.541  0.00  0.00    +0.010 C 
ATOM     37  C   UNL     1      -8.692   5.725  -1.765  0.00  0.00    +0.010 C 
ATOM     38  C   UNL     1      -6.815   4.656  -3.021  0.00  0.00    +0.010 C 
ENDBRANCH  34  35
ENDBRANCH  32  34
ENDBRANCH  31  32
ENDBRANCH  21  31
ENDBRANCH   1  20
TORSDOF 13
