REMARK  Name = ZINC46810199
REMARK  8 active torsions:
REMARK  status: ('A' for Active; 'I' for Inactive)
REMARK    1  A    between atoms: C_1  and  C_2
REMARK    2  A    between atoms: C_2  and  C_3
REMARK    3  A    between atoms: C_2  and  N_4
REMARK    4  A    between atoms: C_10  and  C_13
REMARK    5  A    between atoms: N_15  and  C_16
REMARK    6  A    between atoms: C_16  and  C_17
REMARK    7  A    between atoms: C_17  and  C_19
REMARK    8  A    between atoms: C_17  and  N_24
REMARK                            x       y       z     vdW  Elec       q    Type
REMARK                         _______ _______ _______ _____ _____    ______ ____
ROOT
ATOM      1  C   UNL     1       2.041  -4.591   5.656  0.00  0.00    +0.216 C 
ATOM      2  O   UNL     1       2.605  -5.358   4.905  0.00  0.00    -0.276 OA
ATOM      3  N   UNL     1       1.508  -5.045   6.808  0.00  0.00    -0.316 N 
ATOM      4  H   UNL     1       1.057  -4.432   7.408  0.00  0.00    +0.149 HD
ENDROOT
BRANCH   1  11
ATOM      5  N   UNL     1       1.249  -0.191   1.466  0.00  0.00    -0.297 N 
ATOM      6  C   UNL     1       0.559  -0.343   2.614  0.00  0.00    +0.302 C 
ATOM      7  O   UNL     1      -0.576   0.084   2.703  0.00  0.00    -0.253 OA
ATOM      8  N   UNL     1       1.128  -0.969   3.664  0.00  0.00    -0.286 N 
ATOM      9  C   UNL     1       2.534  -1.391   3.611  0.00  0.00    +0.110 C 
ATOM     10  C   UNL     1       2.615  -2.882   3.952  0.00  0.00    +0.032 C 
ATOM     11  C   UNL     1       1.934  -3.130   5.301  0.00  0.00    +0.078 C 
ATOM     12  C   UNL     1       0.458  -2.734   5.210  0.00  0.00    +0.032 C 
ATOM     13  C   UNL     1       0.355  -1.236   4.885  0.00  0.00    +0.110 C 
ATOM     14  H   UNL     1       2.176  -0.470   1.417  0.00  0.00    +0.150 HD
BRANCH   5  16
ATOM     15  C   UNL     1       0.679   1.922   0.373  0.00  0.00    +0.027 C 
ATOM     16  C   UNL     1       0.597   0.396   0.293  0.00  0.00    +0.068 C 
ATOM     17  C   UNL     1       1.301  -0.086  -0.977  0.00  0.00    +0.027 C 
ENDBRANCH   5  16
ENDBRANCH   1  11
BRANCH   3  18
ATOM     18  C   UNL     1       1.612  -6.465   7.153  0.00  0.00    +0.094 C 
BRANCH  18  19
ATOM     19  C   UNL     1       0.828  -6.736   8.439  0.00  0.00    -0.013 C 
BRANCH  19  20
ATOM     20  N   UNL     1       0.830  -8.178   8.719  0.00  0.00    +0.386 N 
ATOM     21  C   UNL     1      -0.063  -8.477   9.867  0.00  0.00    -0.078 C 
ATOM     22  C   UNL     1      -0.394  -9.979   9.677  0.00  0.00    -0.020 C 
ATOM     23  C   UNL     1      -0.516 -10.114   8.142  0.00  0.00    -0.020 C 
ATOM     24  C   UNL     1       0.271  -8.921   7.569  0.00  0.00    -0.078 C 
ATOM     25  H   UNL     1       1.768  -8.493   8.915  0.00  0.00    -0.081 HD
ENDBRANCH  19  20
BRANCH  19  26
ATOM     26  C   UNL     1       1.474  -6.001   9.585  0.00  0.00    -0.022 A 
ATOM     27  C   UNL     1       1.111  -4.828  10.160  0.00  0.00    +0.009 A 
ATOM     28  C   UNL     1       1.860  -4.338  11.213  0.00  0.00    +0.008 A 
ATOM     29  C   UNL     1       2.937  -5.043  11.639  0.00  0.00    +0.045 A 
ATOM     30  S   UNL     1       2.912  -6.452  10.543  0.00  0.00    -0.103 S 
ENDBRANCH  19  26
ENDBRANCH  18  19
ENDBRANCH   3  18
TORSDOF 6
