REMARK  Name = ZINC04305439
REMARK  5 active torsions:
REMARK  status: ('A' for Active; 'I' for Inactive)
REMARK    1  A    between atoms: C_1  and  C_2
REMARK    2  A    between atoms: C_2  and  C_3
REMARK    3  A    between atoms: C_3  and  C_24
REMARK    4  A    between atoms: N_6  and  C_10
REMARK    5  A    between atoms: C_10  and  C_11
REMARK                            x       y       z     vdW  Elec       q    Type
REMARK                         _______ _______ _______ _____ _____    ______ ____
ROOT
ATOM      1  C   UNL     1       0.718  -0.497  -1.257  0.00  0.00    +0.138 C 
ATOM      2  C   UNL     1       0.081   0.093  -2.499  0.00  0.00    +0.251 C 
ATOM      3  O   UNL     1      -1.061  -0.057  -2.878  0.00  0.00    -0.272 OA
ATOM      4  N   UNL     1       1.047   0.819  -3.095  0.00  0.00    -0.215 N 
ATOM      5  C   UNL     1       2.195   0.770  -2.408  0.00  0.00    +0.310 C 
ATOM      6  O   UNL     1       3.210   1.345  -2.748  0.00  0.00    -0.252 OA
ATOM      7  N   UNL     1       2.099   0.013  -1.301  0.00  0.00    -0.281 N 
ATOM      8  H   UNL     1       2.803  -0.163  -0.657  0.00  0.00    +0.152 HD
ENDROOT
BRANCH   1   9
ATOM      9  C   UNL     1       0.707  -2.003  -1.315  0.00  0.00    -0.015 A 
ATOM     10  C   UNL     1      -0.340  -2.709  -0.752  0.00  0.00    +0.006 A 
ATOM     11  C   UNL     1      -0.350  -4.090  -0.806  0.00  0.00    +0.000 A 
ATOM     12  C   UNL     1       0.686  -4.766  -1.424  0.00  0.00    +0.000 A 
ATOM     13  C   UNL     1       1.732  -4.060  -1.988  0.00  0.00    +0.000 A 
ATOM     14  C   UNL     1       1.740  -2.679  -1.938  0.00  0.00    +0.006 A 
ENDBRANCH   1   9
BRANCH   1  16
ATOM     15  C   UNL     1      -0.019   1.526   0.010  0.00  0.00    +0.007 C 
ATOM     16  C   UNL     1       0.002  -0.004   0.002  0.00  0.00    +0.037 C 
ENDBRANCH   1  16
BRANCH   4  17
ATOM     17  C   UNL     1       0.864   1.569  -4.340  0.00  0.00    +0.214 C 
BRANCH  17  18
ATOM     18  C   UNL     1       0.403   2.967  -4.021  0.00  0.00    +0.238 C 
ATOM     19  O   UNL     1       0.243   3.305  -2.867  0.00  0.00    -0.273 OA
ATOM     20  N   UNL     1       0.169   3.843  -5.018  0.00  0.00    -0.260 N 
ATOM     21  C   UNL     1       0.349   3.457  -6.426  0.00  0.00    +0.209 C 
ATOM     22  C   UNL     1       1.023   4.586  -7.162  0.00  0.00    +0.235 C 
ATOM     23  O   UNL     1       1.725   4.341  -8.121  0.00  0.00    -0.274 OA
ATOM     24  N   UNL     1       0.855   5.863  -6.770  0.00  0.00    -0.283 N 
ATOM     25  C   UNL     1       0.091   6.170  -5.639  0.00  0.00    +0.055 A 
ATOM     26  C   UNL     1      -0.261   5.152  -4.747  0.00  0.00    +0.058 A 
ATOM     27  C   UNL     1      -1.015   5.437  -3.623  0.00  0.00    +0.025 A 
ATOM     28  C   UNL     1      -1.427   6.737  -3.385  0.00  0.00    +0.002 A 
ATOM     29  C   UNL     1      -1.088   7.746  -4.267  0.00  0.00    +0.002 A 
ATOM     30  C   UNL     1      -0.323   7.469  -5.394  0.00  0.00    +0.025 A 
ATOM     31  H   UNL     1       1.269   6.579  -7.278  0.00  0.00    +0.155 HD
ENDBRANCH  17  18
ENDBRANCH   4  17
TORSDOF 4
