REMARK  Name = ZINC20784039
REMARK  8 active torsions:
REMARK  status: ('A' for Active; 'I' for Inactive)
REMARK    1  A    between atoms: C_3  and  C_32
REMARK    2  A    between atoms: C_6  and  C_7
REMARK    3  A    between atoms: C_7  and  N_8
REMARK    4  A    between atoms: N_8  and  C_9
REMARK    5  A    between atoms: C_9  and  C_10
REMARK    6  A    between atoms: C_19  and  N_20
REMARK    7  A    between atoms: C_24  and  C_27
REMARK    8  A    between atoms: C_27  and  O_28
REMARK                            x       y       z     vdW  Elec       q    Type
REMARK                         _______ _______ _______ _____ _____    ______ ____
ROOT
ATOM      1  C   UNL     1       3.663   7.201  -0.466  0.00  0.00    -0.024 A 
ATOM      2  C   UNL     1       4.827   7.803  -0.838  0.00  0.00    +0.015 A 
ATOM      3  C   UNL     1       5.982   7.006  -0.963  0.00  0.00    +0.004 A 
ATOM      4  C   UNL     1       7.213   7.564  -1.342  0.00  0.00    +0.059 A 
ATOM      5  C   UNL     1       8.314   6.765  -1.455  0.00  0.00    +0.167 A 
ATOM      6  C   UNL     1       8.228   5.387  -1.197  0.00  0.00    +0.168 A 
ATOM      7  C   UNL     1       7.042   4.820  -0.827  0.00  0.00    +0.078 A 
ATOM      8  C   UNL     1       5.892   5.617  -0.701  0.00  0.00    +0.077 A 
ATOM      9  N   UNL     1       4.722   5.082  -0.332  0.00  0.00    -0.232 NA
ATOM     10  C   UNL     1       3.638   5.822  -0.218  0.00  0.00    +0.123 A 
ATOM     11  O   UNL     1       9.463   4.835  -1.384  0.00  0.00    -0.453 OA
ATOM     12  C   UNL     1      10.387   5.938  -1.353  0.00  0.00    +0.466 C 
ATOM     13  O   UNL     1       9.603   7.060  -1.800  0.00  0.00    -0.453 OA
ENDROOT
BRANCH  10  14
ATOM     14  N   UNL     1       2.445   5.223   0.162  0.00  0.00    -0.315 N 
ATOM     15  C   UNL     1       2.336   5.149   1.625  0.00  0.00    +0.106 C 
ATOM     16  C   UNL     1       0.953   4.619   2.008  0.00  0.00    +0.019 C 
ATOM     17  C   UNL     1       0.755   3.231   1.392  0.00  0.00    +0.009 C 
ATOM     18  C   UNL     1       0.921   3.327  -0.127  0.00  0.00    +0.032 C 
ATOM     19  C   UNL     1       2.306   3.894  -0.448  0.00  0.00    +0.112 C 
BRANCH  18  20
ATOM     20  C   UNL     1       0.785   1.934  -0.745  0.00  0.00    +0.160 C 
BRANCH  20  21
ATOM     21  O   UNL     1      -0.546   1.452  -0.544  0.00  0.00    -0.395 OA
ATOM     22  H   UNL     1      -0.835   0.461  -0.922  0.00  0.00    +0.209 HD
ENDBRANCH  20  21
ENDBRANCH  18  20
ENDBRANCH  10  14
BRANCH   1  23
ATOM     23  C   UNL     1       2.404   8.016  -0.321  0.00  0.00    -0.043 C 
BRANCH  23  24
ATOM     24  N   UNL     1       2.155   8.285   1.102  0.00  0.00    +0.384 N 
ATOM     25  H   UNL     1       3.015   8.836   1.512  0.00  0.00    -0.085 HD
ATOM     26  H   UNL     1       2.050   7.326   1.629  0.00  0.00    -0.085 HD
BRANCH  24  27
ATOM     27  C   UNL     1       0.933   9.080   1.282  0.00  0.00    -0.046 C 
BRANCH  27  33
ATOM     28  C   UNL     1      -0.037   8.449   3.502  0.00  0.00    +0.002 A 
ATOM     29  C   UNL     1      -0.236   8.681   4.850  0.00  0.00    +0.012 A 
ATOM     30  C   UNL     1       0.306   9.805   5.445  0.00  0.00    +0.055 A 
ATOM     31  C   UNL     1       1.051  10.694   4.693  0.00  0.00    +0.012 A 
ATOM     32  C   UNL     1       1.254  10.460   3.346  0.00  0.00    +0.002 A 
ATOM     33  C   UNL     1       0.712   9.336   2.751  0.00  0.00    -0.064 A 
BRANCH  30  34
ATOM     34  C   UNL     1       0.084  10.061   6.913  0.00  0.00    +0.417 C 
ATOM     35  F   UNL     1      -1.080  10.818   7.084  0.00  0.00    -0.166 F 
ATOM     36  F   UNL     1      -0.050   8.841   7.584  0.00  0.00    -0.166 F 
ATOM     37  F   UNL     1       1.177  10.762   7.434  0.00  0.00    -0.166 F 
ENDBRANCH  30  34
ENDBRANCH  27  33
ENDBRANCH  24  27
ENDBRANCH  23  24
ENDBRANCH   1  23
TORSDOF 8
