REMARK  Name = ZINC27271289
REMARK  11 active torsions:
REMARK  status: ('A' for Active; 'I' for Inactive)
REMARK    1  A    between atoms: C_1  and  C_2
REMARK    2  A    between atoms: C_2  and  O_3
REMARK    3  A    between atoms: O_3  and  C_4
REMARK    4  A    between atoms: C_4  and  C_6
REMARK    5  A    between atoms: C_6  and  C_33
REMARK    6  A    between atoms: C_7  and  C_27
REMARK    7  A    between atoms: C_9  and  C_25
REMARK    8  A    between atoms: C_10  and  N_24
REMARK    9  A    between atoms: C_11  and  C_20
REMARK   10  A    between atoms: C_11  and  C_22
REMARK   11  A    between atoms: C_12  and  C_14
REMARK                            x       y       z     vdW  Elec       q    Type
REMARK                         _______ _______ _______ _____ _____    ______ ____
ROOT
ATOM      1  C   UNL     1       1.314   1.589  -0.066  0.00  0.00    +0.174 C 
ATOM      2  C   UNL     1       2.187   0.945  -1.144  0.00  0.00    +0.092 C 
ATOM      3  C   UNL     1       1.514   1.045  -2.482  0.00  0.00    +0.058 C 
ATOM      4  C   UNL     1       0.214   1.304  -2.635  0.00  0.00    +0.050 C 
ATOM      5  C   UNL     1      -0.726   1.540  -1.489  0.00  0.00    +0.189 C 
ATOM      6  C   UNL     1      -0.107   1.026  -0.187  0.00  0.00    +0.091 C 
ENDROOT
BRANCH   6   7
ATOM      7  C   UNL     1      -0.935   1.483   0.986  0.00  0.00    -0.039 A 
ATOM      8  C   UNL     1      -1.120   2.834   1.217  0.00  0.00    +0.004 A 
ATOM      9  C   UNL     1      -1.883   3.253   2.290  0.00  0.00    +0.000 A 
ATOM     10  C   UNL     1      -2.453   2.323   3.139  0.00  0.00    +0.000 A 
ATOM     11  C   UNL     1      -2.263   0.972   2.912  0.00  0.00    +0.000 A 
ATOM     12  C   UNL     1      -1.504   0.553   1.835  0.00  0.00    +0.004 A 
ENDBRANCH   6   7
BRANCH   2  13
ATOM     13  C   UNL     1       2.411  -0.507  -0.805  0.00  0.00    -0.037 A 
ATOM     14  C   UNL     1       3.599  -0.905  -0.221  0.00  0.00    +0.004 A 
ATOM     15  C   UNL     1       3.802  -2.235   0.094  0.00  0.00    +0.000 A 
ATOM     16  C   UNL     1       2.822  -3.169  -0.183  0.00  0.00    +0.000 A 
ATOM     17  C   UNL     1       1.636  -2.772  -0.772  0.00  0.00    +0.000 A 
ATOM     18  C   UNL     1       1.430  -1.440  -1.083  0.00  0.00    +0.004 A 
ENDBRANCH   2  13
BRANCH   4  19
ATOM     19  N   UNL     1      -0.291   1.357  -3.909  0.00  0.00    -0.358 N 
ATOM     20  H   UNL     1      -1.358   1.569  -4.069  0.00  0.00    +0.142 HD
ATOM     21  H   UNL     1       0.372   1.189  -4.770  0.00  0.00    +0.142 HD
ENDBRANCH   4  19
BRANCH   1  22
ATOM     22  C   UNL     1       1.869   1.269   1.298  0.00  0.00    +0.329 C 
ATOM     23  O   UNL     1       1.200   0.654   2.095  0.00  0.00    -0.249 OA
BRANCH  22  24
ATOM     24  O   UNL     1       3.108   1.668   1.629  0.00  0.00    -0.464 OA
BRANCH  24  26
ATOM     25  C   UNL     1       4.999   1.859   3.151  0.00  0.00    +0.048 C 
ATOM     26  C   UNL     1       3.578   1.325   2.959  0.00  0.00    +0.229 C 
ENDBRANCH  24  26
ENDBRANCH  22  24
ENDBRANCH   1  22
BRANCH   5  27
ATOM     27  C   UNL     1      -1.991   0.832  -1.741  0.00  0.00    +0.091 C 
ATOM     28  N   UNL     1      -2.968   0.285  -1.936  0.00  0.00    -0.194 NA
ENDBRANCH   5  27
BRANCH   5  29
ATOM     29  C   UNL     1      -0.993   2.982  -1.365  0.00  0.00    +0.091 C 
ATOM     30  N   UNL     1      -1.199   4.095  -1.270  0.00  0.00    -0.194 NA
ENDBRANCH   5  29
BRANCH   3  31
ATOM     31  C   UNL     1       2.309   0.852  -3.657  0.00  0.00    +0.097 C 
ATOM     32  N   UNL     1       2.941   0.699  -4.589  0.00  0.00    -0.191 NA
ENDBRANCH   3  31
BRANCH   1  33
ATOM     33  C   UNL     1       1.286   3.048  -0.259  0.00  0.00    +0.082 C 
ATOM     34  N   UNL     1       1.264   4.174  -0.407  0.00  0.00    -0.195 NA
ENDBRANCH   1  33
TORSDOF 10
