REMARK  Name = ZINC00218408
REMARK  4 active torsions:
REMARK  status: ('A' for Active; 'I' for Inactive)
REMARK    1  A    between atoms: C_1  and  C_2
REMARK    2  A    between atoms: C_9  and  N_14
REMARK    3  A    between atoms: C_10  and  C_11
REMARK    4  A    between atoms: C_15  and  C_17
REMARK                            x       y       z     vdW  Elec       q    Type
REMARK                         _______ _______ _______ _____ _____    ______ ____
ROOT
ATOM      1  C   UNL     1      -0.019   1.526   0.010  0.00  0.00    +0.008 C 
ATOM      2  C   UNL     1       0.002  -0.004   0.002  0.00  0.00    -0.009 C 
ATOM      3  C   UNL     1       0.742  -0.514   1.242  0.00  0.00    +0.008 C 
ATOM      4  C   UNL     1       0.984  -2.020   1.121  0.00  0.00    +0.037 C 
ATOM      5  C   UNL     1      -0.340  -2.706   0.809  0.00  0.00    -0.023 A 
ATOM      6  C   UNL     1      -1.390  -2.006   0.327  0.00  0.00    -0.004 A 
ATOM      7  S   UNL     1      -2.678  -3.203   0.124  0.00  0.00    -0.077 S 
ATOM      8  C   UNL     1      -1.836  -4.615   0.673  0.00  0.00    +0.085 A 
ATOM      9  C   UNL     1      -0.579  -4.127   0.999  0.00  0.00    +0.068 A 
ATOM     10  C   UNL     1      -1.437  -0.538   0.030  0.00  0.00    +0.046 C 
ENDROOT
BRANCH   9  11
ATOM     11  C   UNL     1       0.470  -5.011   1.516  0.00  0.00    +0.244 C 
ATOM     12  O   UNL     1       0.578  -5.192   2.714  0.00  0.00    -0.270 OA
ATOM     13  N   UNL     1       1.315  -5.624   0.663  0.00  0.00    -0.325 N 
ATOM     14  H   UNL     1       1.229  -5.480  -0.292  0.00  0.00    +0.145 HD
ATOM     15  H   UNL     1       2.009  -6.210   1.005  0.00  0.00    +0.145 HD
ENDBRANCH   9  11
BRANCH   8  16
ATOM     16  N   UNL     1      -2.305  -5.915   0.764  0.00  0.00    -0.273 N 
ATOM     17  C   UNL     1      -3.570  -6.203   0.397  0.00  0.00    +0.284 C 
ATOM     18  O   UNL     1      -4.300  -5.320  -0.014  0.00  0.00    -0.266 OA
ATOM     19  H   UNL     1      -1.723  -6.619   1.091  0.00  0.00    +0.156 HD
BRANCH  17  20
ATOM     20  C   UNL     1      -4.066  -7.579   0.493  0.00  0.00    +0.189 A 
ATOM     21  C   UNL     1      -5.321  -8.005   0.162  0.00  0.00    +0.054 A 
ATOM     22  C   UNL     1      -5.356  -9.386   0.408  0.00  0.00    +0.042 A 
ATOM     23  C   UNL     1      -4.139  -9.737   0.880  0.00  0.00    +0.196 A 
ATOM     24  O   UNL     1      -3.365  -8.646   0.930  0.00  0.00    -0.458 OA
ENDBRANCH  17  20
ENDBRANCH   8  16
TORSDOF 3
