REMARK  Name = ZINC27517155
REMARK  15 active torsions:
REMARK  status: ('A' for Active; 'I' for Inactive)
REMARK    1  A    between atoms: C_1  and  C_2
REMARK    2  A    between atoms: C_2  and  C_3
REMARK    3  A    between atoms: C_3  and  C_4
REMARK    4  A    between atoms: C_8  and  C_26
REMARK    5  A    between atoms: C_14  and  C_16
REMARK    6  A    between atoms: C_19  and  O_22
REMARK    7  A    between atoms: O_22  and  C_23
REMARK    8  A    between atoms: C_23  and  C_24
REMARK    9  A    between atoms: C_23  and  C_25
REMARK   10  A    between atoms: C_26  and  C_27
REMARK   11  A    between atoms: C_28  and  C_30
REMARK   12  A    between atoms: C_33  and  O_36
REMARK   13  A    between atoms: O_36  and  C_37
REMARK   14  A    between atoms: C_37  and  C_38
REMARK   15  A    between atoms: C_37  and  C_39
REMARK                            x       y       z     vdW  Elec       q    Type
REMARK                         _______ _______ _______ _____ _____    ______ ____
ROOT
ATOM      1  C   UNL     1       2.954  -0.439  -3.864  0.00  0.00    +0.061 C 
ATOM      2  C   UNL     1       3.413   1.016  -4.042  0.00  0.00    +0.124 C 
ATOM      3  N   UNL     1       2.226   1.875  -4.140  0.00  0.00    -0.296 N 
ATOM      4  C   UNL     1       1.227   1.863  -3.044  0.00  0.00    +0.124 C 
ATOM      5  C   UNL     1       0.734   0.418  -2.872  0.00  0.00    +0.061 C 
ATOM      6  C   UNL     1       1.961  -0.466  -2.713  0.00  0.00    +0.152 C 
ATOM      7  O   UNL     1       2.136  -1.147  -1.731  0.00  0.00    -0.296 OA
ATOM      8  C   UNL     1       0.013  -0.022  -4.155  0.00  0.00    +0.124 C 
ATOM      9  N   UNL     1       0.982  -0.082  -5.259  0.00  0.00    -0.296 N 
ATOM     10  C   UNL     1       2.203  -0.887  -5.128  0.00  0.00    +0.124 C 
ATOM     11  C   UNL     1       0.755   0.628  -6.382  0.00  0.00    +0.247 C 
ATOM     12  O   UNL     1      -0.180   1.404  -6.432  0.00  0.00    -0.270 OA
ATOM     13  C   UNL     1       2.055   2.674  -5.213  0.00  0.00    +0.247 C 
ATOM     14  O   UNL     1       2.863   2.653  -6.121  0.00  0.00    -0.270 OA
ENDROOT
BRANCH  11  15
ATOM     15  C   UNL     1       1.642   0.464  -7.550  0.00  0.00    +0.037 A 
ATOM     16  C   UNL     1       1.789  -0.790  -8.148  0.00  0.00    +0.016 A 
ATOM     17  C   UNL     1       2.614  -0.938  -9.241  0.00  0.00    +0.046 A 
ATOM     18  C   UNL     1       3.308   0.157  -9.743  0.00  0.00    +0.121 A 
ATOM     19  C   UNL     1       3.169   1.405  -9.148  0.00  0.00    +0.046 A 
ATOM     20  C   UNL     1       2.342   1.562  -8.058  0.00  0.00    +0.016 A 
BRANCH  18  21
ATOM     21  O   UNL     1       4.124   0.006 -10.817  0.00  0.00    -0.489 OA
BRANCH  21  22
ATOM     22  C   UNL     1       4.896   1.143 -11.209  0.00  0.00    +0.167 C 
ATOM     23  C   UNL     1       6.235   0.675 -11.783  0.00  0.00    +0.051 C 
ATOM     24  C   UNL     1       4.134   1.935 -12.273  0.00  0.00    +0.051 C 
ENDBRANCH  21  22
ENDBRANCH  18  21
ENDBRANCH  11  15
BRANCH  13  25
ATOM     25  C   UNL     1       0.887   3.573  -5.284  0.00  0.00    +0.037 A 
ATOM     26  C   UNL     1       0.435   4.228  -4.135  0.00  0.00    +0.016 A 
ATOM     27  C   UNL     1      -0.652   5.069  -4.207  0.00  0.00    +0.046 A 
ATOM     28  C   UNL     1      -1.308   5.259  -5.418  0.00  0.00    +0.121 A 
ATOM     29  C   UNL     1      -0.865   4.606  -6.562  0.00  0.00    +0.046 A 
ATOM     30  C   UNL     1       0.225   3.767  -6.500  0.00  0.00    +0.016 A 
BRANCH  28  31
ATOM     31  O   UNL     1      -2.382   6.086  -5.484  0.00  0.00    -0.489 OA
BRANCH  31  32
ATOM     32  C   UNL     1      -3.080   6.145  -6.729  0.00  0.00    +0.167 C 
ATOM     33  C   UNL     1      -4.527   6.577  -6.483  0.00  0.00    +0.051 C 
ATOM     34  C   UNL     1      -2.395   7.157  -7.650  0.00  0.00    +0.051 C 
ENDBRANCH  31  32
ENDBRANCH  28  31
ENDBRANCH  13  25
BRANCH   5  35
ATOM     35  C   UNL     1      -0.189   0.297  -1.657  0.00  0.00    +0.014 C 
ATOM     36  C   UNL     1      -1.410   1.198  -1.853  0.00  0.00    +0.005 C 
ENDBRANCH   5  35
BRANCH   1  37
ATOM     37  C   UNL     1       4.144  -1.357  -3.581  0.00  0.00    +0.017 C 
BRANCH  37  39
ATOM     38  C   UNL     1       6.310  -2.224  -4.476  0.00  0.00    +0.004 C 
ATOM     39  C   UNL     1       5.120  -1.305  -4.759  0.00  0.00    -0.002 C 
ENDBRANCH  37  39
ENDBRANCH   1  37
TORSDOF 9
