REMARK  Name = ZINC38847398
REMARK  12 active torsions:
REMARK  status: ('A' for Active; 'I' for Inactive)
REMARK    1  A    between atoms: C_1  and  C_2
REMARK    2  A    between atoms: C_5  and  S_8
REMARK    3  A    between atoms: S_8  and  N_11
REMARK    4  A    between atoms: C_14  and  C_17
REMARK    5  A    between atoms: N_19  and  C_20
REMARK    6  A    between atoms: C_20  and  C_21
REMARK    7  A    between atoms: C_21  and  C_22
REMARK    8  A    between atoms: C_22  and  N_23
REMARK    9  A    between atoms: N_23  and  C_24
REMARK   10  A    between atoms: N_23  and  C_25
REMARK   11  A    between atoms: C_31  and  O_35
REMARK   12  A    between atoms: O_35  and  C_36
REMARK                            x       y       z     vdW  Elec       q    Type
REMARK                         _______ _______ _______ _____ _____    ______ ____
ROOT
ATOM      1  C   UNL     1       4.206  -8.381   0.177  0.00  0.00    +0.224 C 
ATOM      2  O   UNL     1       3.596  -7.332   0.203  0.00  0.00    -0.275 OA
ATOM      3  N   UNL     1       5.265  -8.565   0.990  0.00  0.00    -0.250 N 
ATOM      4  C   UNL     1       6.036  -9.711   0.874  0.00  0.00    +0.168 A 
ATOM      5  N   UNL     1       7.016 -10.124   1.643  0.00  0.00    -0.224 NA
ATOM      6  C   UNL     1       7.687 -11.274   1.408  0.00  0.00    +0.081 A 
ATOM      7  C   UNL     1       8.754 -11.828   2.153  0.00  0.00    +0.032 A 
ATOM      8  C   UNL     1       9.331 -13.013   1.778  0.00  0.00    +0.048 A 
ATOM      9  C   UNL     1       8.891 -13.711   0.657  0.00  0.00    +0.121 A 
ATOM     10  C   UNL     1       7.846 -13.196  -0.095  0.00  0.00    +0.063 A 
ATOM     11  C   UNL     1       7.266 -12.009   0.277  0.00  0.00    +0.044 A 
ATOM     12  S   UNL     1       5.943 -11.005  -0.355  0.00  0.00    -0.052 S 
ENDROOT
BRANCH   1  16
ATOM     13  N   UNL     1       2.707 -10.464  -3.189  0.00  0.00    -0.177 NA
ATOM     14  C   UNL     1       1.848 -10.473  -1.997  0.00  0.00    +0.110 C 
ATOM     15  C   UNL     1       2.285  -9.338  -1.067  0.00  0.00    +0.030 C 
ATOM     16  C   UNL     1       3.780  -9.476  -0.766  0.00  0.00    +0.078 C 
ATOM     17  C   UNL     1       4.576  -9.367  -2.068  0.00  0.00    +0.030 C 
ATOM     18  C   UNL     1       4.165 -10.509  -3.010  0.00  0.00    +0.110 C 
BRANCH  13  19
ATOM     19  S   UNL     1       2.045 -10.413  -4.706  0.00  0.00    +0.061 S 
ATOM     20  O   UNL     1       3.038  -9.870  -5.565  0.00  0.00    -0.153 OA
ATOM     21  O   UNL     1       0.756  -9.829  -4.567  0.00  0.00    -0.153 OA
BRANCH  19  26
ATOM     22  C   UNL     1       1.170 -16.117  -6.469  0.00  0.00    +0.044 C 
ATOM     23  C   UNL     1       1.389 -14.692  -6.029  0.00  0.00    -0.050 A 
ATOM     24  C   UNL     1       0.393 -14.019  -5.346  0.00  0.00    +0.005 A 
ATOM     25  C   UNL     1       0.593 -12.713  -4.942  0.00  0.00    +0.029 A 
ATOM     26  C   UNL     1       1.790 -12.079  -5.220  0.00  0.00    +0.105 A 
ATOM     27  C   UNL     1       2.786 -12.752  -5.902  0.00  0.00    +0.029 A 
ATOM     28  C   UNL     1       2.587 -14.060  -6.302  0.00  0.00    +0.005 A 
ENDBRANCH  19  26
ENDBRANCH  13  19
ENDBRANCH   1  16
BRANCH   9  29
ATOM     29  O   UNL     1       9.480 -14.885   0.304  0.00  0.00    -0.495 OA
ATOM     30  C   UNL     1      10.550 -15.349   1.129  0.00  0.00    +0.277 C 
ENDBRANCH   9  29
BRANCH   3  31
ATOM     31  C   UNL     1       5.600  -7.555   1.997  0.00  0.00    +0.114 C 
BRANCH  31  32
ATOM     32  C   UNL     1       4.766  -7.795   3.257  0.00  0.00    +0.001 C 
BRANCH  32  33
ATOM     33  C   UNL     1       5.058  -6.693   4.278  0.00  0.00    -0.078 C 
BRANCH  33  34
ATOM     34  N   UNL     1       4.257  -6.923   5.488  0.00  0.00    +0.376 N 
ATOM     35  C   UNL     1       4.624  -5.936   6.513  0.00  0.00    -0.097 C 
ATOM     36  C   UNL     1       2.831  -6.787   5.165  0.00  0.00    -0.097 C 
ATOM     37  H   UNL     1       4.436  -7.853   5.838  0.00  0.00    -0.083 HD
ENDBRANCH  33  34
ENDBRANCH  32  33
ENDBRANCH  31  32
ENDBRANCH   3  31
TORSDOF 8
