REMARK  Name = ZINC35872002
REMARK  5 active torsions:
REMARK  status: ('A' for Active; 'I' for Inactive)
REMARK    1  A    between atoms: C_5  and  C_7
REMARK    2  A    between atoms: C_7  and  N_8
REMARK    3  A    between atoms: C_9  and  C_11
REMARK    4  A    between atoms: C_16  and  C_33
REMARK    5  A    between atoms: N_24  and  C_27
REMARK                            x       y       z     vdW  Elec       q    Type
REMARK                         _______ _______ _______ _____ _____    ______ ____
ROOT
ATOM      1  C   UNL     1       1.817  -4.512   2.961  0.00  0.00    +0.098 C 
ATOM      2  C   UNL     1       3.169  -3.987   3.444  0.00  0.00    +0.051 C 
ATOM      3  C   UNL     1       4.267  -4.580   2.599  0.00  0.00    -0.025 A 
ATOM      4  C   UNL     1       5.464  -3.898   2.470  0.00  0.00    +0.017 A 
ATOM      5  C   UNL     1       6.482  -4.422   1.696  0.00  0.00    +0.055 A 
ATOM      6  C   UNL     1       6.308  -5.631   1.048  0.00  0.00    +0.014 A 
ATOM      7  C   UNL     1       5.118  -6.318   1.176  0.00  0.00    +0.024 A 
ATOM      8  C   UNL     1       4.092  -5.793   1.956  0.00  0.00    +0.033 A 
ATOM      9  N   UNL     1       2.897  -6.521   2.076  0.00  0.00    -0.329 N 
ATOM     10  C   UNL     1       1.838  -6.044   2.952  0.00  0.00    +0.069 C 
ATOM     11  C   UNL     1       0.459  -6.553   2.566  0.00  0.00    -0.055 C 
ATOM     12  N   UNL     1       0.496  -7.942   2.111  0.00  0.00    +0.384 N 
ATOM     13  C   UNL     1       1.341  -8.027   0.910  0.00  0.00    -0.059 C 
ATOM     14  C   UNL     1       2.790  -7.770   1.319  0.00  0.00    +0.087 C 
ATOM     15  H   UNL     1       0.883  -8.526   2.838  0.00  0.00    -0.081 HD
ENDROOT
BRANCH  12  16
ATOM     16  C   UNL     1      -0.864  -8.392   1.788  0.00  0.00    -0.068 C 
ATOM     17  C   UNL     1      -1.745  -8.289   3.035  0.00  0.00    -0.015 C 
ATOM     18  C   UNL     1      -3.162  -8.757   2.698  0.00  0.00    -0.002 C 
ATOM     19  C   UNL     1      -3.120 -10.210   2.222  0.00  0.00    -0.000 C 
ATOM     20  C   UNL     1      -2.239 -10.313   0.975  0.00  0.00    -0.002 C 
ATOM     21  C   UNL     1      -0.822  -9.845   1.312  0.00  0.00    -0.015 C 
ENDBRANCH  12  16
BRANCH   1  23
ATOM     22  N   UNL     1       1.488  -2.679   1.333  0.00  0.00    -0.311 N 
ATOM     23  C   UNL     1       1.550  -4.005   1.567  0.00  0.00    +0.218 C 
ATOM     24  O   UNL     1       1.392  -4.790   0.656  0.00  0.00    -0.275 OA
ATOM     25  H   UNL     1       1.614  -2.051   2.062  0.00  0.00    +0.149 HD
BRANCH  22  26
ATOM     26  C   UNL     1       1.228  -2.186  -0.022  0.00  0.00    +0.142 C 
BRANCH  26  31
ATOM     27  C   UNL     1      -0.017   1.378   0.010  0.00  0.00    +0.000 A 
ATOM     28  C   UNL     1       1.171   2.087   0.002  0.00  0.00    +0.003 A 
ATOM     29  C   UNL     1       2.377   1.414  -0.013  0.00  0.00    +0.038 A 
ATOM     30  C   UNL     1       2.397   0.029  -0.021  0.00  0.00    +0.128 A 
ATOM     31  C   UNL     1       1.208  -0.679  -0.013  0.00  0.00    +0.005 A 
ATOM     32  C   UNL     1       0.002  -0.004   0.002  0.00  0.00    +0.008 A 
ATOM     33  F   UNL     1       3.577  -0.630  -0.036  0.00  0.00    -0.205 F 
ENDBRANCH  26  31
ENDBRANCH  22  26
ENDBRANCH   1  23
BRANCH   5  34
ATOM     34  C   UNL     1       7.783  -3.674   1.557  0.00  0.00    +0.417 C 
ATOM     35  F   UNL     1       8.662  -4.076   2.569  0.00  0.00    -0.166 F 
ATOM     36  F   UNL     1       8.350  -3.953   0.309  0.00  0.00    -0.166 F 
ATOM     37  F   UNL     1       7.545  -2.300   1.665  0.00  0.00    -0.166 F 
ENDBRANCH   5  34
TORSDOF 5
