REMARK  Name = ZINC35676159
REMARK  3 active torsions:
REMARK  status: ('A' for Active; 'I' for Inactive)
REMARK    1  A    between atoms: C_4  and  S_8
REMARK    2  A    between atoms: S_8  and  C_9
REMARK    3  A    between atoms: C_14  and  N_15
REMARK                            x       y       z     vdW  Elec       q    Type
REMARK                         _______ _______ _______ _____ _____    ______ ____
ROOT
ATOM      1  C   UNL     1       3.484  -2.524   0.104  0.00  0.00    +0.035 A 
ATOM      2  C   UNL     1       2.145  -2.886   0.089  0.00  0.00    +0.044 A 
ATOM      3  C   UNL     1       1.790  -4.220   0.203  0.00  0.00    +0.077 A 
ATOM      4  C   UNL     1       2.775  -5.198   0.333  0.00  0.00    +0.144 A 
ATOM      5  C   UNL     1       4.111  -4.838   0.348  0.00  0.00    +0.071 A 
ATOM      6  C   UNL     1       4.470  -3.503   0.228  0.00  0.00    +0.042 A 
ATOM      7  O   UNL     1       2.409  -6.504   0.447  0.00  0.00    -0.481 OA
ATOM      8  C   UNL     1       1.179  -6.771   1.126  0.00  0.00    +0.325 C 
ATOM      9  C   UNL     1       0.107  -5.843   0.614  0.00  0.00    +0.255 C 
ATOM     10  O   UNL     1      -1.050  -6.207   0.584  0.00  0.00    -0.272 OA
ATOM     11  N   UNL     1       0.439  -4.604   0.190  0.00  0.00    -0.280 N 
ATOM     12  H   UNL     1      -0.245  -3.990  -0.120  0.00  0.00    +0.155 HD
ENDROOT
BRANCH   6  13
ATOM     13  N   UNL     1       5.823  -3.138   0.236  0.00  0.00    -0.357 N 
ATOM     14  H   UNL     1       6.074  -2.204   0.156  0.00  0.00    +0.142 HD
ATOM     15  H   UNL     1       6.508  -3.818   0.322  0.00  0.00    +0.142 HD
ENDBRANCH   6  13
BRANCH   1  16
ATOM     16  S   UNL     1       3.941  -0.828  -0.040  0.00  0.00    -0.085 S 
BRANCH  16  20
ATOM     17  C   UNL     1       0.015   1.299  -0.821  0.00  0.00    +0.041 A 
ATOM     18  C   UNL     1       0.626   0.584  -1.835  0.00  0.00    +0.042 A 
ATOM     19  C   UNL     1       1.823  -0.066  -1.601  0.00  0.00    +0.137 A 
ATOM     20  C   UNL     1       2.415  -0.000  -0.343  0.00  0.00    +0.051 A 
ATOM     21  C   UNL     1       1.799   0.718   0.673  0.00  0.00    +0.056 A 
ATOM     22  C   UNL     1       0.601   1.367   0.432  0.00  0.00    +0.125 A 
ATOM     23  F   UNL     1       0.001   2.066   1.421  0.00  0.00    -0.205 F 
ATOM     24  F   UNL     1       2.418  -0.764  -2.593  0.00  0.00    -0.204 F 
ENDBRANCH  16  20
ENDBRANCH   1  16
TORSDOF 3
