REMARK  Name = ZINC22746205
REMARK  10 active torsions:
REMARK  status: ('A' for Active; 'I' for Inactive)
REMARK    1  A    between atoms: C_1  and  C_2
REMARK    2  A    between atoms: C_2  and  C_17
REMARK    3  A    between atoms: N_3  and  N_4
REMARK    4  A    between atoms: C_5  and  C_7
REMARK    5  A    between atoms: C_10  and  C_13
REMARK    6  A    between atoms: C_13  and  C_14
REMARK    7  A    between atoms: C_13  and  C_15
REMARK    8  A    between atoms: C_13  and  C_16
REMARK    9  A    between atoms: C_21  and  N_23
REMARK   10  A    between atoms: C_24  and  C_26
REMARK                            x       y       z     vdW  Elec       q    Type
REMARK                         _______ _______ _______ _____ _____    ______ ____
ROOT
ATOM      1  C   UNL     1      -1.959   3.456   7.801  0.00  0.00    +0.068 C 
ATOM      2  C   UNL     1      -1.098   3.504   6.566  0.00  0.00    +0.063 C 
ATOM      3  N   UNL     1      -1.361   4.358   5.625  0.00  0.00    -0.185 NA
ENDROOT
BRANCH   2   4
ATOM      4  C   UNL     1       0.044   2.581   6.426  0.00  0.00    -0.001 A 
ATOM      5  C   UNL     1       1.225   3.014   5.818  0.00  0.00    +0.010 A 
ATOM      6  C   UNL     1       2.292   2.148   5.689  0.00  0.00    +0.002 A 
ATOM      7  C   UNL     1       2.197   0.851   6.159  0.00  0.00    +0.023 A 
ATOM      8  C   UNL     1       1.026   0.410   6.765  0.00  0.00    +0.034 A 
ATOM      9  C   UNL     1      -0.050   1.274   6.905  0.00  0.00    +0.033 A 
BRANCH   8  10
ATOM     10  N   UNL     1       0.935  -0.902   7.239  0.00  0.00    -0.279 N 
ATOM     11  C   UNL     1      -0.218  -1.587   7.110  0.00  0.00    +0.284 C 
ATOM     12  O   UNL     1      -1.153  -1.097   6.502  0.00  0.00    -0.266 OA
ATOM     13  H   UNL     1       1.806  -1.376   7.716  0.00  0.00    +0.155 HD
BRANCH  11  14
ATOM     14  C   UNL     1      -0.348  -2.921   7.701  0.00  0.00    +0.191 A 
ATOM     15  C   UNL     1      -1.458  -3.717   7.650  0.00  0.00    +0.056 A 
ATOM     16  C   UNL     1      -1.140  -4.897   8.339  0.00  0.00    +0.058 A 
ATOM     17  C   UNL     1       0.132  -4.769   8.783  0.00  0.00    +0.171 A 
ATOM     18  O   UNL     1       0.605  -3.577   8.396  0.00  0.00    -0.444 OA
ATOM     19 BR   UNL     1       1.085  -6.060   9.784  0.00  0.00    -0.008 Br
ENDBRANCH  11  14
ENDBRANCH   8  10
ENDBRANCH   2   4
BRANCH   3  20
ATOM     20  N   UNL     1      -0.650   4.313   4.418  0.00  0.00    -0.207 N 
ATOM     21  C   UNL     1      -0.844   5.266   3.485  0.00  0.00    +0.235 C 
ATOM     22  O   UNL     1      -1.634   6.163   3.690  0.00  0.00    -0.274 OA
ATOM     23  H   UNL     1       0.067   3.499   4.233  0.00  0.00    +0.177 HD
BRANCH  21  24
ATOM     24  C   UNL     1      -0.078   5.217   2.188  0.00  0.00    +0.077 C 
ATOM     25  C   UNL     1      -0.399   3.912   1.456  0.00  0.00    +0.013 C 
ATOM     26  C   UNL     1       0.378   3.862   0.139  0.00  0.00    +0.005 C 
ATOM     27  C   UNL     1      -0.026   5.050  -0.737  0.00  0.00    -0.006 C 
ATOM     28  C   UNL     1       0.295   6.355  -0.004  0.00  0.00    +0.005 C 
ATOM     29  C   UNL     1      -0.482   6.405   1.313  0.00  0.00    +0.013 C 
BRANCH  27  30
ATOM     30  C   UNL     1       0.751   5.001  -2.054  0.00  0.00    -0.035 C 
ATOM     31  C   UNL     1       0.431   3.696  -2.786  0.00  0.00    +0.011 C 
ATOM     32  C   UNL     1       0.348   6.189  -2.929  0.00  0.00    +0.011 C 
ATOM     33  C   UNL     1       2.252   5.067  -1.764  0.00  0.00    +0.011 C 
ENDBRANCH  27  30
ENDBRANCH  21  24
ENDBRANCH   3  20
TORSDOF 6
