REMARK  Name = ZINC67014427
REMARK  8 active torsions:
REMARK  status: ('A' for Active; 'I' for Inactive)
REMARK    1  A    between atoms: C_1  and  C_2
REMARK    2  A    between atoms: C_2  and  C_4
REMARK    3  A    between atoms: C_2  and  C_25
REMARK    4  A    between atoms: C_4  and  N_5
REMARK    5  A    between atoms: N_5  and  C_6
REMARK    6  A    between atoms: N_9  and  C_10
REMARK    7  A    between atoms: C_12  and  C_22
REMARK    8  A    between atoms: C_15  and  N_16
REMARK                            x       y       z     vdW  Elec       q    Type
REMARK                         _______ _______ _______ _____ _____    ______ ____
ROOT
ATOM      1  C   UNL     1      -4.155   2.551  -2.439  0.00  0.00    +0.057 A 
ATOM      2  C   UNL     1      -4.171   3.359  -1.319  0.00  0.00    +0.038 A 
ATOM      3  C   UNL     1      -4.930   4.533  -1.318  0.00  0.00    +0.038 A 
ATOM      4  C   UNL     1      -5.670   4.885  -2.450  0.00  0.00    +0.015 A 
ATOM      5  C   UNL     1      -5.651   4.077  -3.565  0.00  0.00    +0.026 A 
ATOM      6  C   UNL     1      -4.892   2.912  -3.570  0.00  0.00    +0.051 A 
ENDROOT
BRANCH   1  11
ATOM      7  N   UNL     1      -1.664   0.086  -1.551  0.00  0.00    -0.288 N 
ATOM      8  C   UNL     1      -2.104  -1.060  -2.350  0.00  0.00    +0.133 C 
ATOM      9  C   UNL     1      -2.327   1.257  -1.630  0.00  0.00    +0.306 C 
ATOM     10  O   UNL     1      -1.962   2.208  -0.966  0.00  0.00    -0.252 OA
ATOM     11  N   UNL     1      -3.394   1.373  -2.444  0.00  0.00    -0.268 N 
ATOM     12  H   UNL     1      -3.636   0.642  -3.034  0.00  0.00    +0.156 HD
BRANCH   7  13
ATOM     13  C   UNL     1      -0.504  -0.041  -0.665  0.00  0.00    +0.117 C 
BRANCH  13  15
ATOM     14  C   UNL     1       0.712   1.812  -1.819  0.00  0.00    +0.014 C 
ATOM     15  C   UNL     1       0.766   0.333  -1.432  0.00  0.00    +0.033 C 
BRANCH  15  16
ATOM     16  C   UNL     1       1.970   0.085  -0.560  0.00  0.00    -0.043 A 
ATOM     17  C   UNL     1       2.097   0.746   0.647  0.00  0.00    +0.004 A 
ATOM     18  C   UNL     1       3.202   0.519   1.447  0.00  0.00    +0.000 A 
ATOM     19  C   UNL     1       4.179  -0.369   1.039  0.00  0.00    +0.000 A 
ATOM     20  C   UNL     1       4.052  -1.031  -0.168  0.00  0.00    +0.000 A 
ATOM     21  C   UNL     1       2.945  -0.807  -0.966  0.00  0.00    +0.004 A 
ENDBRANCH  15  16
ENDBRANCH  13  15
ENDBRANCH   7  13
ENDBRANCH   1  11
BRANCH   6  22
ATOM     22  N   UNL     1      -4.871   2.101  -4.702  0.00  0.00    -0.328 N 
ATOM     23  C   UNL     1      -5.858   1.026  -4.870  0.00  0.00    +0.105 C 
ATOM     24  C   UNL     1      -6.549   1.198  -6.227  0.00  0.00    +0.019 C 
ATOM     25  C   UNL     1      -5.490   1.258  -7.330  0.00  0.00    +0.003 C 
ATOM     26  C   UNL     1      -4.575   2.462  -7.097  0.00  0.00    +0.019 C 
ATOM     27  C   UNL     1      -3.866   2.308  -5.753  0.00  0.00    +0.105 C 
ENDBRANCH   6  22
BRANCH   3  28
ATOM     28  C   UNL     1      -4.950   5.399  -0.123  0.00  0.00    +0.242 C 
ATOM     29  O   UNL     1      -4.307   5.091   0.862  0.00  0.00    -0.270 OA
ATOM     30  N   UNL     1      -5.683   6.530  -0.123  0.00  0.00    -0.325 N 
ATOM     31  H   UNL     1      -6.196   6.775  -0.909  0.00  0.00    +0.145 HD
ATOM     32  H   UNL     1      -5.696   7.099   0.662  0.00  0.00    +0.145 HD
ENDBRANCH   3  28
TORSDOF 6
