REMARK  Name = ZINC36032537
REMARK  8 active torsions:
REMARK  status: ('A' for Active; 'I' for Inactive)
REMARK    1  A    between atoms: C_1  and  C_2
REMARK    2  A    between atoms: C_2  and  C_3
REMARK    3  A    between atoms: C_2  and  C_4
REMARK    4  A    between atoms: C_4  and  C_5
REMARK    5  A    between atoms: N_9  and  C_26
REMARK    6  A    between atoms: C_17  and  C_19
REMARK    7  A    between atoms: C_26  and  C_27
REMARK    8  A    between atoms: C_31  and  C_33
REMARK                            x       y       z     vdW  Elec       q    Type
REMARK                         _______ _______ _______ _____ _____    ______ ____
ROOT
ATOM      1  C   UNL     1      -0.637   0.632   2.307  0.00  0.00    +0.019 C 
ATOM      2  C   UNL     1      -0.059  -0.021   3.544  0.00  0.00    +0.201 C 
ATOM      3  O   UNL     1       0.015  -1.214   3.747  0.00  0.00    -0.277 OA
ATOM      4  N   UNL     1       0.359   0.949   4.384  0.00  0.00    -0.309 N 
ATOM      5  C   UNL     1       0.093   2.261   3.787  0.00  0.00    +0.006 C 
ATOM      6  N   UNL     1      -0.138   2.028   2.344  0.00  0.00    +0.401 N 
ATOM      7  C   UNL     1      -1.155   2.882   4.413  0.00  0.00    +0.025 C 
ATOM      8  C   UNL     1      -0.923   3.084   5.914  0.00  0.00    +0.108 C 
ATOM      9  N   UNL     1       0.309   3.862   6.102  0.00  0.00    -0.298 N 
ATOM     10  C   UNL     1       1.549   3.386   5.474  0.00  0.00    +0.108 C 
ATOM     11  C   UNL     1       1.297   3.182   3.977  0.00  0.00    +0.025 C 
ATOM     12  C   UNL     1       0.301   4.992   6.836  0.00  0.00    +0.247 C 
ATOM     13  O   UNL     1       1.300   5.683   6.900  0.00  0.00    -0.270 OA
ATOM     14  H   UNL     1       0.725   2.111   1.828  0.00  0.00    -0.082 HD
ATOM     15  H   UNL     1      -0.833   2.665   1.985  0.00  0.00    -0.082 HD
ENDROOT
BRANCH  12  16
ATOM     16  C   UNL     1      -0.921   5.392   7.565  0.00  0.00    +0.040 A 
ATOM     17  C   UNL     1      -1.687   4.431   8.229  0.00  0.00    +0.013 A 
ATOM     18  C   UNL     1      -2.826   4.809   8.909  0.00  0.00    +0.004 A 
ATOM     19  C   UNL     1      -3.213   6.138   8.933  0.00  0.00    +0.038 A 
ATOM     20  C   UNL     1      -2.459   7.096   8.276  0.00  0.00    +0.124 A 
ATOM     21  C   UNL     1      -1.312   6.731   7.597  0.00  0.00    +0.051 A 
ATOM     22  F   UNL     1      -2.843   8.392   8.303  0.00  0.00    -0.205 F 
ENDBRANCH  12  16
BRANCH   1  23
ATOM     23  C   UNL     1      -0.138  -0.079   1.047  0.00  0.00    -0.004 C 
BRANCH  23  25
ATOM     24  C   UNL     1      -0.108  -0.010  -1.450  0.00  0.00    +0.007 C 
ATOM     25  C   UNL     1      -0.715   0.611  -0.190  0.00  0.00    -0.018 C 
ATOM     26  C   UNL     1      -2.234   0.431  -0.214  0.00  0.00    +0.007 C 
ENDBRANCH  23  25
ENDBRANCH   1  23
BRANCH   4  27
ATOM     27  C   UNL     1       0.984   0.725   5.690  0.00  0.00    +0.141 C 
BRANCH  27  28
ATOM     28  C   UNL     1       2.424   0.325   5.496  0.00  0.00    -0.030 A 
ATOM     29  C   UNL     1       2.741  -0.984   5.181  0.00  0.00    +0.005 A 
ATOM     30  C   UNL     1       4.061  -1.351   5.004  0.00  0.00    +0.001 A 
ATOM     31  C   UNL     1       5.065  -0.410   5.141  0.00  0.00    +0.012 A 
ATOM     32  C   UNL     1       4.748   0.898   5.455  0.00  0.00    +0.055 A 
ATOM     33  C   UNL     1       3.427   1.266   5.628  0.00  0.00    +0.017 A 
BRANCH  32  34
ATOM     34  C   UNL     1       5.842   1.923   5.605  0.00  0.00    +0.417 C 
ATOM     35  F   UNL     1       7.083   1.317   5.381  0.00  0.00    -0.166 F 
ATOM     36  F   UNL     1       5.650   2.950   4.674  0.00  0.00    -0.166 F 
ATOM     37  F   UNL     1       5.809   2.454   6.899  0.00  0.00    -0.166 F 
ENDBRANCH  32  34
ENDBRANCH  27  28
ENDBRANCH   4  27
TORSDOF 6
