REMARK  Name = ZINC15768956
REMARK  14 active torsions:
REMARK  status: ('A' for Active; 'I' for Inactive)
REMARK    1  A    between atoms: C_1  and  C_2
REMARK    2  A    between atoms: C_4  and  C_31
REMARK    3  A    between atoms: C_7  and  C_21
REMARK    4  A    between atoms: C_9  and  C_20
REMARK    5  A    between atoms: C_11  and  C_12
REMARK    6  A    between atoms: C_11  and  O_19
REMARK    7  A    between atoms: C_23  and  O_29
REMARK    8  A    between atoms: C_26  and  O_27
REMARK    9  A    between atoms: O_27  and  C_28
REMARK   10  A    between atoms: O_29  and  C_30
REMARK   11  A    between atoms: C_33  and  O_39
REMARK   12  A    between atoms: C_36  and  O_37
REMARK   13  A    between atoms: O_37  and  C_38
REMARK   14  A    between atoms: O_39  and  C_40
REMARK                            x       y       z     vdW  Elec       q    Type
REMARK                         _______ _______ _______ _____ _____    ______ ____
ROOT
ATOM      1  C   UNL     1      -0.019   1.526   0.010  0.00  0.00    +0.009 C 
ATOM      2  C   UNL     1       0.002  -0.004   0.002  0.00  0.00    +0.013 C 
ATOM      3  C   UNL     1      -1.433  -0.535   0.015  0.00  0.00    -0.030 C 
ATOM      4  N   UNL     1      -1.416  -2.002   0.009  0.00  0.00    +0.389 N 
ATOM      5  C   UNL     1      -0.774  -2.498   1.233  0.00  0.00    -0.030 C 
ATOM      6  C   UNL     1       0.687  -2.043   1.267  0.00  0.00    +0.013 C 
ATOM      7  C   UNL     1       0.741  -0.512   1.244  0.00  0.00    +0.094 C 
ATOM      8  C   UNL     1       1.423  -2.598   0.046  0.00  0.00    +0.009 C 
ATOM      9  H   UNL     1      -2.363  -2.349  -0.036  0.00  0.00    -0.084 HD
ATOM     10  H   UNL     1      -0.902  -2.329  -0.795  0.00  0.00    -0.084 HD
ENDROOT
BRANCH   7  11
ATOM     11  C   UNL     1       2.177  -0.058   1.197  0.00  0.00    -0.016 A 
ATOM     12  C   UNL     1       2.802   0.131  -0.022  0.00  0.00    +0.009 A 
ATOM     13  C   UNL     1       4.119   0.548  -0.066  0.00  0.00    +0.039 A 
ATOM     14  C   UNL     1       4.812   0.776   1.110  0.00  0.00    +0.123 A 
ATOM     15  C   UNL     1       4.185   0.586   2.330  0.00  0.00    +0.039 A 
ATOM     16  C   UNL     1       2.867   0.174   2.372  0.00  0.00    +0.009 A 
ATOM     17  F   UNL     1       6.100   1.183   1.068  0.00  0.00    -0.205 F 
ENDBRANCH   7  11
BRANCH   5  18
ATOM     18  C   UNL     1      -0.830  -4.003   1.255  0.00  0.00    -0.016 A 
ATOM     19  C   UNL     1      -0.924  -4.708   0.070  0.00  0.00    +0.051 A 
ATOM     20  C   UNL     1      -0.975  -6.094   0.090  0.00  0.00    +0.121 A 
ATOM     21  C   UNL     1      -0.932  -6.772   1.300  0.00  0.00    +0.049 A 
ATOM     22  C   UNL     1      -0.839  -6.067   2.484  0.00  0.00    +0.049 A 
ATOM     23  C   UNL     1      -0.782  -4.682   2.463  0.00  0.00    +0.122 A 
BRANCH  23  24
ATOM     24  O   UNL     1      -0.684  -3.988   3.629  0.00  0.00    -0.495 OA
ATOM     25  C   UNL     1      -0.639  -4.751   4.836  0.00  0.00    +0.277 C 
ENDBRANCH  23  24
BRANCH  20  26
ATOM     26  O   UNL     1      -1.068  -6.788  -1.075  0.00  0.00    -0.495 OA
ATOM     27  C   UNL     1      -1.117  -8.213  -0.980  0.00  0.00    +0.277 C 
ENDBRANCH  20  26
ENDBRANCH   5  18
BRANCH   3  28
ATOM     28  C   UNL     1      -2.163  -0.037  -1.206  0.00  0.00    -0.016 A 
ATOM     29  C   UNL     1      -2.326  -0.867  -2.299  0.00  0.00    +0.051 A 
ATOM     30  C   UNL     1      -2.998  -0.409  -3.422  0.00  0.00    +0.121 A 
ATOM     31  C   UNL     1      -3.507   0.881  -3.449  0.00  0.00    +0.049 A 
ATOM     32  C   UNL     1      -3.344   1.710  -2.356  0.00  0.00    +0.049 A 
ATOM     33  C   UNL     1      -2.676   1.251  -1.230  0.00  0.00    +0.122 A 
BRANCH  33  34
ATOM     34  O   UNL     1      -2.520   2.065  -0.153  0.00  0.00    -0.495 OA
ATOM     35  C   UNL     1      -3.074   3.379  -0.247  0.00  0.00    +0.277 C 
ENDBRANCH  33  34
BRANCH  30  36
ATOM     36  O   UNL     1      -3.158  -1.225  -4.498  0.00  0.00    -0.495 OA
ATOM     37  C   UNL     1      -3.861  -0.689  -5.621  0.00  0.00    +0.277 C 
ENDBRANCH  30  36
ENDBRANCH   3  28
BRANCH   7  38
ATOM     38  O   UNL     1       0.113   0.005   2.418  0.00  0.00    -0.384 OA
ATOM     39  H   UNL     1       0.530  -0.277   3.244  0.00  0.00    +0.211 HD
ENDBRANCH   7  38
TORSDOF 8
