REMARK  Name = ZINC35664070
REMARK  9 active torsions:
REMARK  status: ('A' for Active; 'I' for Inactive)
REMARK    1  A    between atoms: C_1  and  C_2
REMARK    2  A    between atoms: C_6  and  N_8
REMARK    3  A    between atoms: N_14  and  C_17
REMARK    4  A    between atoms: C_20  and  N_23
REMARK    5  A    between atoms: C_24  and  C_26
REMARK    6  A    between atoms: C_26  and  N_27
REMARK    7  A    between atoms: N_27  and  C_28
REMARK    8  A    between atoms: C_28  and  C_29
REMARK    9  A    between atoms: C_31  and  C_33
REMARK                            x       y       z     vdW  Elec       q    Type
REMARK                         _______ _______ _______ _____ _____    ______ ____
ROOT
ATOM      1  C   UNL     1      -1.882 -13.189   9.011  0.00  0.00    +0.030 A 
ATOM      2  C   UNL     1      -2.258 -11.857   9.126  0.00  0.00    +0.025 A 
ATOM      3  C   UNL     1      -2.091 -11.193  10.325  0.00  0.00    +0.025 A 
ATOM      4  C   UNL     1      -1.547 -11.858  11.416  0.00  0.00    +0.034 A 
ATOM      5  C   UNL     1      -1.171 -13.190  11.302  0.00  0.00    +0.025 A 
ATOM      6  C   UNL     1      -1.344 -13.855  10.104  0.00  0.00    +0.025 A 
ENDROOT
BRANCH   1  13
ATOM      7  N   UNL     1      -1.982 -14.632   3.055  0.00  0.00    -0.269 N 
ATOM      8  C   UNL     1      -1.455 -15.277   4.114  0.00  0.00    +0.307 C 
ATOM      9  O   UNL     1      -1.127 -16.443   4.014  0.00  0.00    -0.252 OA
ATOM     10  N   UNL     1      -1.292 -14.629   5.285  0.00  0.00    -0.282 N 
ATOM     11  C   UNL     1      -1.774 -13.251   5.450  0.00  0.00    +0.128 C 
ATOM     12  C   UNL     1      -2.713 -13.201   6.662  0.00  0.00    +0.124 C 
ATOM     13  N   UNL     1      -2.051 -13.861   7.796  0.00  0.00    -0.327 N 
ATOM     14  C   UNL     1      -1.570 -15.240   7.631  0.00  0.00    +0.124 C 
ATOM     15  C   UNL     1      -0.635 -15.291   6.421  0.00  0.00    +0.128 C 
ATOM     16  H   UNL     1      -2.209 -13.691   3.123  0.00  0.00    +0.156 HD
BRANCH   7  22
ATOM     17  C   UNL     1      -4.612 -15.241  -1.054  0.00  0.00    +0.044 C 
ATOM     18  C   UNL     1      -3.469 -15.635  -0.155  0.00  0.00    -0.049 A 
ATOM     19  C   UNL     1      -2.634 -16.677  -0.516  0.00  0.00    +0.003 A 
ATOM     20  C   UNL     1      -1.583 -17.041   0.306  0.00  0.00    +0.002 A 
ATOM     21  C   UNL     1      -1.365 -16.365   1.490  0.00  0.00    +0.023 A 
ATOM     22  C   UNL     1      -2.201 -15.319   1.855  0.00  0.00    +0.035 A 
ATOM     23  C   UNL     1      -3.252 -14.951   1.025  0.00  0.00    +0.026 A 
ENDBRANCH   7  22
ENDBRANCH   1  13
BRANCH   4  24
ATOM     24  N   UNL     1      -1.378 -11.184  12.633  0.00  0.00    -0.284 N 
ATOM     25  C   UNL     1      -2.253 -10.229  13.003  0.00  0.00    +0.235 C 
ATOM     26  O   UNL     1      -3.217  -9.988  12.307  0.00  0.00    -0.274 OA
ATOM     27  H   UNL     1      -0.630 -11.406  13.210  0.00  0.00    +0.155 HD
BRANCH  25  28
ATOM     28  C   UNL     1      -2.035  -9.459  14.280  0.00  0.00    +0.204 C 
BRANCH  28  29
ATOM     29  N   UNL     1      -3.116  -8.486  14.454  0.00  0.00    -0.285 N 
ATOM     30  C   UNL     1      -2.856  -7.167  14.365  0.00  0.00    +0.250 C 
ATOM     31  O   UNL     1      -3.755  -6.359  14.503  0.00  0.00    -0.270 OA
BRANCH  30  32
ATOM     32  C   UNL     1      -1.480  -6.701  14.099  0.00  0.00    +0.072 A 
ATOM     33  C   UNL     1      -0.646  -7.428  13.246  0.00  0.00    +0.016 A 
ATOM     34  C   UNL     1       0.637  -6.988  13.001  0.00  0.00    +0.001 A 
ATOM     35  C   UNL     1       1.102  -5.828  13.599  0.00  0.00    +0.003 A 
ATOM     36  C   UNL     1       0.285  -5.103  14.445  0.00  0.00    +0.039 A 
ATOM     37  C   UNL     1      -1.008  -5.528  14.695  0.00  0.00    +0.135 A 
ATOM     38  F   UNL     1      -1.808  -4.816  15.517  0.00  0.00    -0.205 F 
ENDBRANCH  30  32
BRANCH  29  39
ATOM     39  C   UNL     1      -4.480  -8.947  14.727  0.00  0.00    +0.135 C 
BRANCH  39  40
ATOM     40  C   UNL     1      -4.721  -8.952  16.214  0.00  0.00    -0.016 C 
ATOM     41  C   UNL     1      -5.754  -8.318  16.712  0.00  0.00    +0.005 C 
ENDBRANCH  39  40
ENDBRANCH  29  39
ENDBRANCH  28  29
ENDBRANCH  25  28
ENDBRANCH   4  24
TORSDOF 8
