REMARK  Name = ZINC36899622
REMARK  1 active torsions:
REMARK  status: ('A' for Active; 'I' for Inactive)
REMARK    1  A    between atoms: N_10  and  C_11
REMARK                            x       y       z     vdW  Elec       q    Type
REMARK                         _______ _______ _______ _____ _____    ______ ____
ROOT
ATOM      1  C   UNL     1      -0.017   1.383   0.010  0.00  0.00    +0.017 A 
ATOM      2  C   UNL     1       1.164   2.098   0.002  0.00  0.00    +0.029 A 
ATOM      3  C   UNL     1       2.377   1.427  -0.013  0.00  0.00    +0.075 A 
ATOM      4  C   UNL     1       2.402   0.023  -0.021  0.00  0.00    +0.092 A 
ATOM      5  C   UNL     1       1.199  -0.687  -0.013  0.00  0.00    +0.045 A 
ATOM      6  C   UNL     1       0.002  -0.004   0.002  0.00  0.00    +0.020 A 
ATOM      7 BR   UNL     1      -1.627  -0.965   0.013  0.00  0.00    -0.050 Br
ATOM      8  N   UNL     1       3.708  -0.354  -0.035  0.00  0.00    -0.214 NA
ATOM      9  C   UNL     1       4.474   0.708  -0.037  0.00  0.00    +0.199 A 
ATOM     10  N   UNL     1       3.702   1.837  -0.024  0.00  0.00    -0.278 N 
ATOM     11  N   UNL     1       5.853   0.692  -0.050  0.00  0.00    -0.329 N 
ATOM     12  H   UNL     1       6.327  -0.154  -0.059  0.00  0.00    +0.145 HD
ATOM     13  H   UNL     1       6.348   1.526  -0.050  0.00  0.00    +0.145 HD
ENDROOT
BRANCH  10  14
ATOM     14  C   UNL     1       4.164   3.162  -0.022  0.00  0.00    +0.088 A 
ATOM     15  C   UNL     1       4.410   3.810   1.181  0.00  0.00    +0.032 A 
ATOM     16  C   UNL     1       4.865   5.115   1.182  0.00  0.00    +0.043 A 
ATOM     17  C   UNL     1       5.077   5.777  -0.015  0.00  0.00    +0.161 A 
ATOM     18  C   UNL     1       4.833   5.134  -1.218  0.00  0.00    +0.195 A 
ATOM     19  C   UNL     1       4.381   3.825  -1.224  0.00  0.00    +0.185 A 
ATOM     20  F   UNL     1       4.148   3.195  -2.396  0.00  0.00    -0.200 F 
ATOM     21  F   UNL     1       5.040   5.782  -2.385  0.00  0.00    -0.199 F 
ATOM     22  F   UNL     1       5.522   7.053  -0.010  0.00  0.00    -0.202 F 
ENDBRANCH  10  14
TORSDOF 1
