REMARK  Name = ZINC13028806
REMARK  9 active torsions:
REMARK  status: ('A' for Active; 'I' for Inactive)
REMARK    1  A    between atoms: C_1  and  C_2
REMARK    2  A    between atoms: C_5  and  C_29
REMARK    3  A    between atoms: C_7  and  S_8
REMARK    4  A    between atoms: S_8  and  N_11
REMARK    5  A    between atoms: N_11  and  C_12
REMARK    6  A    between atoms: C_14  and  S_20
REMARK    7  A    between atoms: C_17  and  O_18
REMARK    8  A    between atoms: O_18  and  C_19
REMARK    9  A    between atoms: S_20  and  N_23
REMARK                            x       y       z     vdW  Elec       q    Type
REMARK                         _______ _______ _______ _____ _____    ______ ____
ROOT
ATOM      1  C   UNL     1      -1.564   3.603  -3.429  0.00  0.00    +0.091 A 
ATOM      2  C   UNL     1      -0.906   2.986  -2.374  0.00  0.00    +0.056 A 
ATOM      3  C   UNL     1      -1.152   1.656  -2.091  0.00  0.00    +0.107 A 
ATOM      4  C   UNL     1      -2.047   0.935  -2.860  0.00  0.00    +0.032 A 
ATOM      5  C   UNL     1      -2.710   1.545  -3.909  0.00  0.00    +0.049 A 
ATOM      6  C   UNL     1      -2.470   2.878  -4.199  0.00  0.00    +0.142 A 
ENDROOT
BRANCH   3   7
ATOM      7  S   UNL     1      -0.315   0.874  -0.752  0.00  0.00    +0.061 S 
ATOM      8  O   UNL     1      -0.310  -0.519  -1.034  0.00  0.00    -0.153 OA
ATOM      9  O   UNL     1       0.880   1.611  -0.533  0.00  0.00    -0.153 OA
BRANCH   7  10
ATOM     10  N   UNL     1      -1.252   1.080   0.598  0.00  0.00    -0.177 NA
ATOM     11  C   UNL     1      -1.068   2.252   1.466  0.00  0.00    +0.109 C 
ATOM     12  C   UNL     1      -2.424   2.954   1.634  0.00  0.00    +0.017 C 
ATOM     13  C   UNL     1      -3.453   1.945   2.151  0.00  0.00    +0.003 C 
ATOM     14  C   UNL     1      -3.619   0.816   1.131  0.00  0.00    +0.017 C 
ATOM     15  C   UNL     1      -2.280   0.092   0.954  0.00  0.00    +0.109 C 
ENDBRANCH   7  10
ENDBRANCH   3   7
BRANCH   1  16
ATOM     16  N   UNL     1      -1.318   4.950  -3.718  0.00  0.00    -0.213 N 
ATOM     17  H   UNL     1      -2.038   5.517  -4.035  0.00  0.00    +0.174 HD
BRANCH  16  18
ATOM     18  S   UNL     1       0.202   5.575  -3.517  0.00  0.00    +0.073 S 
ATOM     19  O   UNL     1       0.165   6.904  -4.020  0.00  0.00    -0.150 OA
ATOM     20  O   UNL     1       0.592   5.276  -2.184  0.00  0.00    -0.150 OA
BRANCH  18  27
ATOM     21  C   UNL     1       0.028   5.588  -6.532  0.00  0.00    +0.046 C 
ATOM     22  C   UNL     1       1.124   4.737  -5.946  0.00  0.00    -0.024 A 
ATOM     23  C   UNL     1       1.968   4.028  -6.782  0.00  0.00    +0.006 A 
ATOM     24  C   UNL     1       2.974   3.247  -6.252  0.00  0.00    +0.015 A 
ATOM     25  C   UNL     1       3.139   3.173  -4.867  0.00  0.00    +0.065 A 
ATOM     26  C   UNL     1       2.288   3.896  -4.029  0.00  0.00    +0.044 A 
ATOM     27  C   UNL     1       1.283   4.668  -4.573  0.00  0.00    +0.112 A 
BRANCH  25  28
ATOM     28  C   UNL     1       4.214   2.339  -4.292  0.00  0.00    +0.387 C 
ATOM     29  O   UNL     1       4.355   2.276  -3.087  0.00  0.00    -0.241 OA
ATOM     30  O   UNL     1       5.037   1.647  -5.103  0.00  0.00    -0.241 OA
ENDBRANCH  25  28
ENDBRANCH  18  27
ENDBRANCH  16  18
ENDBRANCH   1  16
BRANCH   6  31
ATOM     31  O   UNL     1      -3.117   3.477  -5.235  0.00  0.00    -0.493 OA
ATOM     32  C   UNL     1      -4.032   2.672  -5.981  0.00  0.00    +0.277 C 
ENDBRANCH   6  31
TORSDOF 7
