REMARK  Name = ZINC34863248
REMARK  10 active torsions:
REMARK  status: ('A' for Active; 'I' for Inactive)
REMARK    1  A    between atoms: C_1  and  C_2
REMARK    2  A    between atoms: C_5  and  C_8
REMARK    3  A    between atoms: C_8  and  C_38
REMARK    4  A    between atoms: N_11  and  C_15
REMARK    5  A    between atoms: C_15  and  C_16
REMARK    6  A    between atoms: N_18  and  C_19
REMARK    7  A    between atoms: C_22  and  S_25
REMARK    8  A    between atoms: S_25  and  N_28
REMARK    9  A    between atoms: C_30  and  C_37
REMARK   10  A    between atoms: C_33  and  C_36
REMARK                            x       y       z     vdW  Elec       q    Type
REMARK                         _______ _______ _______ _____ _____    ______ ____
ROOT
ATOM      1  C   UNL     1       4.609  -8.135   2.212  0.00  0.00    +0.235 C 
ATOM      2  O   UNL     1       5.438  -9.015   2.317  0.00  0.00    -0.274 OA
ATOM      3  N   UNL     1       3.299  -8.424   2.342  0.00  0.00    -0.284 N 
ATOM      4  H   UNL     1       2.642  -7.711   2.325  0.00  0.00    +0.155 HD
ENDROOT
BRANCH   3   5
ATOM      5  C   UNL     1       2.888  -9.752   2.500  0.00  0.00    +0.034 A 
ATOM      6  C   UNL     1       1.696 -10.183   1.933  0.00  0.00    +0.025 A 
ATOM      7  C   UNL     1       1.293 -11.495   2.091  0.00  0.00    +0.030 A 
ATOM      8  C   UNL     1       2.075 -12.378   2.813  0.00  0.00    +0.106 A 
ATOM      9  C   UNL     1       3.262 -11.951   3.380  0.00  0.00    +0.030 A 
ATOM     10  C   UNL     1       3.674 -10.642   3.220  0.00  0.00    +0.025 A 
BRANCH   8  11
ATOM     11  S   UNL     1       1.556 -14.050   3.013  0.00  0.00    +0.061 S 
ATOM     12  O   UNL     1       2.191 -14.534   4.188  0.00  0.00    -0.153 OA
ATOM     13  O   UNL     1       0.145 -14.060   2.850  0.00  0.00    -0.153 OA
BRANCH  11  14
ATOM     14  N   UNL     1       2.185 -14.912   1.746  0.00  0.00    -0.176 NA
ATOM     15  C   UNL     1       1.433 -15.055   0.492  0.00  0.00    +0.112 C 
ATOM     16  C   UNL     1       2.322 -14.603  -0.671  0.00  0.00    +0.002 C 
ATOM     17  C   UNL     1       3.639 -15.383  -0.634  0.00  0.00    +0.009 C 
ATOM     18  C   UNL     1       4.371 -15.090   0.677  0.00  0.00    +0.002 C 
ATOM     19  C   UNL     1       3.508 -15.542   1.853  0.00  0.00    +0.112 C 
ATOM     20  C   UNL     1       5.702 -15.844   0.698  0.00  0.00    +0.009 C 
ATOM     21  C   UNL     1       2.611 -13.107  -0.541  0.00  0.00    +0.009 C 
ENDBRANCH  11  14
ENDBRANCH   8  11
ENDBRANCH   3   5
BRANCH   1  22
ATOM     22  C   UNL     1       5.045  -6.719   1.938  0.00  0.00    +0.214 C 
BRANCH  22  26
ATOM     23  C   UNL     1       8.657  -6.699   1.073  0.00  0.00    +0.135 C 
ATOM     24  C   UNL     1       7.196  -6.833   0.695  0.00  0.00    +0.251 C 
ATOM     25  O   UNL     1       6.741  -7.046  -0.409  0.00  0.00    -0.272 OA
ATOM     26  N   UNL     1       6.506  -6.668   1.841  0.00  0.00    -0.215 N 
ATOM     27  C   UNL     1       7.321  -6.449   2.880  0.00  0.00    +0.310 C 
ATOM     28  O   UNL     1       6.933  -6.271   4.017  0.00  0.00    -0.252 OA
ATOM     29  N   UNL     1       8.618  -6.450   2.524  0.00  0.00    -0.281 N 
ATOM     30  C   UNL     1       9.416  -7.993   0.769  0.00  0.00    +0.047 C 
ATOM     31  H   UNL     1       9.380  -6.313   3.109  0.00  0.00    +0.152 HD
BRANCH  23  36
ATOM     32  C   UNL     1      11.073  -2.238  -1.694  0.00  0.00    +0.044 C 
ATOM     33  C   UNL     1      10.443  -3.401  -0.973  0.00  0.00    -0.050 A 
ATOM     34  C   UNL     1      10.847  -3.719   0.310  0.00  0.00    +0.004 A 
ATOM     35  C   UNL     1      10.269  -4.787   0.972  0.00  0.00    +0.006 A 
ATOM     36  C   UNL     1       9.287  -5.535   0.351  0.00  0.00    -0.015 A 
ATOM     37  C   UNL     1       8.882  -5.217  -0.932  0.00  0.00    +0.006 A 
ATOM     38  C   UNL     1       9.457  -4.147  -1.592  0.00  0.00    +0.004 A 
ENDBRANCH  23  36
ENDBRANCH  22  26
ENDBRANCH   1  22
TORSDOF 6
