REMARK  Name = ZINC16154818
REMARK  5 active torsions:
REMARK  status: ('A' for Active; 'I' for Inactive)
REMARK    1  A    between atoms: C_6  and  S_11
REMARK    2  A    between atoms: S_11  and  N_14
REMARK    3  A    between atoms: N_14  and  C_15
REMARK    4  A    between atoms: C_19  and  S_21
REMARK    5  A    between atoms: S_21  and  N_24
REMARK                            x       y       z     vdW  Elec       q    Type
REMARK                         _______ _______ _______ _____ _____    ______ ____
ROOT
ATOM      1  C   UNL     1       3.369   1.954  -2.352  0.00  0.00    +0.050 A 
ATOM      2  C   UNL     1       2.666   3.131  -2.130  0.00  0.00    +0.024 A 
ATOM      3  C   UNL     1       2.986   4.270  -2.842  0.00  0.00    +0.004 A 
ATOM      4  C   UNL     1       3.999   4.237  -3.782  0.00  0.00    +0.029 A 
ATOM      5  C   UNL     1       4.699   3.066  -4.009  0.00  0.00    +0.114 A 
ATOM      6  C   UNL     1       4.387   1.924  -3.297  0.00  0.00    +0.053 A 
ENDROOT
BRANCH   5   7
ATOM      7  S   UNL     1       5.989   3.030  -5.208  0.00  0.00    +0.100 S 
ATOM      8  O   UNL     1       6.450   4.367  -5.349  0.00  0.00    -0.146 OA
ATOM      9  O   UNL     1       6.852   1.961  -4.845  0.00  0.00    -0.146 OA
BRANCH   7  10
ATOM     10  N   UNL     1       5.301   2.611  -6.655  0.00  0.00    -0.118 NA
ATOM     11  C   UNL     1       6.035   2.511  -7.715  0.00  0.00    +0.117 C 
ATOM     12  C   UNL     1       7.535   2.785  -7.637  0.00  0.00    +0.073 C 
ATOM     13  C   UNL     1       8.241   1.454  -7.834  0.00  0.00    +0.008 C 
ATOM     14  C   UNL     1       8.521   1.127  -9.302  0.00  0.00    +0.002 C 
ATOM     15  C   UNL     1       7.342   1.447 -10.223  0.00  0.00    +0.019 C 
ATOM     16  C   UNL     1       6.006   1.029  -9.648  0.00  0.00    +0.102 C 
ATOM     17  N   UNL     1       5.490   2.178  -8.868  0.00  0.00    -0.331 N 
ATOM     18  H   UNL     1       4.741   2.692  -9.210  0.00  0.00    +0.147 HD
ENDBRANCH   7  10
ENDBRANCH   5   7
BRANCH   1  19
ATOM     19  N   UNL     1       3.051   0.801  -1.630  0.00  0.00    -0.216 N 
ATOM     20  H   UNL     1       2.555   0.084  -2.056  0.00  0.00    +0.174 HD
BRANCH  19  21
ATOM     21  S   UNL     1       3.519   0.658  -0.048  0.00  0.00    +0.072 S 
ATOM     22  O   UNL     1       3.122  -0.638   0.378  0.00  0.00    -0.150 OA
ATOM     23  O   UNL     1       3.090   1.842   0.611  0.00  0.00    -0.150 OA
BRANCH  21  29
ATOM     24  C   UNL     1      10.114   1.857   0.262  0.00  0.00    +0.001 A 
ATOM     25  C   UNL     1       9.410   3.041   0.476  0.00  0.00    +0.001 A 
ATOM     26  C   UNL     1       8.050   3.060   0.462  0.00  0.00    +0.008 A 
ATOM     27  C   UNL     1       7.340   1.871   0.223  0.00  0.00    -0.016 A 
ATOM     28  C   UNL     1       5.935   1.850   0.207  0.00  0.00    +0.037 A 
ATOM     29  C   UNL     1       5.281   0.679  -0.023  0.00  0.00    +0.109 A 
ATOM     30  C   UNL     1       5.984  -0.505  -0.238  0.00  0.00    +0.029 A 
ATOM     31  C   UNL     1       7.345  -0.524  -0.224  0.00  0.00    +0.010 A 
ATOM     32  C   UNL     1       8.055   0.666   0.010  0.00  0.00    -0.018 A 
ATOM     33  C   UNL     1       9.460   0.686   0.032  0.00  0.00    +0.008 A 
ENDBRANCH  21  29
ENDBRANCH  19  21
ENDBRANCH   1  19
TORSDOF 5
