REMARK  Name = ZINC39853481
REMARK  9 active torsions:
REMARK  status: ('A' for Active; 'I' for Inactive)
REMARK    1  A    between atoms: C_1  and  C_2
REMARK    2  A    between atoms: N_4  and  C_5
REMARK    3  A    between atoms: C_6  and  C_14
REMARK    4  A    between atoms: C_14  and  C_16
REMARK    5  A    between atoms: C_14  and  N_24
REMARK    6  A    between atoms: C_19  and  O_22
REMARK    7  A    between atoms: O_22  and  C_23
REMARK    8  A    between atoms: C_27  and  C_30
REMARK    9  A    between atoms: C_30  and  C_31
REMARK                            x       y       z     vdW  Elec       q    Type
REMARK                         _______ _______ _______ _____ _____    ______ ____
ROOT
ATOM      1  C   UNL     1      -3.585  -2.446   0.226  0.00  0.00    -0.004 C 
ENDROOT
BRANCH   1   3
ATOM      2  C   UNL     1      -1.103  -2.536   0.172  0.00  0.00    +0.074 A 
ATOM      3  C   UNL     1      -2.285  -3.207   0.210  0.00  0.00    -0.025 A 
ATOM      4  C   UNL     1      -2.291  -4.602   0.234  0.00  0.00    -0.033 A 
ATOM      5  C   UNL     1      -1.079  -5.217   0.218  0.00  0.00    -0.005 A 
ATOM      6  S   UNL     1       0.079  -3.876   0.162  0.00  0.00    -0.078 S 
ATOM      7  C   UNL     1      -0.801  -6.686   0.239  0.00  0.00    +0.043 C 
ATOM      8  C   UNL     1      -2.089  -7.414   0.651  0.00  0.00    +0.005 C 
ATOM      9  C   UNL     1      -3.254  -6.856  -0.172  0.00  0.00    +0.005 C 
ATOM     10  C   UNL     1      -3.573  -5.429   0.275  0.00  0.00    +0.036 C 
BRANCH   2  14
ATOM     11  C   UNL     1       0.625   0.799  -0.064  0.00  0.00    +0.109 C 
ATOM     12  C   UNL     1       0.377  -0.687  -0.033  0.00  0.00    +0.214 C 
ATOM     13  O   UNL     1       1.303  -1.460  -0.166  0.00  0.00    -0.276 OA
ATOM     14  N   UNL     1      -0.873  -1.158   0.143  0.00  0.00    -0.280 N 
ATOM     15  H   UNL     1      -1.614  -0.540   0.249  0.00  0.00    +0.155 HD
ENDBRANCH   2  14
ENDBRANCH   1   3
BRANCH   1  16
ATOM     16  N   UNL     1      -3.572  -1.431  -0.837  0.00  0.00    +0.387 N 
ATOM     17  C   UNL     1      -4.882  -0.771  -0.897  0.00  0.00    -0.077 C 
ATOM     18  C   UNL     1      -4.849   0.341  -1.947  0.00  0.00    -0.015 C 
ATOM     19  C   UNL     1      -4.517  -0.265  -3.314  0.00  0.00    -0.010 C 
ATOM     20  C   UNL     1      -3.184  -1.013  -3.220  0.00  0.00    -0.015 C 
ATOM     21  C   UNL     1      -3.279  -2.076  -2.122  0.00  0.00    -0.077 C 
ATOM     22  H   UNL     1      -2.861  -0.745  -0.636  0.00  0.00    -0.080 HD
BRANCH  19  23
ATOM     23  C   UNL     1      -4.404   0.852  -4.354  0.00  0.00    +0.038 C 
BRANCH  23  24
ATOM     24  C   UNL     1      -4.199   0.247  -5.720  0.00  0.00    -0.047 A 
ATOM     25  C   UNL     1      -2.920  -0.003  -6.180  0.00  0.00    +0.003 A 
ATOM     26  C   UNL     1      -2.732  -0.557  -7.432  0.00  0.00    +0.000 A 
ATOM     27  C   UNL     1      -3.823  -0.862  -8.224  0.00  0.00    +0.000 A 
ATOM     28  C   UNL     1      -5.103  -0.613  -7.763  0.00  0.00    +0.000 A 
ATOM     29  C   UNL     1      -5.290  -0.062  -6.509  0.00  0.00    +0.003 A 
ENDBRANCH  23  24
ENDBRANCH  19  23
ENDBRANCH   1  16
BRANCH   1  30
ATOM     30  C   UNL     1      -3.756  -1.771   1.563  0.00  0.00    -0.056 A 
ATOM     31  C   UNL     1      -3.394  -0.445   1.718  0.00  0.00    +0.006 A 
ATOM     32  C   UNL     1      -3.548   0.176   2.942  0.00  0.00    +0.046 A 
ATOM     33  C   UNL     1      -4.067  -0.532   4.016  0.00  0.00    +0.120 A 
ATOM     34  C   UNL     1      -4.430  -1.861   3.858  0.00  0.00    +0.046 A 
ATOM     35  C   UNL     1      -4.278  -2.476   2.631  0.00  0.00    +0.006 A 
BRANCH  33  36
ATOM     36  O   UNL     1      -4.220   0.077   5.222  0.00  0.00    -0.495 OA
ATOM     37  C   UNL     1      -4.761  -0.713   6.283  0.00  0.00    +0.277 C 
ENDBRANCH  33  36
ENDBRANCH   1  30
TORSDOF 7
