REMARK  Name = ZINC12572944
REMARK  7 active torsions:
REMARK  status: ('A' for Active; 'I' for Inactive)
REMARK    1  A    between atoms: C_3  and  N_21
REMARK    2  A    between atoms: C_5  and  S_7
REMARK    3  A    between atoms: S_7  and  N_10
REMARK    4  A    between atoms: N_10  and  C_11
REMARK    5  A    between atoms: C_14  and  S_17
REMARK    6  A    between atoms: S_17  and  C_18
REMARK    7  A    between atoms: N_24  and  C_25
REMARK                            x       y       z     vdW  Elec       q    Type
REMARK                         _______ _______ _______ _____ _____    ______ ____
ROOT
ATOM      1  C   UNL     1       5.587   4.110  -0.165  0.00  0.00    +0.004 A 
ATOM      2  C   UNL     1       4.275   3.697  -0.045  0.00  0.00    +0.023 A 
ATOM      3  C   UNL     1       3.982   2.345   0.073  0.00  0.00    +0.037 A 
ATOM      4  C   UNL     1       5.010   1.411   0.058  0.00  0.00    +0.052 A 
ATOM      5  C   UNL     1       6.320   1.830  -0.068  0.00  0.00    +0.110 A 
ATOM      6  C   UNL     1       6.608   3.178  -0.180  0.00  0.00    +0.029 A 
ENDROOT
BRANCH   3   7
ATOM      7  N   UNL     1       2.654   1.923   0.201  0.00  0.00    -0.269 N 
ATOM      8  C   UNL     1       2.366   0.803   0.893  0.00  0.00    +0.308 C 
ATOM      9  O   UNL     1       3.246   0.216   1.493  0.00  0.00    -0.252 OA
ATOM     10  N   UNL     1       1.103   0.334   0.921  0.00  0.00    -0.269 N 
ATOM     11  H   UNL     1       1.941   2.437  -0.209  0.00  0.00    +0.156 HD
ATOM     12  H   UNL     1       0.389   0.838   0.500  0.00  0.00    +0.156 HD
BRANCH  10  13
ATOM     13  C   UNL     1       0.821  -0.878   1.561  0.00  0.00    +0.036 A 
ATOM     14  C   UNL     1      -0.157  -1.723   1.051  0.00  0.00    +0.023 A 
ATOM     15  C   UNL     1      -0.430  -2.921   1.683  0.00  0.00    +0.003 A 
ATOM     16  C   UNL     1       0.261  -3.275   2.827  0.00  0.00    +0.020 A 
ATOM     17  C   UNL     1       1.231  -2.433   3.341  0.00  0.00    +0.043 A 
ATOM     18  C   UNL     1       1.513  -1.235   2.710  0.00  0.00    +0.043 A 
ATOM     19 CL   UNL     1       2.096  -2.881   4.778  0.00  0.00    -0.083 Cl
ENDBRANCH  10  13
ENDBRANCH   3   7
BRANCH   5  20
ATOM     20  S   UNL     1       7.625   0.647  -0.087  0.00  0.00    +0.072 S 
ATOM     21  O   UNL     1       8.773   1.299   0.439  0.00  0.00    -0.150 OA
ATOM     22  O   UNL     1       7.100  -0.546   0.479  0.00  0.00    -0.150 OA
BRANCH  20  23
ATOM     23  N   UNL     1       7.958   0.311  -1.674  0.00  0.00    -0.216 N 
ATOM     24  H   UNL     1       7.843  -0.591  -2.014  0.00  0.00    +0.174 HD
BRANCH  23  25
ATOM     25  C   UNL     1       8.406   1.328  -2.526  0.00  0.00    +0.048 A 
ATOM     26  C   UNL     1       7.551   1.859  -3.482  0.00  0.00    +0.025 A 
ATOM     27  C   UNL     1       7.991   2.866  -4.319  0.00  0.00    +0.017 A 
ATOM     28  C   UNL     1       9.293   3.339  -4.211  0.00  0.00    +0.013 A 
ATOM     29  C   UNL     1      10.150   2.803  -3.258  0.00  0.00    +0.017 A 
ATOM     30  C   UNL     1       9.708   1.800  -2.418  0.00  0.00    +0.025 A 
BRANCH  28  31
ATOM     31  S   UNL     1       9.857   4.619  -5.282  0.00  0.00    -0.056 S 
BRANCH  31  32
ATOM     32  C   UNL     1       8.418   4.984  -6.326  0.00  0.00    +0.404 C 
ATOM     33  F   UNL     1       8.049   3.832  -7.029  0.00  0.00    -0.197 F 
ATOM     34  F   UNL     1       7.352   5.401  -5.521  0.00  0.00    -0.197 F 
ENDBRANCH  31  32
ENDBRANCH  28  31
ENDBRANCH  23  25
ENDBRANCH  20  23
ENDBRANCH   5  20
TORSDOF 7
