REMARK  Name = ZINC13284054
REMARK  3 active torsions:
REMARK  status: ('A' for Active; 'I' for Inactive)
REMARK    1  A    between atoms: C_3  and  C_13
REMARK    2  A    between atoms: C_6  and  C_7
REMARK    3  A    between atoms: C_13  and  C_15
REMARK                            x       y       z     vdW  Elec       q    Type
REMARK                         _______ _______ _______ _____ _____    ______ ____
ROOT
ATOM      1  C   UNL     1       4.890   1.467  -0.037  0.00  0.00    +0.080 C 
ATOM      2  C   UNL     1       6.059   2.158  -0.148  0.00  0.00    +0.098 C 
ATOM      3  C   UNL     1       6.095   3.647  -0.139  0.00  0.00    +0.263 C 
ATOM      4  O   UNL     1       5.120   4.298  -0.463  0.00  0.00    -0.268 OA
ATOM      5  N   UNL     1       7.242   4.255   0.241  0.00  0.00    -0.279 N 
ATOM      6  C   UNL     1       8.345   3.488   0.617  0.00  0.00    +0.057 A 
ATOM      7  C   UNL     1       9.423   4.092   1.250  0.00  0.00    +0.053 A 
ATOM      8  C   UNL     1      10.519   3.332   1.623  0.00  0.00    +0.069 A 
ATOM      9  C   UNL     1      10.543   1.958   1.363  0.00  0.00    +0.069 A 
ATOM     10  C   UNL     1       9.469   1.352   0.732  0.00  0.00    +0.053 A 
ATOM     11  C   UNL     1       8.372   2.113   0.360  0.00  0.00    +0.055 A 
ATOM     12  N   UNL     1       7.280   1.513  -0.269  0.00  0.00    -0.309 N 
ATOM     13  N   UNL     1      11.759   1.478   1.848  0.00  0.00    -0.306 N 
ATOM     14  H   UNL     1      12.062   0.558   1.810  0.00  0.00    +0.170 HD
ATOM     15  C   UNL     1      12.442   2.511   2.377  0.00  0.00    +0.325 A 
ATOM     16  O   UNL     1      13.544   2.433   2.887  0.00  0.00    -0.247 OA
ATOM     17  N   UNL     1      11.722   3.642   2.258  0.00  0.00    -0.306 N 
ATOM     18  H   UNL     1      11.993   4.522   2.561  0.00  0.00    +0.170 HD
ATOM     19  H   UNL     1       7.297   5.223   0.251  0.00  0.00    +0.155 HD
ATOM     20  H   UNL     1       7.373   0.686  -0.768  0.00  0.00    +0.152 HD
ENDROOT
BRANCH   1  21
ATOM     21  C   UNL     1       3.732   2.112   0.455  0.00  0.00    +0.188 C 
ATOM     22  O   UNL     1       3.805   3.247   0.891  0.00  0.00    -0.287 OA
BRANCH  21  25
ATOM     23  C   UNL     1       0.075   1.379   0.910  0.00  0.00    +0.004 A 
ATOM     24  C   UNL     1       1.285   2.042   0.926  0.00  0.00    +0.012 A 
ATOM     25  C   UNL     1       2.431   1.408   0.441  0.00  0.00    +0.022 A 
ATOM     26  C   UNL     1       2.343   0.107  -0.058  0.00  0.00    +0.012 A 
ATOM     27  C   UNL     1       1.127  -0.544  -0.069  0.00  0.00    +0.004 A 
ATOM     28  C   UNL     1      -0.005   0.090   0.413  0.00  0.00    -0.044 A 
BRANCH  28  29
ATOM     29  C   UNL     1      -1.330  -0.627   0.399  0.00  0.00    +0.019 C 
ATOM     30  C   UNL     1      -1.230  -1.901   1.240  0.00  0.00    +0.008 C 
ATOM     31  C   UNL     1      -2.576  -2.629   1.225  0.00  0.00    +0.001 C 
ATOM     32  C   UNL     1      -2.941  -2.996  -0.215  0.00  0.00    +0.000 C 
ATOM     33  C   UNL     1      -3.041  -1.722  -1.056  0.00  0.00    +0.001 C 
ATOM     34  C   UNL     1      -1.695  -0.994  -1.041  0.00  0.00    +0.008 C 
ENDBRANCH  28  29
ENDBRANCH  21  25
ENDBRANCH   1  21
TORSDOF 3
