REMARK  Name = ZINC67470880
REMARK  9 active torsions:
REMARK  status: ('A' for Active; 'I' for Inactive)
REMARK    1  A    between atoms: C_1  and  C_2
REMARK    2  A    between atoms: C_2  and  C_4
REMARK    3  A    between atoms: C_2  and  O_21
REMARK    4  A    between atoms: N_6  and  N_7
REMARK    5  A    between atoms: N_10  and  C_11
REMARK    6  A    between atoms: C_11  and  C_12
REMARK    7  A    between atoms: C_11  and  C_13
REMARK    8  A    between atoms: C_11  and  C_14
REMARK    9  A    between atoms: O_21  and  C_22
REMARK                            x       y       z     vdW  Elec       q    Type
REMARK                         _______ _______ _______ _____ _____    ______ ____
ROOT
ATOM      1  N   UNL     1      -3.575  -0.882   1.010  0.00  0.00    -0.218 N 
ATOM      2  C   UNL     1      -4.409  -0.673   2.047  0.00  0.00    +0.317 C 
ATOM      3  O   UNL     1      -5.510  -1.188   2.056  0.00  0.00    -0.251 OA
ATOM      4  N   UNL     1      -4.023   0.109   3.076  0.00  0.00    -0.289 N 
ATOM      5  H   UNL     1      -3.852  -1.444   0.270  0.00  0.00    +0.174 HD
ATOM      6  H   UNL     1      -3.145   0.520   3.069  0.00  0.00    +0.151 HD
ENDROOT
BRANCH   1   9
ATOM      7  C   UNL     1      -1.471  -0.498  -0.037  0.00  0.00    +0.270 C 
ATOM      8  O   UNL     1      -1.819  -1.201  -0.962  0.00  0.00    -0.270 OA
ATOM      9  N   UNL     1      -2.306  -0.288   1.001  0.00  0.00    -0.230 N 
ATOM     10  H   UNL     1      -2.028   0.274   1.741  0.00  0.00    +0.173 HD
BRANCH   7  12
ATOM     11  C   UNL     1      -0.256   1.662  -0.120  0.00  0.00    +0.062 C 
ATOM     12  C   UNL     1      -0.106   0.141  -0.047  0.00  0.00    +0.257 C 
BRANCH  12  13
ATOM     13  O   UNL     1       0.627  -0.320  -1.183  0.00  0.00    -0.477 OA
BRANCH  13  14
ATOM     14  C   UNL     1       1.984  -0.288  -1.097  0.00  0.00    +0.157 A 
ATOM     15  C   UNL     1       2.596   0.280   0.010  0.00  0.00    +0.048 A 
ATOM     16  C   UNL     1       3.974   0.312   0.096  0.00  0.00    +0.004 A 
ATOM     17  C   UNL     1       4.745  -0.221  -0.921  0.00  0.00    +0.003 A 
ATOM     18  C   UNL     1       4.139  -0.788  -2.026  0.00  0.00    +0.042 A 
ATOM     19  C   UNL     1       2.759  -0.829  -2.115  0.00  0.00    +0.165 A 
ATOM     20  F   UNL     1       2.166  -1.388  -3.192  0.00  0.00    -0.202 F 
ENDBRANCH  13  14
ENDBRANCH  12  13
ENDBRANCH   7  12
ENDBRANCH   1   9
BRANCH   4  21
ATOM     21  C   UNL     1      -4.930   0.336   4.203  0.00  0.00    +0.056 C 
ATOM     22  C   UNL     1      -6.207   1.014   3.702  0.00  0.00    +0.036 C 
ATOM     23  C   UNL     1      -5.285  -1.003   4.851  0.00  0.00    +0.036 C 
BRANCH  21  24
ATOM     24  C   UNL     1      -4.256   1.223   5.219  0.00  0.00    -0.025 A 
ATOM     25  C   UNL     1      -5.019   1.991   6.079  0.00  0.00    +0.007 A 
ATOM     26  C   UNL     1      -4.401   2.805   7.010  0.00  0.00    +0.020 A 
ATOM     27  C   UNL     1      -3.020   2.849   7.082  0.00  0.00    +0.041 A 
ATOM     28  C   UNL     1      -2.258   2.080   6.221  0.00  0.00    +0.020 A 
ATOM     29  C   UNL     1      -2.877   1.263   5.294  0.00  0.00    +0.007 A 
ATOM     30 CL   UNL     1      -2.244   3.871   8.252  0.00  0.00    -0.084 Cl
ENDBRANCH  21  24
ENDBRANCH   4  21
TORSDOF 6
