REMARK  Name = ZINC35685008
REMARK  7 active torsions:
REMARK  status: ('A' for Active; 'I' for Inactive)
REMARK    1  A    between atoms: C_1  and  C_2
REMARK    2  A    between atoms: C_3  and  C_27
REMARK    3  A    between atoms: C_8  and  O_26
REMARK    4  A    between atoms: C_10  and  C_12
REMARK    5  A    between atoms: N_14  and  C_15
REMARK    6  A    between atoms: C_19  and  O_21
REMARK    7  A    between atoms: O_21  and  C_22
REMARK                            x       y       z     vdW  Elec       q    Type
REMARK                         _______ _______ _______ _____ _____    ______ ____
ROOT
ATOM      1  C   UNL     1      -0.451   1.129  -0.552  0.00  0.00    +0.050 C 
ATOM      2  C   UNL     1      -0.457  -0.374  -0.449  0.00  0.00    +0.021 A 
ATOM      3  C   UNL     1      -0.835  -1.276  -1.464  0.00  0.00    +0.098 A 
ATOM      4  N   UNL     1      -0.707  -2.505  -0.998  0.00  0.00    -0.168 NA
ATOM      5  N   UNL     1      -0.252  -2.429   0.313  0.00  0.00    -0.233 N 
ATOM      6  C   UNL     1      -0.095  -1.103   0.634  0.00  0.00    +0.159 A 
ATOM      7  N   UNL     1       0.357  -0.707   1.861  0.00  0.00    -0.198 NA
ATOM      8  C   UNL     1       0.332  -1.567   2.838  0.00  0.00    +0.191 C 
ATOM      9  C   UNL     1      -0.202  -2.961   2.679  0.00  0.00    +0.131 C 
ATOM     10  C   UNL     1       0.043  -3.500   1.270  0.00  0.00    +0.204 C 
ENDROOT
BRANCH   3  11
ATOM     11  C   UNL     1      -1.297  -0.907  -2.825  0.00  0.00    +0.003 A 
ATOM     12  C   UNL     1      -0.665   0.120  -3.523  0.00  0.00    +0.013 A 
ATOM     13  C   UNL     1      -1.098   0.460  -4.788  0.00  0.00    +0.039 A 
ATOM     14  C   UNL     1      -2.159  -0.219  -5.365  0.00  0.00    +0.123 A 
ATOM     15  C   UNL     1      -2.791  -1.241  -4.674  0.00  0.00    +0.039 A 
ATOM     16  C   UNL     1      -2.360  -1.591  -3.410  0.00  0.00    +0.013 A 
ATOM     17  F   UNL     1      -2.580   0.116  -6.604  0.00  0.00    -0.205 F 
ENDBRANCH   3  11
BRANCH  10  18
ATOM     18  C   UNL     1       1.486  -3.915   1.140  0.00  0.00    +0.242 C 
ATOM     19  O   UNL     1       2.203  -3.371   0.327  0.00  0.00    -0.273 OA
ATOM     20  N   UNL     1       1.980  -4.891   1.927  0.00  0.00    -0.284 N 
ATOM     21  H   UNL     1       1.390  -5.375   2.527  0.00  0.00    +0.155 HD
BRANCH  20  22
ATOM     22  C   UNL     1       3.342  -5.206   1.880  0.00  0.00    +0.037 A 
ATOM     23  C   UNL     1       3.760  -6.517   2.072  0.00  0.00    +0.023 A 
ATOM     24  C   UNL     1       5.105  -6.828   2.025  0.00  0.00    +0.005 A 
ATOM     25  C   UNL     1       6.038  -5.837   1.789  0.00  0.00    +0.046 A 
ATOM     26  C   UNL     1       5.627  -4.525   1.598  0.00  0.00    +0.132 A 
ATOM     27  C   UNL     1       4.277  -4.210   1.637  0.00  0.00    +0.069 A 
BRANCH  26  28
ATOM     28  O   UNL     1       6.546  -3.551   1.366  0.00  0.00    -0.406 OA
BRANCH  28  29
ATOM     29  C   UNL     1       7.918  -3.949   1.332  0.00  0.00    +0.575 C 
ATOM     30  F   UNL     1       8.106  -4.892   0.317  0.00  0.00    -0.133 F 
ATOM     31  F   UNL     1       8.721  -2.830   1.085  0.00  0.00    -0.133 F 
ATOM     32  F   UNL     1       8.270  -4.512   2.563  0.00  0.00    -0.133 F 
ENDBRANCH  28  29
ENDBRANCH  26  28
ENDBRANCH  20  22
ENDBRANCH  10  18
BRANCH   8  33
ATOM     33  O   UNL     1       0.807  -1.190   4.043  0.00  0.00    -0.495 OA
ATOM     34  H   UNL     1       1.134  -0.281   4.070  0.00  0.00    +0.293 HD
ENDBRANCH   8  33
TORSDOF 6
