REMARK  Name = ZINC25051169
REMARK  9 active torsions:
REMARK  status: ('A' for Active; 'I' for Inactive)
REMARK    1  A    between atoms: C_1  and  N_2
REMARK    2  A    between atoms: N_2  and  C_3
REMARK    3  A    between atoms: N_2  and  C_16
REMARK    4  A    between atoms: C_3  and  C_4
REMARK    5  A    between atoms: C_7  and  C_9
REMARK    6  A    between atoms: C_16  and  C_17
REMARK    7  A    between atoms: N_19  and  C_20
REMARK    8  A    between atoms: C_24  and  C_26
REMARK    9  A    between atoms: N_28  and  C_29
REMARK                            x       y       z     vdW  Elec       q    Type
REMARK                         _______ _______ _______ _____ _____    ______ ____
ROOT
ATOM      1  C   UNL     1       1.089   7.434   0.244  0.00  0.00    +0.019 C 
ENDROOT
BRANCH   1   2
ATOM      2  C   UNL     1       1.104   5.932   0.123  0.00  0.00    +0.201 C 
ATOM      3  O   UNL     1       2.159   5.335   0.110  0.00  0.00    -0.278 OA
ATOM      4  N   UNL     1      -0.056   5.252   0.029  0.00  0.00    -0.287 N 
ATOM      5  H   UNL     1      -1.009   5.796  -0.047  0.00  0.00    +0.155 HD
BRANCH   4   6
ATOM      6  C   UNL     1      -0.048   3.852   0.028  0.00  0.00    +0.034 A 
ATOM      7  C   UNL     1      -0.994   3.152  -0.713  0.00  0.00    +0.023 A 
ATOM      8  C   UNL     1      -0.991   1.770  -0.716  0.00  0.00    +0.003 A 
ATOM      9  C   UNL     1      -0.049   1.076   0.015  0.00  0.00    +0.013 A 
ATOM     10  C   UNL     1       0.901   1.769   0.767  0.00  0.00    +0.038 A 
ATOM     11  C   UNL     1       0.902   3.164   0.766  0.00  0.00    +0.036 A 
BRANCH  10  12
ATOM     12  C   UNL     1       1.907   1.027   1.557  0.00  0.00    +0.244 C 
ATOM     13  O   UNL     1       2.734   1.633   2.211  0.00  0.00    -0.270 OA
ATOM     14  N   UNL     1       1.908  -0.321   1.552  0.00  0.00    -0.308 N 
ATOM     15  H   UNL     1       1.160  -0.869   0.961  0.00  0.00    +0.149 HD
BRANCH  14  16
ATOM     16  C   UNL     1       2.904  -1.056   2.335  0.00  0.00    +0.073 C 
ATOM     17  C   UNL     1       3.579  -2.257   1.670  0.00  0.00    +0.024 C 
ATOM     18  C   UNL     1       2.547  -2.476   2.779  0.00  0.00    +0.024 C 
ENDBRANCH  14  16
ENDBRANCH  10  12
ENDBRANCH   4   6
ENDBRANCH   1   2
BRANCH   1  20
ATOM     19  C   UNL     1       3.195   7.689  -0.923  0.00  0.00    -0.095 C 
ATOM     20  N   UNL     1       2.468   7.932   0.330  0.00  0.00    +0.388 N 
ATOM     21  H   UNL     1       2.979   7.376   1.130  0.00  0.00    -0.081 HD
BRANCH  20  22
ATOM     22  C   UNL     1       2.491   9.357   0.685  0.00  0.00    -0.003 C 
BRANCH  22  23
ATOM     23  C   UNL     1       3.905   9.772   1.004  0.00  0.00    +0.089 A 
ATOM     24  C   UNL     1       4.803  10.247   0.120  0.00  0.00    +0.043 A 
ATOM     25  C   UNL     1       5.988  10.509   0.835  0.00  0.00    +0.050 A 
ATOM     26  C   UNL     1       5.746  10.176   2.131  0.00  0.00    +0.135 A 
ATOM     27  O   UNL     1       4.476   9.735   2.219  0.00  0.00    -0.462 OA
BRANCH  26  28
ATOM     28  C   UNL     1       6.707  10.283   3.248  0.00  0.00    +0.017 A 
ATOM     29  C   UNL     1       7.999  10.759   3.018  0.00  0.00    +0.012 A 
ATOM     30  C   UNL     1       8.889  10.862   4.067  0.00  0.00    +0.016 A 
ATOM     31  C   UNL     1       8.507  10.485   5.343  0.00  0.00    +0.018 A 
ATOM     32  C   UNL     1       7.229  10.008   5.576  0.00  0.00    +0.016 A 
ATOM     33  C   UNL     1       6.327   9.905   4.537  0.00  0.00    +0.012 A 
ATOM     34 BR   UNL     1       9.737  10.623   6.773  0.00  0.00    -0.050 Br
ENDBRANCH  26  28
ENDBRANCH  22  23
ENDBRANCH  20  22
ENDBRANCH   1  20
TORSDOF 8
