REMARK  Name = ZINC37136564
REMARK  3 active torsions:
REMARK  status: ('A' for Active; 'I' for Inactive)
REMARK    1  A    between atoms: C_3  and  N_18
REMARK    2  A    between atoms: C_6  and  N_7
REMARK    3  A    between atoms: N_7  and  C_8
REMARK                            x       y       z     vdW  Elec       q    Type
REMARK                         _______ _______ _______ _____ _____    ______ ____
ROOT
ATOM      1  C   UNL     1      -0.013   1.382  -0.182  0.00  0.00    +0.025 A 
ATOM      2  C   UNL     1       1.175   2.086  -0.184  0.00  0.00    +0.025 A 
ATOM      3  C   UNL     1       2.380   1.416  -0.020  0.00  0.00    +0.035 A 
ATOM      4  C   UNL     1       2.390   0.037   0.146  0.00  0.00    +0.025 A 
ATOM      5  C   UNL     1       1.203  -0.667   0.148  0.00  0.00    +0.025 A 
ATOM      6  C   UNL     1      -0.002   0.003  -0.016  0.00  0.00    +0.027 A 
ENDROOT
BRANCH   3   7
ATOM      7  N   UNL     1       3.586   2.131  -0.022  0.00  0.00    -0.270 N 
ATOM      8  C   UNL     1       3.628   3.382   0.477  0.00  0.00    +0.301 C 
ATOM      9  O   UNL     1       2.647   3.855   1.017  0.00  0.00    -0.253 OA
ATOM     10  N   UNL     1       4.759   4.109   0.378  0.00  0.00    -0.313 N 
ATOM     11  H   UNL     1       4.389   1.725  -0.383  0.00  0.00    +0.156 HD
ATOM     12  H   UNL     1       5.542   3.732  -0.052  0.00  0.00    +0.146 HD
ATOM     13  H   UNL     1       4.789   5.010   0.737  0.00  0.00    +0.146 HD
ENDBRANCH   3   7
BRANCH   6  14
ATOM     14  N   UNL     1      -1.206  -0.711  -0.014  0.00  0.00    -0.341 N 
ATOM     15  H   UNL     1      -2.047  -0.242  -0.128  0.00  0.00    +0.146 HD
BRANCH  14  16
ATOM     16  C   UNL     1      -1.194  -2.165   0.161  0.00  0.00    +0.071 C 
ATOM     17  C   UNL     1      -0.965  -2.840  -1.192  0.00  0.00    +0.027 C 
ATOM     18  C   UNL     1      -0.950  -4.359  -1.009  0.00  0.00    +0.067 C 
ATOM     19  C   UNL     1      -2.289  -4.815  -0.427  0.00  0.00    +0.170 C 
ATOM     20  C   UNL     1      -2.524  -4.138   0.924  0.00  0.00    +0.067 C 
ATOM     21  C   UNL     1      -2.537  -2.619   0.738  0.00  0.00    +0.027 C 
ATOM     22  O   UNL     1      -3.348  -4.458  -1.331  0.00  0.00    -0.346 OA
ATOM     23  C   UNL     1      -3.573  -5.648  -2.125  0.00  0.00    +0.191 C 
ATOM     24  C   UNL     1      -3.340  -6.770  -1.083  0.00  0.00    +0.191 C 
ATOM     25  O   UNL     1      -2.282  -6.238  -0.260  0.00  0.00    -0.346 OA
ENDBRANCH  14  16
ENDBRANCH   6  14
TORSDOF 3
