REMARK  Name = ZINC16847568
REMARK  9 active torsions:
REMARK  status: ('A' for Active; 'I' for Inactive)
REMARK    1  A    between atoms: C_1  and  C_2
REMARK    2  A    between atoms: C_5  and  S_8
REMARK    3  A    between atoms: S_8  and  N_11
REMARK    4  A    between atoms: C_14  and  C_31
REMARK    5  A    between atoms: C_15  and  C_17
REMARK    6  A    between atoms: N_19  and  N_20
REMARK    7  A    between atoms: N_20  and  S_21
REMARK    8  A    between atoms: S_21  and  C_24
REMARK    9  A    between atoms: C_27  and  C_30
REMARK                            x       y       z     vdW  Elec       q    Type
REMARK                         _______ _______ _______ _____ _____    ______ ____
ROOT
ATOM      1  N   UNL     1       6.786  -1.100  -6.224  0.00  0.00    -0.194 N 
ATOM      2  C   UNL     1       5.899  -1.895  -5.531  0.00  0.00    +0.178 A 
ATOM      3  N   UNL     1       5.783  -3.215  -5.544  0.00  0.00    -0.228 NA
ATOM      4  C   UNL     1       4.886  -3.831  -4.819  0.00  0.00    +0.060 A 
ATOM      5  C   UNL     1       4.042  -3.055  -4.037  0.00  0.00    +0.099 A 
ATOM      6  S   UNL     1       4.651  -1.419  -4.420  0.00  0.00    -0.046 S 
ATOM      7  C   UNL     1       4.769  -5.333  -4.835  0.00  0.00    +0.067 C 
ATOM      8  H   UNL     1       7.438  -1.505  -6.817  0.00  0.00    +0.176 HD
ENDROOT
BRANCH   5   9
ATOM      9  C   UNL     1       2.960  -3.463  -3.142  0.00  0.00    +0.267 C 
ATOM     10  O   UNL     1       2.691  -4.643  -3.011  0.00  0.00    -0.268 OA
ATOM     11  N   UNL     1       2.260  -2.532  -2.463  0.00  0.00    -0.227 N 
ATOM     12  H   UNL     1       2.475  -1.592  -2.568  0.00  0.00    +0.171 HD
BRANCH  11  13
ATOM     13  N   UNL     1       1.223  -2.923  -1.606  0.00  0.00    -0.108 NA
ATOM     14  H   UNL     1       0.500  -3.476  -1.940  0.00  0.00    +0.172 HD
BRANCH  13  15
ATOM     15  S   UNL     1       1.232  -2.441  -0.022  0.00  0.00    +0.074 S 
ATOM     16  O   UNL     1       2.489  -2.832   0.515  0.00  0.00    -0.152 OA
ATOM     17  O   UNL     1      -0.002  -2.866   0.539  0.00  0.00    -0.152 OA
BRANCH  15  18
ATOM     18  C   UNL     1       1.208  -0.679  -0.013  0.00  0.00    +0.107 A 
ATOM     19  C   UNL     1       0.002  -0.004   0.002  0.00  0.00    +0.029 A 
ATOM     20  C   UNL     1      -0.017   1.378   0.010  0.00  0.00    +0.005 A 
ATOM     21  C   UNL     1       1.171   2.086   0.002  0.00  0.00    -0.050 A 
ATOM     22  C   UNL     1       2.377   1.411  -0.015  0.00  0.00    +0.005 A 
ATOM     23  C   UNL     1       2.396   0.029  -0.021  0.00  0.00    +0.029 A 
ATOM     24  C   UNL     1       1.151   3.592   0.010  0.00  0.00    +0.044 C 
ENDBRANCH  15  18
ENDBRANCH  13  15
ENDBRANCH  11  13
ENDBRANCH   5   9
BRANCH   1  25
ATOM     25  S   UNL     1       6.739   0.545  -6.043  0.00  0.00    +0.074 S 
ATOM     26  O   UNL     1       7.779   1.073  -6.854  0.00  0.00    -0.150 OA
ATOM     27  O   UNL     1       5.380   0.932  -6.199  0.00  0.00    -0.150 OA
BRANCH  25  32
ATOM     28  C   UNL     1       8.230   1.757  -0.324  0.00  0.00    +0.044 C 
ATOM     29  C   UNL     1       7.857   1.454  -1.752  0.00  0.00    -0.050 A 
ATOM     30  C   UNL     1       8.840   1.382  -2.722  0.00  0.00    +0.005 A 
ATOM     31  C   UNL     1       8.498   1.105  -4.032  0.00  0.00    +0.029 A 
ATOM     32  C   UNL     1       7.174   0.899  -4.373  0.00  0.00    +0.109 A 
ATOM     33  C   UNL     1       6.191   0.975  -3.404  0.00  0.00    +0.029 A 
ATOM     34  C   UNL     1       6.533   1.248  -2.093  0.00  0.00    +0.005 A 
ENDBRANCH  25  32
ENDBRANCH   1  25
TORSDOF 6
