REMARK  Name = ZINC42175794
REMARK  5 active torsions:
REMARK  status: ('A' for Active; 'I' for Inactive)
REMARK    1  A    between atoms: C_1  and  C_2
REMARK    2  A    between atoms: C_5  and  C_8
REMARK    3  A    between atoms: C_5  and  N_12
REMARK    4  A    between atoms: N_9  and  O_10
REMARK    5  A    between atoms: C_13  and  C_15
REMARK                            x       y       z     vdW  Elec       q    Type
REMARK                         _______ _______ _______ _____ _____    ______ ____
ROOT
ATOM      1  C   UNL     1       0.136   1.727  -0.014  0.00  0.00    +0.007 C 
ATOM      2  C   UNL     1       0.047   0.200   0.028  0.00  0.00    -0.014 C 
ATOM      3  C   UNL     1       0.705  -0.383  -1.225  0.00  0.00    +0.006 C 
ATOM      4  C   UNL     1       2.175   0.042  -1.273  0.00  0.00    +0.034 C 
ATOM      5  C   UNL     1       2.897  -0.478  -0.028  0.00  0.00    +0.093 C 
ATOM      6  C   UNL     1       2.239   0.105   1.224  0.00  0.00    +0.034 C 
ATOM      7  C   UNL     1       0.769  -0.319   1.272  0.00  0.00    +0.006 C 
ENDROOT
BRANCH   5   8
ATOM      8  C   UNL     1       4.344  -0.060  -0.076  0.00  0.00    +0.155 C 
ATOM      9  N   UNL     1       4.778   0.654  -1.061  0.00  0.00    -0.075 NA
ATOM     10  N   UNL     1       5.204  -0.439   0.930  0.00  0.00    -0.342 N 
ATOM     11  H   UNL     1       4.897  -1.036   1.631  0.00  0.00    +0.144 HD
ATOM     12  H   UNL     1       6.116  -0.110   0.939  0.00  0.00    +0.144 HD
BRANCH   9  13
ATOM     13  O   UNL     1       6.137   1.047  -1.106  0.00  0.00    -0.408 OA
ATOM     14  H   UNL     1       6.368   1.579  -1.881  0.00  0.00    +0.328 HD
ENDBRANCH   9  13
ENDBRANCH   5   8
BRANCH   5  15
ATOM     15  N   UNL     1       2.812  -1.940   0.011  0.00  0.00    -0.303 N 
ATOM     16  C   UNL     1       3.426  -2.676  -0.936  0.00  0.00    +0.217 C 
ATOM     17  O   UNL     1       3.973  -2.129  -1.870  0.00  0.00    -0.275 OA
ATOM     18  H   UNL     1       2.313  -2.378   0.719  0.00  0.00    +0.150 HD
BRANCH  16  19
ATOM     19  C   UNL     1       3.433  -4.180  -0.834  0.00  0.00    +0.078 C 
ATOM     20  C   UNL     1       4.192  -4.631   0.435  0.00  0.00    +0.016 C 
ATOM     21  C   UNL     1       5.384  -5.481  -0.100  0.00  0.00    -0.010 C 
ATOM     22  C   UNL     1       4.723  -6.792  -0.627  0.00  0.00    +0.004 C 
ATOM     23  C   UNL     1       3.953  -6.359  -1.895  0.00  0.00    +0.004 C 
ATOM     24  C   UNL     1       4.236  -4.801  -2.018  0.00  0.00    +0.001 C 
ATOM     25  C   UNL     1       5.697  -4.731  -1.442  0.00  0.00    +0.008 C 
ENDBRANCH  16  19
ENDBRANCH   5  15
TORSDOF 4
