REMARK  Name = ZINC33853396
REMARK  7 active torsions:
REMARK  status: ('A' for Active; 'I' for Inactive)
REMARK    1  A    between atoms: C_1  and  C_2
REMARK    2  A    between atoms: C_2  and  N_3
REMARK    3  A    between atoms: C_7  and  C_22
REMARK    4  A    between atoms: N_11  and  C_12
REMARK    5  A    between atoms: C_16  and  C_18
REMARK    6  A    between atoms: N_24  and  C_25
REMARK    7  A    between atoms: C_29  and  C_31
REMARK                            x       y       z     vdW  Elec       q    Type
REMARK                         _______ _______ _______ _____ _____    ______ ____
ROOT
ATOM      1  N   UNL     1      -1.375  -0.499   0.026  0.00  0.00    -0.251 N 
ATOM      2  C   UNL     1      -1.947  -0.725   1.199  0.00  0.00    +0.223 C 
ATOM      3  O   UNL     1      -1.319  -0.358   2.169  0.00  0.00    -0.275 OA
ATOM      4  C   UNL     1      -3.260  -1.369   1.484  0.00  0.00    +0.120 C 
ATOM      5  C   UNL     1      -4.259  -1.192   0.339  0.00  0.00    +0.149 C 
ATOM      6  S   UNL     1      -3.445  -1.725  -1.203  0.00  0.00    -0.077 S 
ATOM      7  C   UNL     1      -1.992  -0.709  -1.194  0.00  0.00    +0.164 C 
ATOM      8  N   UNL     1      -1.519  -0.180  -2.299  0.00  0.00    -0.226 NA
ENDROOT
BRANCH   8   9
ATOM      9  C   UNL     1      -2.152  -0.406  -3.492  0.00  0.00    +0.067 A 
ATOM     10  C   UNL     1      -2.582  -1.692  -3.825  0.00  0.00    +0.028 A 
ATOM     11  C   UNL     1      -3.219  -1.913  -5.028  0.00  0.00    +0.003 A 
ATOM     12  C   UNL     1      -3.433  -0.863  -5.904  0.00  0.00    +0.012 A 
ATOM     13  C   UNL     1      -3.009   0.413  -5.580  0.00  0.00    +0.057 A 
ATOM     14  C   UNL     1      -2.376   0.649  -4.378  0.00  0.00    +0.040 A 
BRANCH  13  15
ATOM     15  C   UNL     1      -3.246   1.550  -6.541  0.00  0.00    +0.417 C 
ATOM     16  F   UNL     1      -3.904   1.070  -7.679  0.00  0.00    -0.166 F 
ATOM     17  F   UNL     1      -4.034   2.527  -5.923  0.00  0.00    -0.166 F 
ATOM     18  F   UNL     1      -2.018   2.109  -6.914  0.00  0.00    -0.166 F 
ENDBRANCH  13  15
ENDBRANCH   8   9
BRANCH   5  19
ATOM     19  C   UNL     1      -5.479  -2.040   0.592  0.00  0.00    +0.231 C 
ATOM     20  O   UNL     1      -5.379  -3.076   1.215  0.00  0.00    -0.274 OA
ATOM     21  N   UNL     1      -6.681  -1.647   0.126  0.00  0.00    -0.285 N 
ATOM     22  H   UNL     1      -6.774  -0.787  -0.313  0.00  0.00    +0.155 HD
BRANCH  21  23
ATOM     23  C   UNL     1      -7.796  -2.479   0.277  0.00  0.00    +0.034 A 
ATOM     24  C   UNL     1      -8.769  -2.523  -0.716  0.00  0.00    +0.023 A 
ATOM     25  C   UNL     1      -9.873  -3.344  -0.573  0.00  0.00    +0.003 A 
ATOM     26  C   UNL     1     -10.016  -4.125   0.556  0.00  0.00    +0.015 A 
ATOM     27  C   UNL     1      -9.044  -4.088   1.559  0.00  0.00    +0.065 A 
ATOM     28  C   UNL     1      -7.928  -3.263   1.412  0.00  0.00    +0.038 A 
BRANCH  27  29
ATOM     29  C   UNL     1      -9.195  -4.921   2.767  0.00  0.00    +0.387 C 
ATOM     30  O   UNL     1     -10.172  -5.646   2.892  0.00  0.00    -0.241 OA
ATOM     31  O   UNL     1      -8.343  -4.888   3.643  0.00  0.00    -0.241 OA
ENDBRANCH  27  29
ENDBRANCH  21  23
ENDBRANCH   5  19
BRANCH   1  33
ATOM     32  C   UNL     1      -0.025   1.541   0.040  0.00  0.00    +0.025 C 
ATOM     33  C   UNL     1      -0.001   0.011   0.020  0.00  0.00    +0.112 C 
ENDBRANCH   1  33
TORSDOF 6
