REMARK  Name = ZINC36231999
REMARK  7 active torsions:
REMARK  status: ('A' for Active; 'I' for Inactive)
REMARK    1  A    between atoms: C_1  and  C_2
REMARK    2  A    between atoms: C_2  and  C_20
REMARK    3  A    between atoms: N_4  and  C_8
REMARK    4  A    between atoms: C_11  and  S_15
REMARK    5  A    between atoms: C_13  and  N_14
REMARK    6  A    between atoms: S_15  and  N_18
REMARK    7  A    between atoms: N_18  and  C_19
REMARK                            x       y       z     vdW  Elec       q    Type
REMARK                         _______ _______ _______ _____ _____    ______ ____
ROOT
ATOM      1  C   UNL     1       0.447  -2.762  -2.189  0.00  0.00    +0.051 A 
ATOM      2  C   UNL     1       1.363  -3.193  -3.136  0.00  0.00    +0.027 A 
ATOM      3  C   UNL     1       0.953  -4.010  -4.173  0.00  0.00    +0.030 A 
ATOM      4  C   UNL     1      -0.370  -4.400  -4.270  0.00  0.00    +0.107 A 
ATOM      5  C   UNL     1      -1.291  -3.975  -3.329  0.00  0.00    +0.053 A 
ATOM      6  C   UNL     1      -0.887  -3.160  -2.283  0.00  0.00    +0.048 A 
ENDROOT
BRANCH   1  10
ATOM      7  C   UNL     1       2.904  -2.352   2.019  0.00  0.00    +0.043 C 
ATOM      8  C   UNL     1       2.589  -1.937   0.580  0.00  0.00    +0.080 C 
ATOM      9  C   UNL     1       1.222  -2.499   0.173  0.00  0.00    +0.139 C 
ATOM     10  N   UNL     1       0.860  -1.935  -1.137  0.00  0.00    -0.324 N 
ATOM     11  C   UNL     1       0.946  -0.476  -1.310  0.00  0.00    +0.133 C 
ATOM     12  C   UNL     1       2.326  -0.013  -0.831  0.00  0.00    +0.179 C 
ATOM     13  O   UNL     1       2.558  -0.511   0.489  0.00  0.00    -0.371 OA
ATOM     14  C   UNL     1       3.668  -2.485  -0.357  0.00  0.00    +0.043 C 
ENDBRANCH   1  10
BRANCH   6  15
ATOM     15  N   UNL     1      -1.816  -2.733  -1.327  0.00  0.00    -0.356 N 
ATOM     16  H   UNL     1      -1.552  -2.096  -0.644  0.00  0.00    +0.142 HD
ATOM     17  H   UNL     1      -2.724  -3.073  -1.347  0.00  0.00    +0.142 HD
ENDBRANCH   6  15
BRANCH   4  18
ATOM     18  S   UNL     1      -0.885  -5.441  -5.595  0.00  0.00    +0.058 S 
ATOM     19  O   UNL     1      -2.278  -5.218  -5.769  0.00  0.00    -0.153 OA
ATOM     20  O   UNL     1       0.053  -5.254  -6.646  0.00  0.00    -0.153 OA
BRANCH  18  21
ATOM     21  N   UNL     1      -0.716  -7.006  -5.082  0.00  0.00    -0.193 NA
ATOM     22  C   UNL     1      -1.537  -7.507  -3.977  0.00  0.00    +0.127 C 
ATOM     23  H   UNL     1      -0.074  -7.591  -5.513  0.00  0.00    +0.148 HD
ENDBRANCH  18  21
ENDBRANCH   4  18
TORSDOF 4
