REMARK  Name = ZINC20410740
REMARK  5 active torsions:
REMARK  status: ('A' for Active; 'I' for Inactive)
REMARK    1  A    between atoms: C_1  and  N_2
REMARK    2  A    between atoms: C_9  and  O_25
REMARK    3  A    between atoms: C_11  and  C_13
REMARK    4  A    between atoms: N_19  and  C_22
REMARK    5  A    between atoms: O_25  and  C_26
REMARK                            x       y       z     vdW  Elec       q    Type
REMARK                         _______ _______ _______ _____ _____    ______ ____
ROOT
ATOM      1  C   UNL     1       0.342   1.343  -0.798  0.00  0.00    -0.095 C 
ATOM      2  N   UNL     1      -0.181   1.612   0.547  0.00  0.00    +0.386 N 
ATOM      3  C   UNL     1       0.705   1.052   1.580  0.00  0.00    -0.073 C 
ATOM      4  C   UNL     1      -0.050   1.031   2.909  0.00  0.00    +0.017 C 
ATOM      5  C   UNL     1      -0.659   2.384   3.177  0.00  0.00    -0.040 A 
ATOM      6  C   UNL     1      -1.076   2.676   4.467  0.00  0.00    +0.053 A 
ATOM      7  C   UNL     1      -1.643   3.904   4.761  0.00  0.00    +0.170 A 
ATOM      8  C   UNL     1      -1.797   4.851   3.754  0.00  0.00    +0.208 A 
ATOM      9  C   UNL     1      -1.379   4.557   2.465  0.00  0.00    +0.167 A 
ATOM     10  C   UNL     1      -0.807   3.321   2.176  0.00  0.00    -0.008 A 
ATOM     11  C   UNL     1      -0.363   3.051   0.762  0.00  0.00    +0.008 C 
ATOM     12  O   UNL     1      -2.377   5.967   4.289  0.00  0.00    -0.449 OA
ATOM     13  C   UNL     1      -2.948   5.541   5.540  0.00  0.00    +0.467 C 
ATOM     14  O   UNL     1      -2.125   4.425   5.928  0.00  0.00    -0.452 OA
ATOM     15  H   UNL     1      -1.164   1.124   0.626  0.00  0.00    -0.081 HD
ENDROOT
BRANCH  11  16
ATOM     16  C   UNL     1      -1.406   3.570  -0.194  0.00  0.00    +0.072 A 
ATOM     17  C   UNL     1      -2.706   3.032  -0.192  0.00  0.00    +0.258 A 
ATOM     18  O   UNL     1      -3.000   2.140   0.585  0.00  0.00    -0.267 OA
ATOM     19  N   UNL     1      -3.625   3.513  -1.052  0.00  0.00    -0.302 N 
ATOM     20  C   UNL     1      -3.305   4.493  -1.916  0.00  0.00    +0.164 A 
ATOM     21  S   UNL     1      -4.490   5.081  -3.002  0.00  0.00    -0.013 S 
ATOM     22  N   UNL     1      -2.066   5.019  -1.939  0.00  0.00    -0.285 N 
ATOM     23  C   UNL     1      -1.101   4.563  -1.077  0.00  0.00    +0.260 A 
ATOM     24  O   UNL     1       0.140   5.093  -1.103  0.00  0.00    -0.267 OA
ATOM     25  H   UNL     1      -4.644   3.098  -1.045  0.00  0.00    +0.171 HD
BRANCH  22  26
ATOM     26  C   UNL     1      -1.746   6.086  -2.891  0.00  0.00    +0.093 C 
ATOM     27  C   UNL     1      -2.139   5.869  -4.353  0.00  0.00    +0.027 C 
ATOM     28  C   UNL     1      -0.668   5.799  -3.938  0.00  0.00    +0.027 C 
ENDBRANCH  22  26
ENDBRANCH  11  16
BRANCH   9  29
ATOM     29  O   UNL     1      -1.527   5.481   1.478  0.00  0.00    -0.491 OA
ATOM     30  C   UNL     1      -0.513   6.481   1.367  0.00  0.00    +0.277 C 
ENDBRANCH   9  29
TORSDOF 3
