REMARK  Name = ZINC39677104
REMARK  7 active torsions:
REMARK  status: ('A' for Active; 'I' for Inactive)
REMARK    1  A    between atoms: C_1  and  C_2
REMARK    2  A    between atoms: C_5  and  C_35
REMARK    3  A    between atoms: C_6  and  C_8
REMARK    4  A    between atoms: C_8  and  C_9
REMARK    5  A    between atoms: C_9  and  N_10
REMARK    6  A    between atoms: C_11  and  C_13
REMARK    7  A    between atoms: C_24  and  C_26
REMARK                            x       y       z     vdW  Elec       q    Type
REMARK                         _______ _______ _______ _____ _____    ______ ____
ROOT
ATOM      1  C   UNL     1       2.701  -5.104   5.948  0.00  0.00    +0.100 C 
ATOM      2  C   UNL     1       2.270  -4.186   7.114  0.00  0.00    +0.121 C 
ATOM      3  N   UNL     1       3.127  -4.597   8.250  0.00  0.00    -0.296 N 
ATOM      4  C   UNL     1       4.454  -4.852   7.639  0.00  0.00    +0.115 C 
ATOM      5  C   UNL     1       4.134  -5.539   6.296  0.00  0.00    -0.004 C 
ATOM      6  C   UNL     1       4.204  -7.055   6.449  0.00  0.00    -0.010 C 
ATOM      7  C   UNL     1       5.650  -7.468   6.739  0.00  0.00    -0.082 C 
ATOM      8  N   UNL     1       6.517  -7.026   5.640  0.00  0.00    +0.379 N 
ATOM      9  C   UNL     1       6.516  -5.561   5.558  0.00  0.00    -0.082 C 
ATOM     10  C   UNL     1       5.106  -5.068   5.219  0.00  0.00    -0.010 C 
ATOM     11  C   UNL     1       2.780  -4.713   9.547  0.00  0.00    +0.252 C 
ATOM     12  O   UNL     1       3.605  -5.064  10.369  0.00  0.00    -0.270 OA
ATOM     13  H   UNL     1       7.458  -7.352   5.803  0.00  0.00    -0.086 HD
ATOM     14  H   UNL     1       6.177  -7.410   4.771  0.00  0.00    -0.086 HD
ENDROOT
BRANCH  11  15
ATOM     15  C   UNL     1       1.399  -4.414   9.970  0.00  0.00    +0.108 A 
ATOM     16  C   UNL     1       0.434  -5.428   9.992  0.00  0.00    +0.138 A 
ATOM     17  C   UNL     1      -0.857  -5.139  10.390  0.00  0.00    +0.041 A 
ATOM     18  C   UNL     1      -1.199  -3.853  10.766  0.00  0.00    +0.026 A 
ATOM     19  C   UNL     1      -0.252  -2.844  10.748  0.00  0.00    +0.077 A 
ATOM     20  C   UNL     1       1.047  -3.117  10.358  0.00  0.00    +0.156 A 
ATOM     21  F   UNL     1       1.972  -2.132  10.346  0.00  0.00    -0.203 F 
ATOM     22 CL   UNL     1      -0.694  -1.233  11.222  0.00  0.00    -0.081 Cl
ATOM     23  F   UNL     1       0.765  -6.685   9.625  0.00  0.00    -0.205 F 
ENDBRANCH  11  15
BRANCH   1  25
ATOM     24  N   UNL     1       2.455  -4.994   3.489  0.00  0.00    -0.315 N 
ATOM     25  C   UNL     1       2.684  -4.344   4.647  0.00  0.00    +0.218 C 
ATOM     26  O   UNL     1       2.878  -3.147   4.642  0.00  0.00    -0.275 OA
ATOM     27  H   UNL     1       2.300  -5.952   3.493  0.00  0.00    +0.149 HD
BRANCH  24  28
ATOM     28  C   UNL     1       2.439  -4.255   2.224  0.00  0.00    +0.109 C 
BRANCH  28  29
ATOM     29  C   UNL     1       2.158  -5.222   1.072  0.00  0.00    +0.054 C 
BRANCH  29  35
ATOM     30  C   UNL     1      -0.378  -2.826  -2.516  0.00  0.00    +0.044 C 
ATOM     31  C   UNL     1       0.928  -3.316  -1.946  0.00  0.00    -0.050 A 
ATOM     32  C   UNL     1       2.111  -3.067  -2.616  0.00  0.00    +0.003 A 
ATOM     33  C   UNL     1       3.309  -3.516  -2.093  0.00  0.00    +0.004 A 
ATOM     34  C   UNL     1       3.325  -4.213  -0.899  0.00  0.00    -0.047 A 
ATOM     35  C   UNL     1       2.142  -4.461  -0.229  0.00  0.00    -0.043 A 
ATOM     36  C   UNL     1       0.944  -4.008  -0.750  0.00  0.00    +0.007 A 
ATOM     37  C   UNL     1       4.631  -4.704  -0.330  0.00  0.00    +0.044 C 
ENDBRANCH  29  35
ENDBRANCH  28  29
ENDBRANCH  24  28
ENDBRANCH   1  25
TORSDOF 5
