REMARK  Name = ZINC61709392
REMARK  3 active torsions:
REMARK  status: ('A' for Active; 'I' for Inactive)
REMARK    1  A    between atoms: C_5  and  N_14
REMARK    2  A    between atoms: C_6  and  N_7
REMARK    3  A    between atoms: C_10  and  O_13
REMARK                            x       y       z     vdW  Elec       q    Type
REMARK                         _______ _______ _______ _____ _____    ______ ____
ROOT
ATOM      1  C   UNL     1      -0.017   1.387   0.010  0.00  0.00    +0.026 A 
ATOM      2  C   UNL     1       1.177   2.085   0.002  0.00  0.00    +0.019 A 
ATOM      3  C   UNL     1       2.367   1.398  -0.013  0.00  0.00    +0.041 A 
ATOM      4  C   UNL     1       2.429  -0.013  -0.021  0.00  0.00    +0.101 A 
ATOM      5  C   UNL     1       1.195  -0.705  -0.013  0.00  0.00    +0.073 A 
ATOM      6  C   UNL     1       0.002  -0.004   0.002  0.00  0.00    +0.053 A 
ATOM      7  N   UNL     1       3.689  -0.495  -0.036  0.00  0.00    -0.246 NA
ATOM      8  C   UNL     1       4.729   0.286  -0.042  0.00  0.00    +0.157 A 
ATOM      9  S   UNL     1       4.085   1.841  -0.028  0.00  0.00    -0.075 S 
ENDROOT
BRANCH   6  10
ATOM     10  N   UNL     1      -1.212  -0.710   0.010  0.00  0.00    -0.326 N 
ATOM     11  C   UNL     1      -1.946  -1.142   1.213  0.00  0.00    +0.108 C 
ATOM     12  C   UNL     1      -3.417  -1.286   0.750  0.00  0.00    +0.052 C 
ATOM     13  C   UNL     1      -3.238  -1.851  -0.684  0.00  0.00    +0.133 C 
ATOM     14  C   UNL     1      -1.964  -1.134  -1.179  0.00  0.00    +0.136 C 
BRANCH  13  15
ATOM     15  O   UNL     1      -4.359  -1.514  -1.504  0.00  0.00    -0.390 OA
ATOM     16  H   UNL     1      -5.199  -1.876  -1.189  0.00  0.00    +0.210 HD
ENDBRANCH  13  15
ENDBRANCH   6  10
BRANCH   5  17
ATOM     17  N   UNL     1       1.180  -2.106  -0.020  0.00  0.00    -0.355 N 
ATOM     18  H   UNL     1       2.015  -2.599  -0.031  0.00  0.00    +0.142 HD
ATOM     19  H   UNL     1       0.335  -2.582  -0.014  0.00  0.00    +0.142 HD
ENDBRANCH   5  17
TORSDOF 3
