REMARK  Name = ZINC34923149
REMARK  9 active torsions:
REMARK  status: ('A' for Active; 'I' for Inactive)
REMARK    1  A    between atoms: C_1  and  C_2
REMARK    2  A    between atoms: C_2  and  C_3
REMARK    3  A    between atoms: C_4  and  C_30
REMARK    4  A    between atoms: C_5  and  C_23
REMARK    5  A    between atoms: C_8  and  C_13
REMARK    6  A    between atoms: C_14  and  N_16
REMARK    7  A    between atoms: N_16  and  C_17
REMARK    8  A    between atoms: C_30  and  O_32
REMARK    9  A    between atoms: O_32  and  C_33
REMARK                            x       y       z     vdW  Elec       q    Type
REMARK                         _______ _______ _______ _____ _____    ______ ____
ROOT
ATOM      1  C   UNL     1      -1.480  -0.881   0.228  0.00  0.00    +0.056 C 
ATOM      2  C   UNL     1      -2.034  -1.061  -1.025  0.00  0.00    +0.083 C 
ATOM      3  C   UNL     1      -3.515  -1.354  -1.107  0.00  0.00    +0.150 C 
ATOM      4  N   UNL     1      -4.262  -1.426   0.177  0.00  0.00    -0.267 N 
ATOM      5  C   UNL     1      -5.610  -1.679   0.342  0.00  0.00    +0.048 C 
ATOM      6  C   UNL     1      -6.094  -1.701   1.603  0.00  0.00    +0.072 C 
ATOM      7  S   UNL     1      -4.633  -1.361   2.565  0.00  0.00    -0.060 S 
ATOM      8  C   UNL     1      -3.527  -1.217   1.311  0.00  0.00    +0.166 C 
ATOM      9  N   UNL     1      -2.233  -0.971   1.312  0.00  0.00    -0.229 NA
ENDROOT
BRANCH   3  10
ATOM     10  C   UNL     1      -3.689  -2.671  -1.818  0.00  0.00    -0.019 A 
ATOM     11  C   UNL     1      -3.461  -3.857  -1.143  0.00  0.00    +0.006 A 
ATOM     12  C   UNL     1      -3.620  -5.065  -1.794  0.00  0.00    +0.003 A 
ATOM     13  C   UNL     1      -4.007  -5.091  -3.120  0.00  0.00    +0.038 A 
ATOM     14  C   UNL     1      -4.236  -3.905  -3.797  0.00  0.00    +0.124 A 
ATOM     15  C   UNL     1      -4.082  -2.695  -3.142  0.00  0.00    +0.044 A 
ATOM     16  F   UNL     1      -4.614  -3.929  -5.094  0.00  0.00    -0.205 F 
ENDBRANCH   3  10
BRANCH   5  17
ATOM     17  C   UNL     1      -6.486  -1.916  -0.814  0.00  0.00    +0.091 C 
ATOM     18  C   UNL     1      -7.758  -2.315  -0.624  0.00  0.00    +0.239 C 
ATOM     19  O   UNL     1      -8.266  -2.386   0.630  0.00  0.00    -0.271 OA
BRANCH  18  20
ATOM     20  N   UNL     1      -8.547  -2.654  -1.711  0.00  0.00    -0.309 N 
ATOM     21  H   UNL     1      -8.164  -2.672  -2.602  0.00  0.00    +0.149 HD
BRANCH  20  22
ATOM     22  C   UNL     1      -9.961  -2.985  -1.514  0.00  0.00    +0.073 C 
ATOM     23  C   UNL     1     -10.087  -4.446  -1.077  0.00  0.00    +0.022 C 
ATOM     24  C   UNL     1     -11.563  -4.791  -0.873  0.00  0.00    +0.002 C 
ATOM     25  C   UNL     1     -12.322  -4.585  -2.185  0.00  0.00    +0.000 C 
ATOM     26  C   UNL     1     -12.196  -3.124  -2.622  0.00  0.00    +0.002 C 
ATOM     27  C   UNL     1     -10.720  -2.778  -2.827  0.00  0.00    +0.022 C 
ENDBRANCH  20  22
ENDBRANCH  18  20
ENDBRANCH   5  17
BRANCH   1  29
ATOM     28  C   UNL     1       0.230   0.914   0.188  0.00  0.00    +0.010 C 
ATOM     29  C   UNL     1      -0.008  -0.588   0.361  0.00  0.00    +0.053 C 
ENDBRANCH   1  29
BRANCH   2  30
ATOM     30  C   UNL     1      -1.249  -0.975  -2.181  0.00  0.00    +0.339 C 
ATOM     31  O   UNL     1      -0.044  -0.815  -2.090  0.00  0.00    -0.245 OA
BRANCH  30  32
ATOM     32  O   UNL     1      -1.827  -1.069  -3.399  0.00  0.00    -0.465 OA
ATOM     33  C   UNL     1      -0.966  -0.972  -4.535  0.00  0.00    +0.280 C 
ENDBRANCH  30  32
ENDBRANCH   2  30
TORSDOF 7
