REMARK  Name = ZINC01110968
REMARK  8 active torsions:
REMARK  status: ('A' for Active; 'I' for Inactive)
REMARK    1  A    between atoms: C_1  and  O_2
REMARK    2  A    between atoms: O_2  and  C_3
REMARK    3  A    between atoms: C_5  and  C_12
REMARK    4  A    between atoms: C_8  and  O_9
REMARK    5  A    between atoms: O_9  and  C_10
REMARK    6  A    between atoms: C_15  and  C_26
REMARK    7  A    between atoms: C_21  and  N_25
REMARK    8  A    between atoms: C_22  and  C_23
REMARK                            x       y       z     vdW  Elec       q    Type
REMARK                         _______ _______ _______ _____ _____    ______ ____
ROOT
ATOM      1  C   UNL     1       2.434   0.391  -4.299  0.00  0.00    +0.103 C 
ATOM      2  C   UNL     1       3.397   1.360  -3.664  0.00  0.00    +0.054 A 
ATOM      3  C   UNL     1       4.649   1.116  -3.091  0.00  0.00    +0.100 A 
ATOM      4  N   UNL     1       5.130   2.266  -2.660  0.00  0.00    -0.171 NA
ATOM      5  N   UNL     1       4.195   3.272  -2.949  0.00  0.00    -0.246 N 
ATOM      6  H   UNL     1       4.289   4.215  -2.742  0.00  0.00    +0.192 HD
ATOM      7  C   UNL     1       3.141   2.697  -3.564  0.00  0.00    +0.223 A 
ATOM      8  O   UNL     1       1.999   3.260  -4.032  0.00  0.00    -0.423 OA
ATOM      9  C   UNL     1       1.226   2.518  -4.850  0.00  0.00    +0.200 C 
ATOM     10  C   UNL     1       1.375   1.185  -5.023  0.00  0.00    +0.098 C 
ENDROOT
BRANCH   1  13
ATOM     11  C   UNL     1       0.599  -0.643  -1.163  0.00  0.00    +0.162 A 
ATOM     12  C   UNL     1       1.190   0.138  -2.143  0.00  0.00    +0.055 A 
ATOM     13  C   UNL     1       1.792  -0.460  -3.234  0.00  0.00    -0.017 A 
ATOM     14  C   UNL     1       1.807  -1.839  -3.350  0.00  0.00    +0.026 A 
ATOM     15  C   UNL     1       1.218  -2.624  -2.376  0.00  0.00    +0.065 A 
ATOM     16  C   UNL     1       0.618  -2.030  -1.277  0.00  0.00    +0.163 A 
ATOM     17 BR   UNL     1       2.633  -2.651  -4.845  0.00  0.00    -0.050 Br
BRANCH  11  19
ATOM     18  C   UNL     1       0.023   1.372  -0.039  0.00  0.00    +0.277 C 
ATOM     19  O   UNL     1       0.005  -0.056  -0.090  0.00  0.00    -0.491 OA
ENDBRANCH  11  19
BRANCH  16  20
ATOM     20  O   UNL     1       0.045  -2.801  -0.315  0.00  0.00    -0.491 OA
ATOM     21  C   UNL     1       0.103  -4.217  -0.497  0.00  0.00    +0.277 C 
ENDBRANCH  16  20
ENDBRANCH   1  13
BRANCH   3  22
ATOM     22  C   UNL     1       5.319  -0.205  -2.986  0.00  0.00    +0.003 A 
ATOM     23  C   UNL     1       5.315  -1.079  -4.071  0.00  0.00    +0.010 A 
ATOM     24  C   UNL     1       5.939  -2.306  -3.967  0.00  0.00    +0.001 A 
ATOM     25  C   UNL     1       6.567  -2.668  -2.789  0.00  0.00    +0.000 A 
ATOM     26  C   UNL     1       6.573  -1.804  -1.709  0.00  0.00    +0.001 A 
ATOM     27  C   UNL     1       5.958  -0.572  -1.804  0.00  0.00    +0.010 A 
ENDBRANCH   3  22
BRANCH   9  28
ATOM     28  N   UNL     1       0.229   3.152  -5.549  0.00  0.00    -0.328 N 
ATOM     29  H   UNL     1       0.098   4.107  -5.447  0.00  0.00    +0.145 HD
ATOM     30  H   UNL     1      -0.343   2.645  -6.146  0.00  0.00    +0.145 HD
ENDBRANCH   9  28
BRANCH  10  31
ATOM     31  C   UNL     1       0.497   0.502  -5.925  0.00  0.00    +0.101 C 
ATOM     32  N   UNL     1      -0.200  -0.040  -6.640  0.00  0.00    -0.191 NA
ENDBRANCH  10  31
TORSDOF 6
