REMARK  Name = ZINC38546516
REMARK  9 active torsions:
REMARK  status: ('A' for Active; 'I' for Inactive)
REMARK    1  A    between atoms: C_1  and  C_2
REMARK    2  A    between atoms: C_2  and  C_3
REMARK    3  A    between atoms: C_2  and  C_4
REMARK    4  A    between atoms: C_7  and  C_10
REMARK    5  A    between atoms: C_10  and  C_12
REMARK    6  A    between atoms: C_10  and  N_29
REMARK    7  A    between atoms: C_16  and  N_17
REMARK    8  A    between atoms: C_18  and  C_20
REMARK    9  A    between atoms: N_32  and  C_35
REMARK                            x       y       z     vdW  Elec       q    Type
REMARK                         _______ _______ _______ _____ _____    ______ ____
ROOT
ATOM      1  C   UNL     1       2.654  -1.746  -4.760  0.00  0.00    +0.120 C 
ENDROOT
BRANCH   1   2
ATOM      2  C   UNL     1       2.403  -3.178  -5.159  0.00  0.00    +0.006 A 
ATOM      3  C   UNL     1       1.540  -3.468  -6.217  0.00  0.00    -0.030 A 
ATOM      4  C   UNL     1       1.365  -4.783  -6.517  0.00  0.00    -0.005 A 
ATOM      5  S   UNL     1       2.388  -5.628  -5.342  0.00  0.00    -0.078 S 
ATOM      6  C   UNL     1       3.020  -4.189  -4.492  0.00  0.00    +0.078 A 
ATOM      7  C   UNL     1       0.503  -5.365  -7.590  0.00  0.00    +0.043 C 
ATOM      8  C   UNL     1      -0.455  -4.271  -8.087  0.00  0.00    +0.005 C 
ATOM      9  C   UNL     1       0.350  -2.994  -8.346  0.00  0.00    +0.005 C 
ATOM     10  C   UNL     1       0.815  -2.392  -7.019  0.00  0.00    +0.036 C 
BRANCH   6  11
ATOM     11  N   UNL     1       3.913  -4.121  -3.421  0.00  0.00    -0.273 N 
ATOM     12  C   UNL     1       4.328  -5.252  -2.817  0.00  0.00    +0.284 C 
ATOM     13  O   UNL     1       3.924  -6.333  -3.205  0.00  0.00    -0.266 OA
ATOM     14  H   UNL     1       4.235  -3.260  -3.112  0.00  0.00    +0.156 HD
BRANCH  12  15
ATOM     15  C   UNL     1       5.266  -5.181  -1.692  0.00  0.00    +0.189 A 
ATOM     16  C   UNL     1       5.768  -6.244  -0.997  0.00  0.00    +0.054 A 
ATOM     17  C   UNL     1       6.621  -5.717  -0.015  0.00  0.00    +0.042 A 
ATOM     18  C   UNL     1       6.603  -4.373  -0.151  0.00  0.00    +0.196 A 
ATOM     19  O   UNL     1       5.789  -4.054  -1.166  0.00  0.00    -0.458 OA
ENDBRANCH  12  15
ENDBRANCH   6  11
ENDBRANCH   1   2
BRANCH   1  20
ATOM     20  N   UNL     1       4.088  -1.553  -4.507  0.00  0.00    -0.295 NA
ATOM     21  C   UNL     1       4.371  -0.166  -4.112  0.00  0.00    +0.067 C 
ATOM     22  C   UNL     1       5.862  -0.022  -3.800  0.00  0.00    -0.064 C 
ATOM     23  N   UNL     1       6.647  -0.380  -4.989  0.00  0.00    +0.379 N 
ATOM     24  C   UNL     1       6.373  -1.775  -5.357  0.00  0.00    -0.064 C 
ATOM     25  C   UNL     1       4.886  -1.934  -5.681  0.00  0.00    +0.067 C 
ATOM     26  C   UNL     1       8.078  -0.224  -4.695  0.00  0.00    -0.096 C 
ATOM     27  H   UNL     1       6.394   0.226  -5.754  0.00  0.00    -0.082 HD
ENDBRANCH   1  20
BRANCH   1  31
ATOM     28  C   UNL     1       0.448  -0.850  -1.214  0.00  0.00    -0.045 A 
ATOM     29  C   UNL     1      -0.094  -0.569  -2.454  0.00  0.00    +0.004 A 
ATOM     30  C   UNL     1       0.620  -0.859  -3.602  0.00  0.00    +0.006 A 
ATOM     31  C   UNL     1       1.876  -1.430  -3.509  0.00  0.00    -0.026 A 
ATOM     32  C   UNL     1       2.418  -1.710  -2.269  0.00  0.00    +0.006 A 
ATOM     33  C   UNL     1       1.705  -1.416  -1.121  0.00  0.00    +0.004 A 
BRANCH  28  35
ATOM     34  C   UNL     1      -0.626   0.966   0.089  0.00  0.00    +0.012 C 
ATOM     35  C   UNL     1      -0.331  -0.534   0.037  0.00  0.00    +0.013 C 
ATOM     36  C   UNL     1      -1.647  -1.314   0.029  0.00  0.00    +0.012 C 
ENDBRANCH  28  35
ENDBRANCH   1  31
TORSDOF 6
