REMARK  Name = ZINC39733319
REMARK  7 active torsions:
REMARK  status: ('A' for Active; 'I' for Inactive)
REMARK    1  A    between atoms: C_1  and  C_2
REMARK    2  A    between atoms: C_2  and  C_4
REMARK    3  A    between atoms: C_2  and  N_14
REMARK    4  A    between atoms: N_6  and  C_7
REMARK    5  A    between atoms: N_17  and  C_20
REMARK    6  A    between atoms: C_20  and  C_21
REMARK    7  A    between atoms: C_26  and  C_31
REMARK                            x       y       z     vdW  Elec       q    Type
REMARK                         _______ _______ _______ _____ _____    ______ ____
ROOT
ATOM      1  N   UNL     1      -1.088  -0.719   0.588  0.00  0.00    +0.389 N 
ATOM      2  C   UNL     1      -1.638  -0.134   1.818  0.00  0.00    -0.062 C 
ATOM      3  C   UNL     1      -2.752  -1.034   2.357  0.00  0.00    +0.066 C 
ATOM      4  N   UNL     1      -2.207  -2.371   2.632  0.00  0.00    -0.299 NA
ATOM      5  C   UNL     1      -1.630  -2.959   1.414  0.00  0.00    +0.066 C 
ATOM      6  C   UNL     1      -0.526  -2.043   0.882  0.00  0.00    -0.062 C 
ATOM      7  H   UNL     1      -1.822  -0.810  -0.098  0.00  0.00    -0.081 HD
ENDROOT
BRANCH   1   9
ATOM      8  C   UNL     1      -0.599   1.556  -0.174  0.00  0.00    -0.004 C 
ATOM      9  C   UNL     1      -0.032   0.155   0.060  0.00  0.00    +0.017 C 
BRANCH   9  10
ATOM     10  C   UNL     1       0.479  -0.405  -1.242  0.00  0.00    +0.203 C 
ATOM     11  O   UNL     1      -0.248  -1.081  -1.939  0.00  0.00    -0.277 OA
ATOM     12  N   UNL     1       1.745  -0.154  -1.633  0.00  0.00    -0.285 N 
ATOM     13  H   UNL     1       2.349   0.324  -1.044  0.00  0.00    +0.155 HD
BRANCH  12  14
ATOM     14  C   UNL     1       2.187  -0.584  -2.890  0.00  0.00    +0.069 A 
ATOM     15  C   UNL     1       1.268  -0.889  -3.885  0.00  0.00    +0.026 A 
ATOM     16  C   UNL     1       1.707  -1.313  -5.124  0.00  0.00    +0.002 A 
ATOM     17  C   UNL     1       3.062  -1.434  -5.376  0.00  0.00    +0.003 A 
ATOM     18  C   UNL     1       3.981  -1.132  -4.388  0.00  0.00    +0.040 A 
ATOM     19  C   UNL     1       3.549  -0.701  -3.147  0.00  0.00    +0.144 A 
ATOM     20  F   UNL     1       4.447  -0.401  -2.184  0.00  0.00    -0.204 F 
ENDBRANCH  12  14
ENDBRANCH   9  10
ENDBRANCH   1   9
BRANCH   4  21
ATOM     21  C   UNL     1      -3.234  -3.251   3.205  0.00  0.00    +0.158 C 
BRANCH  21  22
ATOM     22  C   UNL     1      -2.590  -4.521   3.698  0.00  0.00    +0.138 C 
ATOM     23  N   UNL     1      -1.291  -4.664   3.566  0.00  0.00    -0.160 NA
ATOM     24  C   UNL     1      -0.655  -5.764   3.981  0.00  0.00    +0.272 C 
ATOM     25  O   UNL     1       0.554  -5.875   3.848  0.00  0.00    -0.268 OA
ATOM     26  C   UNL     1      -1.456  -6.850   4.609  0.00  0.00    +0.076 C 
ATOM     27  C   UNL     1      -0.989  -8.061   5.101  0.00  0.00    -0.009 C 
ATOM     28  C   UNL     1      -2.024  -8.993   5.694  0.00  0.00    +0.113 C 
ATOM     29  S   UNL     1      -3.561  -8.011   5.472  0.00  0.00    -0.100 S 
ATOM     30  C   UNL     1      -2.848  -6.580   4.697  0.00  0.00    +0.112 C 
ATOM     31  N   UNL     1      -3.352  -5.447   4.252  0.00  0.00    -0.226 NA
BRANCH  27  32
ATOM     32  C   UNL     1       0.366  -8.403   5.052  0.00  0.00    +0.017 A 
ATOM     33  C   UNL     1       1.263  -8.614   6.108  0.00  0.00    +0.016 A 
ATOM     34  C   UNL     1       2.539  -8.940   5.741  0.00  0.00    +0.008 A 
ATOM     35  C   UNL     1       2.846  -9.034   4.417  0.00  0.00    +0.046 A 
ATOM     36  S   UNL     1       1.403  -8.691   3.630  0.00  0.00    -0.097 S 
ENDBRANCH  27  32
ENDBRANCH  21  22
ENDBRANCH   4  21
TORSDOF 6
