REMARK  Name = ZINC35354800
REMARK  6 active torsions:
REMARK  status: ('A' for Active; 'I' for Inactive)
REMARK    1  A    between atoms: C_3  and  C_31
REMARK    2  A    between atoms: C_5  and  C_7
REMARK    3  A    between atoms: N_9  and  C_10
REMARK    4  A    between atoms: C_13  and  N_16
REMARK    5  A    between atoms: N_16  and  S_17
REMARK    6  A    between atoms: S_17  and  C_20
REMARK                            x       y       z     vdW  Elec       q    Type
REMARK                         _______ _______ _______ _____ _____    ______ ____
ROOT
ATOM      1  C   UNL     1       0.444  -4.245   0.398  0.00  0.00    +0.034 A 
ATOM      2  C   UNL     1       1.632  -4.960   0.471  0.00  0.00    +0.025 A 
ATOM      3  C   UNL     1       1.610  -6.340   0.442  0.00  0.00    +0.026 A 
ATOM      4  C   UNL     1       0.399  -7.013   0.341  0.00  0.00    +0.048 A 
ATOM      5  C   UNL     1      -0.789  -6.297   0.268  0.00  0.00    +0.026 A 
ATOM      6  C   UNL     1      -0.767  -4.917   0.301  0.00  0.00    +0.025 A 
ENDROOT
BRANCH   1   9
ATOM      7  C   UNL     1      -0.517  -2.167   1.051  0.00  0.00    +0.248 C 
ATOM      8  O   UNL     1      -1.468  -2.766   1.515  0.00  0.00    -0.270 OA
ATOM      9  N   UNL     1       0.467  -2.844   0.427  0.00  0.00    -0.282 N 
ATOM     10  H   UNL     1       1.191  -2.362  -0.003  0.00  0.00    +0.155 HD
BRANCH   7  15
ATOM     11  C   UNL     1       0.725   1.368   0.753  0.00  0.00    +0.001 A 
ATOM     12  C   UNL     1      -0.279   2.069   1.391  0.00  0.00    +0.012 A 
ATOM     13  C   UNL     1      -1.376   1.392   1.927  0.00  0.00    +0.023 A 
ATOM     14  C   UNL     1      -1.456   0.006   1.817  0.00  0.00    +0.024 A 
ATOM     15  C   UNL     1      -0.440  -0.696   1.172  0.00  0.00    +0.038 A 
ATOM     16  C   UNL     1       0.652  -0.006   0.640  0.00  0.00    +0.013 A 
BRANCH  13  17
ATOM     17  C   UNL     1      -2.451   2.145   2.612  0.00  0.00    +0.207 A 
ATOM     18  N   UNL     1      -2.509   3.465   2.793  0.00  0.00    -0.106 NA
ATOM     19  N   UNL     1      -3.600   3.721   3.430  0.00  0.00    -0.021 NA
ATOM     20  N   UNL     1      -4.228   2.620   3.656  0.00  0.00    -0.021 NA
ATOM     21  N   UNL     1      -3.554   1.638   3.164  0.00  0.00    -0.106 NA
ENDBRANCH  13  17
ENDBRANCH   7  15
ENDBRANCH   1   9
BRANCH   4  22
ATOM     22  N   UNL     1       0.376  -8.412   0.311  0.00  0.00    -0.216 N 
ATOM     23  H   UNL     1       1.000  -8.895  -0.252  0.00  0.00    +0.174 HD
BRANCH  22  24
ATOM     24  S   UNL     1      -0.716  -9.242   1.239  0.00  0.00    +0.072 S 
ATOM     25  O   UNL     1      -1.991  -8.671   0.973  0.00  0.00    -0.150 OA
ATOM     26  O   UNL     1      -0.445 -10.623   1.047  0.00  0.00    -0.150 OA
BRANCH  24  27
ATOM     27  C   UNL     1      -0.346  -8.885   2.924  0.00  0.00    +0.112 A 
ATOM     28  C   UNL     1       0.625  -9.614   3.585  0.00  0.00    +0.032 A 
ATOM     29  C   UNL     1       0.921  -9.339   4.908  0.00  0.00    +0.051 A 
ATOM     30  C   UNL     1       0.241  -8.330   5.569  0.00  0.00    +0.162 A 
ATOM     31  C   UNL     1      -0.734  -7.599   4.905  0.00  0.00    +0.164 A 
ATOM     32  C   UNL     1      -1.025  -7.873   3.580  0.00  0.00    +0.078 A 
ATOM     33  O   UNL     1      -1.398  -6.606   5.565  0.00  0.00    -0.488 OA
ATOM     34  C   UNL     1      -2.277  -7.029   6.609  0.00  0.00    +0.232 C 
ATOM     35  C   UNL     1      -1.514  -7.229   7.909  0.00  0.00    +0.082 C 
ATOM     36  C   UNL     1      -0.502  -8.361   7.818  0.00  0.00    +0.232 C 
ATOM     37  O   UNL     1       0.524  -8.048   6.874  0.00  0.00    -0.488 OA
ENDBRANCH  24  27
ENDBRANCH  22  24
ENDBRANCH   4  22
TORSDOF 6
