REMARK  Name = ZINC11667734
REMARK  8 active torsions:
REMARK  status: ('A' for Active; 'I' for Inactive)
REMARK    1  A    between atoms: C_1  and  C_2
REMARK    2  A    between atoms: C_2  and  C_3
REMARK    3  A    between atoms: C_2  and  N_4
REMARK    4  A    between atoms: C_10  and  N_15
REMARK    5  A    between atoms: C_11  and  C_12
REMARK    6  A    between atoms: C_16  and  C_18
REMARK    7  A    between atoms: C_21  and  S_24
REMARK    8  A    between atoms: S_24  and  N_27
REMARK                            x       y       z     vdW  Elec       q    Type
REMARK                         _______ _______ _______ _____ _____    ______ ____
ROOT
ATOM      1  N   UNL     1      -7.425  -0.871  -1.817  0.00  0.00    -0.275 N 
ATOM      2  C   UNL     1      -7.894  -0.092  -2.812  0.00  0.00    +0.249 C 
ATOM      3  O   UNL     1      -7.146   0.674  -3.388  0.00  0.00    -0.270 OA
ATOM      4  H   UNL     1      -8.022  -1.483  -1.358  0.00  0.00    +0.156 HD
ENDROOT
BRANCH   1  11
ATOM      5  N   UNL     1      -1.441  -0.258   0.104  0.00  0.00    +0.384 N 
ATOM      6  C   UNL     1      -1.671  -1.690   0.331  0.00  0.00    -0.073 C 
ATOM      7  C   UNL     1      -3.125  -1.933   0.749  0.00  0.00    +0.018 C 
ATOM      8  C   UNL     1      -4.025  -1.256  -0.276  0.00  0.00    -0.027 A 
ATOM      9  C   UNL     1      -3.519  -0.320  -1.111  0.00  0.00    -0.021 A 
ATOM     10  S   UNL     1      -4.892   0.179  -2.106  0.00  0.00    -0.079 S 
ATOM     11  C   UNL     1      -6.091  -0.800  -1.452  0.00  0.00    +0.085 A 
ATOM     12  C   UNL     1      -5.438  -1.520  -0.461  0.00  0.00    +0.068 A 
ATOM     13  C   UNL     1      -2.102   0.159  -1.147  0.00  0.00    -0.035 C 
ATOM     14  H   UNL     1      -1.821   0.269   0.876  0.00  0.00    -0.081 HD
BRANCH  12  15
ATOM     15  C   UNL     1      -6.147  -2.504   0.362  0.00  0.00    +0.244 C 
ATOM     16  O   UNL     1      -6.674  -2.160   1.404  0.00  0.00    -0.270 OA
ATOM     17  N   UNL     1      -6.215  -3.790  -0.035  0.00  0.00    -0.325 N 
ATOM     18  H   UNL     1      -5.796  -4.064  -0.866  0.00  0.00    +0.145 HD
ATOM     19  H   UNL     1      -6.684  -4.442   0.509  0.00  0.00    +0.145 HD
ENDBRANCH  12  15
BRANCH   5  21
ATOM     20  C   UNL     1       0.238   1.469  -0.338  0.00  0.00    -0.014 C 
ATOM     21  C   UNL     1       0.002  -0.004   0.002  0.00  0.00    -0.074 C 
ATOM     22  C   UNL     1       0.673  -0.333   1.337  0.00  0.00    -0.014 C 
ENDBRANCH   5  21
ENDBRANCH   1  11
BRANCH   2  23
ATOM     23  C   UNL     1      -9.318  -0.168  -3.201  0.00  0.00    +0.037 A 
ATOM     24  C   UNL     1     -10.180  -1.042  -2.538  0.00  0.00    +0.015 A 
ATOM     25  C   UNL     1     -11.508  -1.108  -2.907  0.00  0.00    +0.029 A 
ATOM     26  C   UNL     1     -11.985  -0.311  -3.932  0.00  0.00    +0.109 A 
ATOM     27  C   UNL     1     -11.135   0.558  -4.594  0.00  0.00    +0.029 A 
ATOM     28  C   UNL     1      -9.807   0.638  -4.231  0.00  0.00    +0.015 A 
BRANCH  26  29
ATOM     29  S   UNL     1     -13.682  -0.402  -4.397  0.00  0.00    +0.075 S 
ATOM     30  O   UNL     1     -13.759   0.047  -5.743  0.00  0.00    -0.150 OA
ATOM     31  O   UNL     1     -14.146  -1.683  -3.993  0.00  0.00    -0.150 OA
BRANCH  29  32
ATOM     32  N   UNL     1     -14.501   0.709  -3.481  0.00  0.00    -0.202 N 
ATOM     33  C   UNL     1     -15.098   0.439  -2.170  0.00  0.00    +0.136 C 
ATOM     34  C   UNL     1     -15.735   1.769  -1.736  0.00  0.00    +0.058 C 
ATOM     35  C   UNL     1     -15.439   2.721  -2.873  0.00  0.00    -0.023 A 
ATOM     36  C   UNL     1     -14.718   2.039  -3.842  0.00  0.00    +0.054 A 
ATOM     37  C   UNL     1     -14.323   2.719  -4.996  0.00  0.00    +0.025 A 
ATOM     38  C   UNL     1     -14.642   4.050  -5.162  0.00  0.00    +0.002 A 
ATOM     39  C   UNL     1     -15.357   4.721  -4.188  0.00  0.00    +0.000 A 
ATOM     40  C   UNL     1     -15.761   4.053  -3.047  0.00  0.00    +0.005 A 
ENDBRANCH  29  32
ENDBRANCH  26  29
ENDBRANCH   2  23
TORSDOF 6
