REMARK  Name = ZINC09345498
REMARK  6 active torsions:
REMARK  status: ('A' for Active; 'I' for Inactive)
REMARK    1  A    between atoms: C_1  and  O_2
REMARK    2  A    between atoms: O_2  and  C_3
REMARK    3  A    between atoms: C_6  and  C_10
REMARK    4  A    between atoms: N_14  and  C_15
REMARK    5  A    between atoms: C_15  and  N_17
REMARK    6  A    between atoms: C_18  and  C_20
REMARK                            x       y       z     vdW  Elec       q    Type
REMARK                         _______ _______ _______ _____ _____    ______ ____
ROOT
ATOM      1  C   UNL     1       2.587  -2.539   4.286  0.00  0.00    +0.055 A 
ATOM      2  C   UNL     1       3.155  -1.832   5.288  0.00  0.00    +0.074 A 
ATOM      3  S   UNL     1       3.796  -3.123   6.337  0.00  0.00    -0.060 S 
ATOM      4  C   UNL     1       3.304  -4.456   5.440  0.00  0.00    +0.162 A 
ATOM      5  N   UNL     1       3.491  -5.745   5.710  0.00  0.00    -0.169 NA
ATOM      6  N   UNL     1       2.663  -3.902   4.373  0.00  0.00    -0.335 N 
ATOM      7  H   UNL     1       2.270  -4.464   3.687  0.00  0.00    +0.168 HD
ENDROOT
BRANCH   1  11
ATOM      8  C   UNL     1       0.646  -0.620   1.028  0.00  0.00    +0.134 A 
ATOM      9  C   UNL     1       1.222   0.141   2.036  0.00  0.00    +0.047 A 
ATOM     10  C   UNL     1       1.853  -0.478   3.095  0.00  0.00    +0.013 A 
ATOM     11  C   UNL     1       1.911  -1.871   3.152  0.00  0.00    +0.000 A 
ATOM     12  C   UNL     1       1.331  -2.633   2.137  0.00  0.00    +0.029 A 
ATOM     13  C   UNL     1       0.697  -2.006   1.084  0.00  0.00    +0.060 A 
ATOM     14 BR   UNL     1      -0.096  -3.037  -0.289  0.00  0.00    -0.046 Br
BRANCH   8  16
ATOM     15  C   UNL     1       0.010   1.423  -0.008  0.00  0.00    +0.277 C 
ATOM     16  O   UNL     1       0.026  -0.005  -0.014  0.00  0.00    -0.494 OA
ENDBRANCH   8  16
ENDBRANCH   1  11
BRANCH   5  17
ATOM     17  C   UNL     1       2.941  -6.678   4.928  0.00  0.00    +0.163 C 
ATOM     18  S   UNL     1       3.433  -6.825   3.295  0.00  0.00    -0.016 S 
BRANCH  17  19
ATOM     19  N   UNL     1       1.997  -7.503   5.425  0.00  0.00    -0.260 N 
ATOM     20  C   UNL     1       1.442  -8.444   4.636  0.00  0.00    +0.285 C 
ATOM     21  O   UNL     1       1.792  -8.549   3.475  0.00  0.00    -0.266 OA
ATOM     22  H   UNL     1       1.718  -7.419   6.350  0.00  0.00    +0.157 HD
BRANCH  20  23
ATOM     23  C   UNL     1       0.414  -9.343   5.177  0.00  0.00    +0.191 A 
ATOM     24  C   UNL     1      -0.208 -10.328   4.479  0.00  0.00    +0.063 A 
ATOM     25  C   UNL     1      -1.143 -10.956   5.412  0.00  0.00    +0.021 A 
ATOM     26  C   UNL     1      -2.059 -12.007   5.313  0.00  0.00    +0.011 A 
ATOM     27  C   UNL     1      -2.805 -12.359   6.402  0.00  0.00    +0.001 A 
ATOM     28  C   UNL     1      -2.658 -11.681   7.605  0.00  0.00    +0.004 A 
ATOM     29  C   UNL     1      -1.760 -10.642   7.723  0.00  0.00    +0.047 A 
ATOM     30  C   UNL     1      -0.990 -10.265   6.628  0.00  0.00    +0.136 A 
ATOM     31  O   UNL     1      -0.050  -9.319   6.444  0.00  0.00    -0.450 OA
ENDBRANCH  20  23
ENDBRANCH  17  19
ENDBRANCH   5  17
TORSDOF 5
