REMARK  Name = ZINC59167678
REMARK  5 active torsions:
REMARK  status: ('A' for Active; 'I' for Inactive)
REMARK    1  A    between atoms: C_3  and  S_18
REMARK    2  A    between atoms: C_6  and  N_7
REMARK    3  A    between atoms: N_10  and  C_11
REMARK    4  A    between atoms: S_18  and  N_21
REMARK    5  A    between atoms: N_21  and  C_22
REMARK                            x       y       z     vdW  Elec       q    Type
REMARK                         _______ _______ _______ _____ _____    ______ ____
ROOT
ATOM      1  C   UNL     1      -0.186   1.484   0.630  0.00  0.00    +0.025 A 
ATOM      2  C   UNL     1       0.953   2.252   0.774  0.00  0.00    +0.031 A 
ATOM      3  C   UNL     1       2.200   1.685   0.583  0.00  0.00    +0.111 A 
ATOM      4  C   UNL     1       2.310   0.348   0.247  0.00  0.00    +0.031 A 
ATOM      5  C   UNL     1       1.175  -0.425   0.101  0.00  0.00    +0.025 A 
ATOM      6  C   UNL     1      -0.078   0.142   0.293  0.00  0.00    +0.035 A 
ENDROOT
BRANCH   6   7
ATOM      7  N   UNL     1      -1.230  -0.639   0.146  0.00  0.00    -0.269 N 
ATOM      8  C   UNL     1      -2.365  -0.084  -0.326  0.00  0.00    +0.308 C 
ATOM      9  O   UNL     1      -2.362   1.069  -0.713  0.00  0.00    -0.252 OA
ATOM     10  N   UNL     1      -3.501  -0.807  -0.369  0.00  0.00    -0.269 N 
ATOM     11  H   UNL     1      -1.213  -1.579   0.384  0.00  0.00    +0.156 HD
ATOM     12  H   UNL     1      -3.522  -1.701   0.008  0.00  0.00    +0.156 HD
BRANCH  10  13
ATOM     13  C   UNL     1      -4.651  -0.269  -0.959  0.00  0.00    +0.035 A 
ATOM     14  C   UNL     1      -5.905  -0.596  -0.461  0.00  0.00    +0.025 A 
ATOM     15  C   UNL     1      -7.039  -0.063  -1.044  0.00  0.00    +0.022 A 
ATOM     16  C   UNL     1      -6.924   0.795  -2.124  0.00  0.00    +0.041 A 
ATOM     17  C   UNL     1      -5.675   1.122  -2.622  0.00  0.00    +0.022 A 
ATOM     18  C   UNL     1      -4.539   0.597  -2.039  0.00  0.00    +0.025 A 
ATOM     19 CL   UNL     1      -8.351   1.462  -2.855  0.00  0.00    -0.084 Cl
ENDBRANCH  10  13
ENDBRANCH   6   7
BRANCH   3  20
ATOM     20  S   UNL     1       3.651   2.667   0.768  0.00  0.00    +0.093 S 
ATOM     21  O   UNL     1       4.668   2.037   0.002  0.00  0.00    -0.148 OA
ATOM     22  O   UNL     1       3.258   4.016   0.550  0.00  0.00    -0.148 OA
BRANCH  20  23
ATOM     23  N   UNL     1       4.116   2.560   2.353  0.00  0.00    -0.076 NA
BRANCH  23  24
ATOM     24  C   UNL     1       5.245   3.243   2.795  0.00  0.00    +0.185 A 
ATOM     25  C   UNL     1       5.643   3.150   4.128  0.00  0.00    +0.052 A 
ATOM     26  C   UNL     1       6.774   3.849   4.518  0.00  0.00    +0.045 A 
ATOM     27  C   UNL     1       7.442   4.598   3.557  0.00  0.00    +0.152 A 
ATOM     28  N   UNL     1       6.994   4.629   2.317  0.00  0.00    -0.136 NA
ATOM     29  N   UNL     1       5.950   3.979   1.949  0.00  0.00    -0.129 NA
ATOM     30 CL   UNL     1       8.864   5.494   3.988  0.00  0.00    -0.060 Cl
ENDBRANCH  23  24
ENDBRANCH  20  23
ENDBRANCH   3  20
TORSDOF 5
