REMARK  Name = ZINC11719848
REMARK  7 active torsions:
REMARK  status: ('A' for Active; 'I' for Inactive)
REMARK    1  A    between atoms: C_1  and  C_2
REMARK    2  A    between atoms: C_2  and  C_4
REMARK    3  A    between atoms: C_2  and  N_49
REMARK    4  A    between atoms: N_6  and  C_7
REMARK    5  A    between atoms: C_17  and  N_20
REMARK    6  A    between atoms: N_20  and  S_21
REMARK    7  A    between atoms: S_21  and  C_24
REMARK                            x       y       z     vdW  Elec       q    Type
REMARK                         _______ _______ _______ _____ _____    ______ ____
ROOT
ATOM      1  C   UNL     1       3.753   5.979  -1.502  0.00  0.00    -0.076 C 
ATOM      2  C   UNL     1       3.353   7.455  -1.481  0.00  0.00    +0.002 C 
ATOM      3  C   UNL     1       4.615   8.321  -1.478  0.00  0.00    +0.073 C 
ATOM      4  C   UNL     1       5.475   7.952  -0.266  0.00  0.00    +0.002 C 
ATOM      5  C   UNL     1       5.814   6.461  -0.322  0.00  0.00    -0.076 C 
ATOM      6  N   UNL     1       4.557   5.682  -0.297  0.00  0.00    +0.387 N 
ATOM      7  H   UNL     1       4.019   5.946   0.536  0.00  0.00    -0.081 HD
ENDROOT
BRANCH   6   9
ATOM      8  C   UNL     1       5.601   3.789  -1.497  0.00  0.00    -0.004 C 
ATOM      9  C   UNL     1       4.860   4.237  -0.236  0.00  0.00    +0.016 C 
BRANCH   9  10
ATOM     10  C   UNL     1       3.567   3.474  -0.114  0.00  0.00    +0.203 C 
ATOM     11  O   UNL     1       2.510   4.069  -0.101  0.00  0.00    -0.277 OA
ATOM     12  N   UNL     1       3.584   2.129  -0.020  0.00  0.00    -0.287 N 
ATOM     13  H   UNL     1       4.430   1.658   0.037  0.00  0.00    +0.155 HD
BRANCH  12  14
ATOM     14  C   UNL     1       2.382   1.413  -0.005  0.00  0.00    +0.036 A 
ATOM     15  C   UNL     1       1.262   1.947   0.618  0.00  0.00    +0.026 A 
ATOM     16  C   UNL     1       0.076   1.239   0.633  0.00  0.00    +0.043 A 
ATOM     17  C   UNL     1       0.002  -0.003   0.027  0.00  0.00    +0.159 A 
ATOM     18  C   UNL     1       1.118  -0.539  -0.597  0.00  0.00    +0.160 A 
ATOM     19  C   UNL     1       2.307   0.167  -0.614  0.00  0.00    +0.064 A 
ATOM     20  F   UNL     1       1.044  -1.752  -1.189  0.00  0.00    -0.202 F 
ATOM     21  F   UNL     1      -1.159  -0.694   0.042  0.00  0.00    -0.202 F 
ENDBRANCH  12  14
ENDBRANCH   9  10
ENDBRANCH   6   9
BRANCH   3  22
ATOM     22  N   UNL     1       4.240   9.735  -1.400  0.00  0.00    -0.187 NA
ATOM     23  H   UNL     1       4.065  10.143  -0.537  0.00  0.00    +0.148 HD
BRANCH  22  24
ATOM     24  S   UNL     1       4.112  10.636  -2.783  0.00  0.00    +0.065 S 
ATOM     25  O   UNL     1       3.712  11.940  -2.384  0.00  0.00    -0.153 OA
ATOM     26  O   UNL     1       5.296  10.399  -3.533  0.00  0.00    -0.153 OA
BRANCH  24  27
ATOM     27  C   UNL     1       2.780   9.966  -3.721  0.00  0.00    +0.142 A 
ATOM     28  C   UNL     1       1.464  10.292  -3.689  0.00  0.00    +0.036 A 
ATOM     29  C   UNL     1       0.588   9.626  -4.525  0.00  0.00    +0.010 A 
ATOM     30  C   UNL     1       1.070   8.666  -5.352  0.00  0.00    +0.047 A 
ATOM     31  S   UNL     1       2.812   8.685  -4.965  0.00  0.00    -0.077 S 
ENDBRANCH  24  27
ENDBRANCH  22  24
ENDBRANCH   3  22
TORSDOF 6
