REMARK  Name = ZINC35636093
REMARK  7 active torsions:
REMARK  status: ('A' for Active; 'I' for Inactive)
REMARK    1  A    between atoms: C_1  and  C_2
REMARK    2  A    between atoms: N_4  and  C_5
REMARK    3  A    between atoms: C_7  and  O_28
REMARK    4  A    between atoms: C_15  and  C_18
REMARK    5  A    between atoms: C_25  and  O_27
REMARK    6  A    between atoms: O_28  and  C_29
REMARK    7  A    between atoms: C_29  and  C_31
REMARK                            x       y       z     vdW  Elec       q    Type
REMARK                         _______ _______ _______ _____ _____    ______ ____
ROOT
ATOM      1  C   UNL     1       0.020  -2.136  -1.177  0.00  0.00    +0.172 C 
ATOM      2  C   UNL     1      -0.599  -2.648  -2.484  0.00  0.00    +0.233 C 
ATOM      3  C   UNL     1       0.278  -2.185  -3.647  0.00  0.00    +0.195 C 
ATOM      4  C   UNL     1       1.697  -2.728  -3.438  0.00  0.00    +0.179 C 
ATOM      5  C   UNL     1       2.559  -2.299  -4.626  0.00  0.00    +0.197 C 
ATOM      6  O   UNL     1       1.931  -2.757  -5.829  0.00  0.00    -0.345 OA
ATOM      7  C   UNL     1       0.593  -2.292  -6.010  0.00  0.00    +0.282 C 
ATOM      8  O   UNL     1      -0.218  -2.676  -4.893  0.00  0.00    -0.338 OA
ATOM      9  O   UNL     1       2.214  -2.212  -2.214  0.00  0.00    -0.341 OA
ATOM     10  C   UNL     1       1.465  -2.627  -1.065  0.00  0.00    +0.272 C 
ENDROOT
BRANCH   7  11
ATOM     11  C   UNL     1       0.020  -2.890  -7.269  0.00  0.00    +0.008 A 
ATOM     12  C   UNL     1      -1.115  -3.677  -7.206  0.00  0.00    +0.008 A 
ATOM     13  C   UNL     1      -1.639  -4.227  -8.361  0.00  0.00    +0.000 A 
ATOM     14  C   UNL     1      -1.030  -3.989  -9.578  0.00  0.00    +0.000 A 
ATOM     15  C   UNL     1       0.105  -3.202  -9.641  0.00  0.00    +0.000 A 
ATOM     16  C   UNL     1       0.627  -2.649  -8.487  0.00  0.00    +0.008 A 
ENDBRANCH   7  11
BRANCH   1  20
ATOM     17  C   UNL     1      -0.018   1.503   0.010  0.00  0.00    +0.109 C 
ATOM     18  C   UNL     1       0.002  -0.004   0.002  0.00  0.00    +0.210 C 
ATOM     19  O   UNL     1       0.020  -0.616   1.049  0.00  0.00    -0.276 OA
ATOM     20  N   UNL     1       0.000  -0.672  -1.169  0.00  0.00    -0.304 N 
ATOM     21  H   UNL     1      -0.015  -0.182  -2.006  0.00  0.00    +0.149 HD
ENDBRANCH   1  20
BRANCH  10  22
ATOM     22  O   UNL     1       2.062  -2.078   0.111  0.00  0.00    -0.365 OA
ATOM     23  H   UNL     1       2.981  -2.347   0.247  0.00  0.00    +0.213 HD
ENDBRANCH  10  22
BRANCH   2  24
ATOM     24  O   UNL     1      -1.918  -2.119  -2.630  0.00  0.00    -0.453 OA
BRANCH  24  25
ATOM     25  C   UNL     1      -2.929  -2.841  -2.110  0.00  0.00    +0.340 C 
ATOM     26  O   UNL     1      -2.696  -3.893  -1.548  0.00  0.00    -0.245 OA
BRANCH  25  27
ATOM     27  C   UNL     1      -4.319  -2.356  -2.224  0.00  0.00    +0.059 A 
ATOM     28  C   UNL     1      -4.590  -1.151  -2.875  0.00  0.00    +0.015 A 
ATOM     29  C   UNL     1      -5.891  -0.703  -2.978  0.00  0.00    +0.001 A 
ATOM     30  C   UNL     1      -6.926  -1.446  -2.437  0.00  0.00    +0.000 A 
ATOM     31  C   UNL     1      -6.664  -2.640  -1.790  0.00  0.00    +0.001 A 
ATOM     32  C   UNL     1      -5.369  -3.103  -1.686  0.00  0.00    +0.015 A 
ENDBRANCH  25  27
ENDBRANCH  24  25
ENDBRANCH   2  24
TORSDOF 6
