REMARK  Name = ZINC20876398
REMARK  9 active torsions:
REMARK  status: ('A' for Active; 'I' for Inactive)
REMARK    1  A    between atoms: C_1  and  O_2
REMARK    2  A    between atoms: O_2  and  C_3
REMARK    3  A    between atoms: C_5  and  C_20
REMARK    4  A    between atoms: C_8  and  O_9
REMARK    5  A    between atoms: O_9  and  C_10
REMARK    6  A    between atoms: C_10  and  C_11
REMARK    7  A    between atoms: C_20  and  N_21
REMARK    8  A    between atoms: N_21  and  C_22
REMARK    9  A    between atoms: C_22  and  C_23
REMARK                            x       y       z     vdW  Elec       q    Type
REMARK                         _______ _______ _______ _____ _____    ______ ____
ROOT
ATOM      1  C   UNL     1      -0.787   2.893   1.346  0.00  0.00    +0.163 A 
ATOM      2  C   UNL     1      -0.254   3.751   0.398  0.00  0.00    +0.051 A 
ATOM      3  C   UNL     1      -0.367   5.119   0.561  0.00  0.00    -0.060 A 
ATOM      4  C   UNL     1      -1.002   5.635   1.676  0.00  0.00    +0.021 A 
ATOM      5  C   UNL     1      -1.532   4.784   2.629  0.00  0.00    +0.063 A 
ATOM      6  C   UNL     1      -1.426   3.411   2.468  0.00  0.00    +0.176 A 
ATOM      7 BR   UNL     1      -2.400   5.494   4.152  0.00  0.00    -0.046 Br
ENDROOT
BRANCH   1   9
ATOM      8  C   UNL     1      -0.013   1.086   0.008  0.00  0.00    +0.277 C 
ATOM      9  O   UNL     1      -0.682   1.547   1.184  0.00  0.00    -0.491 OA
ENDBRANCH   1   9
BRANCH   6  10
ATOM     10  O   UNL     1      -1.946   2.573   3.405  0.00  0.00    -0.483 OA
BRANCH  10  11
ATOM     11  C   UNL     1      -1.085   2.185   4.477  0.00  0.00    +0.264 C 
BRANCH  11  12
ATOM     12  C   UNL     1      -1.828   1.263   5.409  0.00  0.00    -0.009 A 
ATOM     13  C   UNL     1      -2.535   1.783   6.478  0.00  0.00    +0.008 A 
ATOM     14  C   UNL     1      -3.221   0.938   7.330  0.00  0.00    +0.022 A 
ATOM     15  C   UNL     1      -3.192  -0.429   7.120  0.00  0.00    +0.059 A 
ATOM     16  C   UNL     1      -2.480  -0.950   6.053  0.00  0.00    +0.060 A 
ATOM     17  C   UNL     1      -1.798  -0.103   5.198  0.00  0.00    +0.028 A 
ATOM     18 CL   UNL     1      -2.443  -2.665   5.789  0.00  0.00    -0.082 Cl
ATOM     19 CL   UNL     1      -4.048  -1.491   8.194  0.00  0.00    -0.082 Cl
ENDBRANCH  11  12
ENDBRANCH  10  11
ENDBRANCH   6  10
BRANCH   3  20
ATOM     20  C   UNL     1       0.207   6.050  -0.475  0.00  0.00    -0.046 C 
BRANCH  20  21
ATOM     21  N   UNL     1       1.600   6.366  -0.131  0.00  0.00    +0.386 N 
ATOM     22  H   UNL     1       1.633   6.850   0.856  0.00  0.00    -0.085 HD
ATOM     23  H   UNL     1       2.191   5.438  -0.104  0.00  0.00    -0.085 HD
BRANCH  21  24
ATOM     24  C   UNL     1       2.195   7.273  -1.121  0.00  0.00    -0.006 C 
BRANCH  24  25
ATOM     25  C   UNL     1       3.620   7.574  -0.736  0.00  0.00    +0.088 A 
ATOM     26  C   UNL     1       4.703   6.873  -1.117  0.00  0.00    +0.042 A 
ATOM     27  C   UNL     1       5.825   7.500  -0.530  0.00  0.00    +0.041 A 
ATOM     28  C   UNL     1       5.361   8.547   0.176  0.00  0.00    +0.195 A 
ATOM     29  O   UNL     1       4.026   8.590   0.043  0.00  0.00    -0.470 OA
ENDBRANCH  24  25
ENDBRANCH  21  24
ENDBRANCH  20  21
ENDBRANCH   3  20
TORSDOF 8
