REMARK  Name = ZINC13191173
REMARK  8 active torsions:
REMARK  status: ('A' for Active; 'I' for Inactive)
REMARK    1  A    between atoms: C_1  and  O_2
REMARK    2  A    between atoms: O_2  and  C_3
REMARK    3  A    between atoms: C_3  and  C_5
REMARK    4  A    between atoms: C_9  and  N_10
REMARK    5  A    between atoms: C_11  and  C_13
REMARK    6  A    between atoms: C_13  and  O_14
REMARK    7  A    between atoms: O_14  and  C_15
REMARK    8  A    between atoms: C_18  and  C_22
REMARK                            x       y       z     vdW  Elec       q    Type
REMARK                         _______ _______ _______ _____ _____    ______ ____
ROOT
ATOM      1  N   UNL     1       5.329  -2.502   2.007  0.00  0.00    -0.277 N 
ATOM      2  C   UNL     1       6.607  -2.402   1.591  0.00  0.00    +0.255 C 
ATOM      3  O   UNL     1       6.904  -1.600   0.731  0.00  0.00    -0.272 OA
ATOM      4  H   UNL     1       5.092  -3.143   2.695  0.00  0.00    +0.155 HD
ENDROOT
BRANCH   1   9
ATOM      5  C   UNL     1       2.999  -1.642   1.746  0.00  0.00    +0.091 A 
ATOM      6  C   UNL     1       2.179  -0.684   1.016  0.00  0.00    -0.021 A 
ATOM      7  C   UNL     1       2.846   0.061   0.110  0.00  0.00    -0.004 A 
ATOM      8  S   UNL     1       4.530  -0.479   0.225  0.00  0.00    -0.077 S 
ATOM      9  C   UNL     1       4.354  -1.688   1.453  0.00  0.00    +0.086 A 
ATOM     10  C   UNL     1       2.288   1.105  -0.807  0.00  0.00    +0.043 C 
ATOM     11  C   UNL     1       1.406   2.067  -0.000  0.00  0.00    +0.005 C 
ATOM     12  C   UNL     1      -0.019   1.523   0.010  0.00  0.00    +0.001 C 
ATOM     13  C   UNL     1       0.002  -0.004   0.002  0.00  0.00    +0.005 C 
ATOM     14  C   UNL     1       0.683  -0.534   1.259  0.00  0.00    +0.037 C 
BRANCH   5  15
ATOM     15  C   UNL     1       2.413  -2.526   2.756  0.00  0.00    +0.342 C 
ATOM     16  O   UNL     1       1.984  -3.618   2.434  0.00  0.00    -0.245 OA
BRANCH  15  18
ATOM     17  C   UNL     1       1.755  -3.057   4.990  0.00  0.00    +0.280 C 
ATOM     18  O   UNL     1       2.348  -2.130   4.044  0.00  0.00    -0.464 OA
ENDBRANCH  15  18
ENDBRANCH   5  15
ENDBRANCH   1   9
BRANCH   2  19
ATOM     19  C   UNL     1       7.667  -3.287   2.194  0.00  0.00    +0.325 C 
BRANCH  19  20
ATOM     20  O   UNL     1       8.930  -2.995   1.592  0.00  0.00    -0.482 OA
BRANCH  20  21
ATOM     21  C   UNL     1       9.999  -3.710   2.026  0.00  0.00    +0.135 A 
ATOM     22  C   UNL     1       9.834  -4.674   3.013  0.00  0.00    +0.047 A 
ATOM     23  C   UNL     1      10.915  -5.402   3.455  0.00  0.00    +0.019 A 
ATOM     24  C   UNL     1      12.182  -5.170   2.911  0.00  0.00    +0.064 A 
ATOM     25  C   UNL     1      12.345  -4.199   1.919  0.00  0.00    +0.034 A 
ATOM     26  C   UNL     1      11.256  -3.479   1.478  0.00  0.00    +0.060 A 
ATOM     27 BR   UNL     1      11.473  -2.170   0.130  0.00  0.00    -0.046 Br
BRANCH  24  28
ATOM     28  C   UNL     1      13.343  -5.947   3.383  0.00  0.00    +0.387 C 
ATOM     29  O   UNL     1      13.200  -6.790   4.246  0.00  0.00    -0.241 OA
ATOM     30  O   UNL     1      14.563  -5.722   2.857  0.00  0.00    -0.241 OA
ENDBRANCH  24  28
ENDBRANCH  20  21
ENDBRANCH  19  20
ENDBRANCH   2  19
TORSDOF 7
