REMARK  Name = ZINC53620239
REMARK  4 active torsions:
REMARK  status: ('A' for Active; 'I' for Inactive)
REMARK    1  A    between atoms: C_1  and  C_2
REMARK    2  A    between atoms: C_6  and  C_8
REMARK    3  A    between atoms: C_16  and  C_18
REMARK    4  A    between atoms: C_21  and  C_25
REMARK                            x       y       z     vdW  Elec       q    Type
REMARK                         _______ _______ _______ _____ _____    ______ ____
ROOT
ATOM      1  C   UNL     1      -0.013   1.086   0.008  0.00  0.00    +0.066 C 
ATOM      2  C   UNL     1      -0.742   1.585  -1.213  0.00  0.00    +0.054 A 
ATOM      3  N   UNL     1      -2.044   1.798  -1.199  0.00  0.00    -0.229 NA
ATOM      4  C   UNL     1      -2.674   2.233  -2.269  0.00  0.00    +0.165 A 
ATOM      5  N   UNL     1      -4.027   2.506  -2.424  0.00  0.00    -0.261 N 
ATOM      6  C   UNL     1      -4.873   2.327  -1.390  0.00  0.00    +0.250 C 
ATOM      7  O   UNL     1      -4.452   1.926  -0.323  0.00  0.00    -0.270 OA
ATOM      8  S   UNL     1      -1.440   2.380  -3.405  0.00  0.00    -0.053 S 
ATOM      9  C   UNL     1      -0.088   1.841  -2.373  0.00  0.00    +0.059 A 
ATOM     10  H   UNL     1      -4.362   2.826  -3.276  0.00  0.00    +0.157 HD
ENDROOT
BRANCH   6  11
ATOM     11  C   UNL     1      -6.312   2.617  -1.555  0.00  0.00    +0.037 A 
ATOM     12  C   UNL     1      -6.799   3.072  -2.781  0.00  0.00    +0.014 A 
ATOM     13  C   UNL     1      -8.144   3.342  -2.929  0.00  0.00    +0.021 A 
ATOM     14  C   UNL     1      -9.010   3.162  -1.863  0.00  0.00    +0.041 A 
ATOM     15  C   UNL     1      -8.532   2.711  -0.643  0.00  0.00    +0.021 A 
ATOM     16  C   UNL     1      -7.191   2.432  -0.486  0.00  0.00    +0.014 A 
ATOM     17 CL   UNL     1     -10.701   3.504  -2.056  0.00  0.00    -0.084 Cl
ENDBRANCH   6  11
BRANCH   9  18
ATOM     18  C   UNL     1       1.377   1.707  -2.700  0.00  0.00    +0.250 C 
ATOM     19  N   UNL     1       1.545   1.383  -4.134  0.00  0.00    -0.265 NA
ATOM     20  C   UNL     1       2.685   0.427  -4.158  0.00  0.00    +0.187 C 
ATOM     21  N   UNL     1       2.462  -0.361  -2.917  0.00  0.00    -0.177 NA
ATOM     22  O   UNL     1       1.949   0.627  -1.946  0.00  0.00    -0.274 OA
ATOM     23  H   UNL     1       0.710   0.958  -4.509  0.00  0.00    +0.127 HD
ATOM     24  H   UNL     1       3.323  -0.773  -2.590  0.00  0.00    +0.156 HD
BRANCH  20  25
ATOM     25  C   UNL     1       2.621  -0.455  -5.378  0.00  0.00    +0.023 A 
ATOM     26  C   UNL     1       3.054  -1.730  -5.533  0.00  0.00    +0.014 A 
ATOM     27  C   UNL     1       2.888  -2.350  -6.757  0.00  0.00    +0.008 A 
ATOM     28  C   UNL     1       2.296  -1.665  -7.766  0.00  0.00    +0.045 A 
ATOM     29  S   UNL     1       1.946  -0.095  -6.991  0.00  0.00    -0.099 S 
ENDBRANCH  20  25
ENDBRANCH   9  18
TORSDOF 3
