REMARK  Name = ZINC37606219
REMARK  4 active torsions:
REMARK  status: ('A' for Active; 'I' for Inactive)
REMARK    1  A    between atoms: C_3  and  C_8
REMARK    2  A    between atoms: C_8  and  C_9
REMARK    3  A    between atoms: C_11  and  C_14
REMARK    4  A    between atoms: C_16  and  N_21
REMARK                            x       y       z     vdW  Elec       q    Type
REMARK                         _______ _______ _______ _____ _____    ______ ____
ROOT
ATOM      1  C   UNL     1       4.117   2.433   1.396  0.00  0.00    +0.176 A 
ATOM      2  N   UNL     1       3.785   3.493   2.136  0.00  0.00    -0.191 NA
ATOM      3  C   UNL     1       4.340   3.402   3.324  0.00  0.00    +0.261 A 
ATOM      4  O   UNL     1       5.051   2.262   3.365  0.00  0.00    -0.333 OA
ATOM      5  N   UNL     1       4.884   1.646   2.096  0.00  0.00    -0.061 NA
ENDROOT
BRANCH   3   6
ATOM      6  C   UNL     1       4.208   4.382   4.421  0.00  0.00    +0.076 A 
ATOM      7  C   UNL     1       4.859   4.166   5.637  0.00  0.00    +0.038 A 
ATOM      8  C   UNL     1       4.730   5.089   6.661  0.00  0.00    +0.025 A 
ATOM      9  C   UNL     1       3.954   6.229   6.478  0.00  0.00    +0.025 A 
ATOM     10  C   UNL     1       3.308   6.445   5.276  0.00  0.00    +0.041 A 
ATOM     11  C   UNL     1       3.434   5.533   4.245  0.00  0.00    +0.136 A 
ATOM     12  F   UNL     1       2.806   5.752   3.069  0.00  0.00    -0.205 F 
BRANCH   8  13
ATOM     13  N   UNL     1       5.381   4.876   7.880  0.00  0.00    -0.358 N 
ATOM     14  H   UNL     1       5.922   4.081   8.009  0.00  0.00    +0.142 HD
ATOM     15  H   UNL     1       5.291   5.522   8.598  0.00  0.00    +0.142 HD
ENDBRANCH   8  13
ENDBRANCH   3   6
BRANCH   1  16
ATOM     16  C   UNL     1       3.672   2.183  -0.022  0.00  0.00    +0.115 C 
BRANCH  16  19
ATOM     17  C   UNL     1      -0.017   1.378   0.010  0.00  0.00    +0.001 A 
ATOM     18  C   UNL     1       1.171   2.086   0.002  0.00  0.00    +0.004 A 
ATOM     19  C   UNL     1       2.378   1.411  -0.013  0.00  0.00    -0.039 A 
ATOM     20  C   UNL     1       2.397   0.029  -0.022  0.00  0.00    +0.019 A 
ATOM     21  C   UNL     1       1.210  -0.679  -0.014  0.00  0.00    +0.018 A 
ATOM     22  C   UNL     1       0.002  -0.004   0.002  0.00  0.00    +0.015 A 
ATOM     23 BR   UNL     1       1.236  -2.570  -0.025  0.00  0.00    -0.050 Br
ENDBRANCH  16  19
ENDBRANCH   1  16
TORSDOF 4
