REMARK  Name = ZINC13761675
REMARK  7 active torsions:
REMARK  status: ('A' for Active; 'I' for Inactive)
REMARK    1  A    between atoms: C_5  and  S_7
REMARK    2  A    between atoms: S_7  and  N_10
REMARK    3  A    between atoms: N_10  and  C_11
REMARK    4  A    between atoms: C_15  and  C_17
REMARK    5  A    between atoms: C_17  and  C_19
REMARK    6  A    between atoms: C_17  and  C_33
REMARK    7  A    between atoms: C_20  and  O_21
REMARK                            x       y       z     vdW  Elec       q    Type
REMARK                         _______ _______ _______ _____ _____    ______ ____
ROOT
ATOM      1  C   UNL     1      -3.791   7.063  -4.908  0.00  0.00    +0.063 C 
ENDROOT
BRANCH   1   2
ATOM      2  C   UNL     1      -3.675   6.485  -6.295  0.00  0.00    +0.086 A 
ATOM      3  C   UNL     1      -2.664   5.545  -6.599  0.00  0.00    +0.134 A 
ATOM      4  C   UNL     1      -2.620   5.023  -7.915  0.00  0.00    +0.033 A 
ATOM      5  C   UNL     1      -3.502   5.465  -8.835  0.00  0.00    +0.116 A 
ATOM      6  O   UNL     1      -4.435   6.367  -8.517  0.00  0.00    -0.427 OA
ATOM      7  C   UNL     1      -4.533   6.870  -7.277  0.00  0.00    +0.344 A 
ATOM      8  O   UNL     1      -5.492   7.782  -7.003  0.00  0.00    -0.245 OA
ATOM      9  C   UNL     1      -3.385   4.900 -10.226  0.00  0.00    +0.075 C 
ATOM     10  C   UNL     1      -4.097   3.589 -10.371  0.00  0.00    +0.008 C 
ATOM     11  C   UNL     1      -3.408   2.347  -9.843  0.00  0.00    +0.000 C 
ATOM     12  C   UNL     1      -3.473   2.308  -8.306  0.00  0.00    +0.000 C 
ATOM     13  C   UNL     1      -2.054   2.627  -7.764  0.00  0.00    +0.005 C 
ATOM     14  C   UNL     1      -1.611   3.982  -8.317  0.00  0.00    +0.042 C 
BRANCH   3  15
ATOM     15  O   UNL     1      -1.869   5.176  -5.747  0.00  0.00    -0.506 OA
ATOM     16  H   UNL     1      -1.089   4.444  -6.003  0.00  0.00    +0.292 HD
ENDBRANCH   3  15
ENDBRANCH   1   2
BRANCH   1  21
ATOM     17  C   UNL     1      -1.566   5.506  -2.279  0.00  0.00    +0.075 A 
ATOM     18  C   UNL     1      -2.194   4.283  -2.077  0.00  0.00    +0.027 A 
ATOM     19  C   UNL     1      -3.337   3.971  -2.786  0.00  0.00    +0.002 A 
ATOM     20  C   UNL     1      -3.852   4.870  -3.702  0.00  0.00    +0.004 A 
ATOM     21  C   UNL     1      -3.227   6.086  -3.908  0.00  0.00    -0.038 A 
ATOM     22  C   UNL     1      -2.085   6.407  -3.200  0.00  0.00    +0.031 A 
BRANCH  17  23
ATOM     23  N   UNL     1      -0.411   5.827  -1.561  0.00  0.00    -0.096 NA
BRANCH  23  24
ATOM     24  S   UNL     1      -0.522   6.263   0.033  0.00  0.00    +0.107 S 
ATOM     25  O   UNL     1       0.798   6.568   0.463  0.00  0.00    -0.147 OA
ATOM     26  O   UNL     1      -1.322   5.277   0.670  0.00  0.00    -0.147 OA
BRANCH  24  31
ATOM     27  C   UNL     1      -3.521   8.922   0.212  0.00  0.00    +0.005 A 
ATOM     28  C   UNL     1      -2.811  10.113   0.199  0.00  0.00    +0.018 A 
ATOM     29  C   UNL     1      -1.431  10.073   0.130  0.00  0.00    +0.084 A 
ATOM     30  N   UNL     1      -0.791   8.921   0.088  0.00  0.00    -0.345 N 
ATOM     31  C   UNL     1      -1.433   7.770   0.098  0.00  0.00    +0.177 A 
ATOM     32  C   UNL     1      -2.814   7.731   0.160  0.00  0.00    +0.047 A 
ATOM     33  H   UNL     1       0.308   8.904   0.043  0.00  0.00    +0.167 HD
ENDBRANCH  24  31
ENDBRANCH  23  24
ENDBRANCH  17  23
ENDBRANCH   1  21
BRANCH   1  34
ATOM     34  C   UNL     1      -5.263   7.328  -4.587  0.00  0.00    +0.001 C 
ATOM     35  C   UNL     1      -5.709   8.787  -4.472  0.00  0.00    +0.005 C 
ATOM     36  C   UNL     1      -5.591   7.921  -3.215  0.00  0.00    +0.005 C 
ENDBRANCH   1  34
TORSDOF 7
