REMARK  Name = ZINC13432980
REMARK  14 active torsions:
REMARK  status: ('A' for Active; 'I' for Inactive)
REMARK    1  A    between atoms: C_1  and  C_2
REMARK    2  A    between atoms: C_3  and  C_31
REMARK    3  A    between atoms: C_4  and  O_30
REMARK    4  A    between atoms: C_5  and  C_10
REMARK    5  A    between atoms: C_6  and  O_9
REMARK    6  A    between atoms: C_10  and  C_11
REMARK    7  A    between atoms: C_12  and  C_13
REMARK    8  A    between atoms: C_12  and  C_14
REMARK    9  A    between atoms: C_14  and  C_16
REMARK   10  A    between atoms: C_14  and  O_29
REMARK   11  A    between atoms: C_16  and  C_17
REMARK   12  A    between atoms: C_17  and  C_28
REMARK   13  A    between atoms: C_18  and  C_27
REMARK   14  A    between atoms: C_24  and  C_26
REMARK                            x       y       z     vdW  Elec       q    Type
REMARK                         _______ _______ _______ _____ _____    ______ ____
ROOT
ATOM      1  C   UNL     1      -0.995   2.060   1.071  0.00  0.00    -0.021 C 
ATOM      2  C   UNL     1      -0.278   2.719   1.947  0.00  0.00    -0.048 C 
ATOM      3  C   UNL     1       1.196   2.928   1.711  0.00  0.00    +0.041 C 
ENDROOT
BRANCH   1   4
ATOM      4  C   UNL     1      -0.385   1.647  -0.243  0.00  0.00    +0.069 C 
BRANCH   4   9
ATOM      5  C   UNL     1      -3.745   3.485  -4.597  0.00  0.00    +0.046 C 
ATOM      6  C   UNL     1      -2.869   3.012  -3.466  0.00  0.00    -0.015 A 
ATOM      7  C   UNL     1      -1.840   3.834  -2.985  0.00  0.00    +0.060 A 
ATOM      8  C   UNL     1      -1.027   3.385  -1.929  0.00  0.00    +0.134 A 
ATOM      9  C   UNL     1      -1.252   2.137  -1.375  0.00  0.00    +0.041 A 
ATOM     10  C   UNL     1      -2.271   1.334  -1.867  0.00  0.00    +0.142 A 
ATOM     11  C   UNL     1      -3.079   1.783  -2.910  0.00  0.00    +0.086 A 
ATOM     12 CL   UNL     1      -4.354   0.770  -3.510  0.00  0.00    -0.079 Cl
BRANCH  10  13
ATOM     13  O   UNL     1      -2.485   0.108  -1.326  0.00  0.00    -0.505 OA
ATOM     14  H   UNL     1      -3.108   0.108  -0.587  0.00  0.00    +0.292 HD
ENDBRANCH  10  13
BRANCH   8  15
ATOM     15  O   UNL     1      -0.029   4.172  -1.456  0.00  0.00    -0.506 OA
ATOM     16  H   UNL     1       0.820   4.041  -1.901  0.00  0.00    +0.292 HD
ENDBRANCH   8  15
BRANCH   7  17
ATOM     17  C   UNL     1      -1.613   5.153  -3.580  0.00  0.00    +0.262 C 
ATOM     18  O   UNL     1      -0.666   5.823  -3.226  0.00  0.00    -0.296 OA
ENDBRANCH   7  17
ENDBRANCH   4   9
ENDBRANCH   1   4
BRANCH   2  19
ATOM     19  C   UNL     1      -0.927   3.268   3.192  0.00  0.00    +0.141 C 
BRANCH  19  20
ATOM     20  O   UNL     1      -0.232   2.785   4.343  0.00  0.00    -0.387 OA
ATOM     21  H   UNL     1       0.701   3.036   4.374  0.00  0.00    +0.210 HD
ENDBRANCH  19  20
BRANCH  19  22
ATOM     22  C   UNL     1      -0.869   4.797   3.165  0.00  0.00    +0.043 C 
BRANCH  22  23
ATOM     23  C   UNL     1      -1.680   5.359   4.334  0.00  0.00    -0.018 C 
ATOM     24  C   UNL     1      -3.091   4.769   4.305  0.00  0.00    -0.007 C 
ATOM     25  C   UNL     1      -3.937   5.392   5.417  0.00  0.00    +0.011 C 
ATOM     26  C   UNL     1      -3.341   5.021   6.779  0.00  0.00    +0.075 C 
ATOM     27  C   UNL     1      -1.885   5.434   6.796  0.00  0.00    +0.137 C 
ATOM     28  O   UNL     1      -1.443   6.104   7.698  0.00  0.00    -0.297 OA
ATOM     29  C   UNL     1      -0.999   4.986   5.655  0.00  0.00    +0.058 C 
ATOM     30  C   UNL     1       0.356   5.688   5.751  0.00  0.00    +0.016 C 
ATOM     31  C   UNL     1      -3.738   5.063   2.950  0.00  0.00    +0.008 C 
ATOM     32  C   UNL     1      -1.761   6.882   4.214  0.00  0.00    +0.012 C 
ENDBRANCH  22  23
ENDBRANCH  19  22
ENDBRANCH   2  19
TORSDOF 9
