REMARK  Name = ZINC47102966
REMARK  3 active torsions:
REMARK  status: ('A' for Active; 'I' for Inactive)
REMARK    1  A    between atoms: C_4  and  N_24
REMARK    2  A    between atoms: C_5  and  N_7
REMARK    3  A    between atoms: N_10  and  C_11
REMARK                            x       y       z     vdW  Elec       q    Type
REMARK                         _______ _______ _______ _____ _____    ______ ____
ROOT
ATOM      1  N   UNL     1       1.234  -2.082  -0.021  0.00  0.00    -0.268 N 
ATOM      2  C   UNL     1       0.083  -2.774   0.088  0.00  0.00    +0.304 C 
ATOM      3  O   UNL     1      -0.982  -2.186   0.102  0.00  0.00    -0.252 OA
ATOM      4  N   UNL     1       0.111  -4.118   0.181  0.00  0.00    -0.295 N 
ATOM      5  H   UNL     1       2.076  -2.554  -0.115  0.00  0.00    +0.156 HD
ATOM      6  H   UNL     1       0.960  -4.588   0.170  0.00  0.00    +0.151 HD
ENDROOT
BRANCH   4   7
ATOM      7  C   UNL     1      -1.141  -4.871   0.300  0.00  0.00    +0.092 C 
ATOM      8  C   UNL     1      -0.869  -6.209   0.991  0.00  0.00    +0.025 C 
ATOM      9  C   UNL     1      -2.181  -6.982   1.145  0.00  0.00    +0.021 C 
ATOM     10  C   UNL     1      -2.768  -7.264  -0.242  0.00  0.00    +0.108 C 
ATOM     11  N   UNL     1      -2.897  -5.993  -0.968  0.00  0.00    -0.298 N 
ATOM     12  C   UNL     1      -1.716  -5.129  -1.096  0.00  0.00    +0.130 C 
ATOM     13  C   UNL     1      -4.109  -5.618  -1.522  0.00  0.00    +0.218 A 
ATOM     14  N   UNL     1      -4.193  -4.469  -2.176  0.00  0.00    -0.223 NA
ATOM     15  C   UNL     1      -5.336  -4.081  -2.717  0.00  0.00    +0.116 A 
ATOM     16  C   UNL     1      -6.452  -4.892  -2.594  0.00  0.00    +0.039 A 
ATOM     17  C   UNL     1      -6.330  -6.088  -1.903  0.00  0.00    +0.116 A 
ATOM     18  N   UNL     1      -5.156  -6.419  -1.390  0.00  0.00    -0.223 NA
ENDBRANCH   4   7
BRANCH   1  23
ATOM     19  C   UNL     1       0.154   1.372   0.642  0.00  0.00    +0.002 A 
ATOM     20  C   UNL     1       1.173   2.089   0.043  0.00  0.00    +0.002 A 
ATOM     21  C   UNL     1       2.215   1.429  -0.580  0.00  0.00    +0.025 A 
ATOM     22  C   UNL     1       2.241   0.042  -0.604  0.00  0.00    +0.058 A 
ATOM     23  C   UNL     1       1.214  -0.681   0.000  0.00  0.00    +0.056 A 
ATOM     24  C   UNL     1       0.172  -0.010   0.623  0.00  0.00    +0.025 A 
BRANCH  22  25
ATOM     25  N   UNL     1       3.296  -0.630  -1.235  0.00  0.00    -0.270 N 
ATOM     26  C   UNL     1       3.304  -1.015  -2.651  0.00  0.00    +0.114 C 
ATOM     27  C   UNL     1       4.782  -1.312  -2.989  0.00  0.00    +0.029 C 
ATOM     28  C   UNL     1       5.351  -1.695  -1.604  0.00  0.00    +0.098 C 
ATOM     29  C   UNL     1       4.434  -0.999  -0.622  0.00  0.00    +0.220 C 
ATOM     30  O   UNL     1       4.688  -0.805   0.548  0.00  0.00    -0.275 OA
ENDBRANCH  22  25
ENDBRANCH   1  23
TORSDOF 3
