REMARK  Name = ZINC15946648
REMARK  10 active torsions:
REMARK  status: ('A' for Active; 'I' for Inactive)
REMARK    1  A    between atoms: C_1  and  C_2
REMARK    2  A    between atoms: C_8  and  C_9
REMARK    3  A    between atoms: C_8  and  N_63
REMARK    4  A    between atoms: N_11  and  C_12
REMARK    5  A    between atoms: C_13  and  C_20
REMARK    6  A    between atoms: N_22  and  C_23
REMARK    7  A    between atoms: C_26  and  O_31
REMARK    8  A    between atoms: C_28  and  O_29
REMARK    9  A    between atoms: O_29  and  C_30
REMARK   10  A    between atoms: O_31  and  C_32
REMARK                            x       y       z     vdW  Elec       q    Type
REMARK                         _______ _______ _______ _____ _____    ______ ____
ROOT
ATOM      1  C   UNL     1       0.903   7.699   0.244  0.00  0.00    +0.084 A 
ATOM      2  C   UNL     1       1.151   9.060   0.278  0.00  0.00    +0.069 A 
ATOM      3  C   UNL     1       2.545   9.493   0.366  0.00  0.00    -0.023 A 
ATOM      4  C   UNL     1       3.450   8.499   0.404  0.00  0.00    -0.004 A 
ATOM      5  S   UNL     1       2.488   7.008   0.335  0.00  0.00    -0.077 S 
ATOM      6  C   UNL     1       4.859   9.022   0.491  0.00  0.00    +0.043 C 
ATOM      7  C   UNL     1       4.750  10.504   0.070  0.00  0.00    +0.010 C 
ATOM      8  C   UNL     1       3.288  10.828   0.433  0.00  0.00    +0.037 C 
ENDROOT
BRANCH   1  11
ATOM      9  C   UNL     1      -0.362   5.700   0.142  0.00  0.00    +0.201 C 
ATOM     10  O   UNL     1       0.666   5.058   0.194  0.00  0.00    -0.278 OA
ATOM     11  N   UNL     1      -0.318   7.046   0.164  0.00  0.00    -0.281 N 
ATOM     12  H   UNL     1      -1.140   7.560   0.122  0.00  0.00    +0.155 HD
BRANCH   9  13
ATOM     13  C   UNL     1      -1.689   4.991   0.054  0.00  0.00    +0.019 C 
BRANCH  13  20
ATOM     14  C   UNL     1      -1.485   3.604   2.495  0.00  0.00    -0.013 C 
ATOM     15  C   UNL     1      -0.744   3.110   1.250  0.00  0.00    -0.071 C 
ATOM     16  C   UNL     1      -0.660   1.582   1.281  0.00  0.00    -0.016 C 
ATOM     17  C   UNL     1       0.063   1.091   0.024  0.00  0.00    -0.003 C 
ATOM     18  C   UNL     1      -0.684   1.591  -1.215  0.00  0.00    -0.019 C 
ATOM     19  C   UNL     1      -0.767   3.119  -1.173  0.00  0.00    -0.078 C 
ATOM     20  N   UNL     1      -1.496   3.526   0.048  0.00  0.00    +0.387 N 
ATOM     21  H   UNL     1      -2.415   3.069   0.055  0.00  0.00    -0.081 HD
ENDBRANCH  13  20
ENDBRANCH   9  13
ENDBRANCH   1  11
BRANCH   2  22
ATOM     22  C   UNL     1       0.055  10.033   0.226  0.00  0.00    +0.251 C 
ATOM     23  O   UNL     1      -0.462  10.423   1.257  0.00  0.00    -0.270 OA
ATOM     24  N   UNL     1      -0.380  10.496  -0.963  0.00  0.00    -0.278 N 
ATOM     25  H   UNL     1       0.074  10.236  -1.780  0.00  0.00    +0.155 HD
BRANCH  24  26
ATOM     26  C   UNL     1      -1.488  11.354  -1.019  0.00  0.00    +0.076 A 
ATOM     27  C   UNL     1      -1.705  12.275  -0.005  0.00  0.00    +0.030 A 
ATOM     28  C   UNL     1      -2.794  13.124  -0.062  0.00  0.00    +0.047 A 
ATOM     29  C   UNL     1      -3.678  13.049  -1.129  0.00  0.00    +0.124 A 
ATOM     30  C   UNL     1      -3.469  12.126  -2.142  0.00  0.00    +0.093 A 
ATOM     31  C   UNL     1      -2.376  11.278  -2.090  0.00  0.00    +0.145 A 
BRANCH  31  32
ATOM     32  O   UNL     1      -2.168  10.372  -3.083  0.00  0.00    -0.493 OA
ATOM     33  C   UNL     1      -3.119  10.350  -4.150  0.00  0.00    +0.277 C 
ENDBRANCH  31  32
BRANCH  29  34
ATOM     34  O   UNL     1      -4.752  13.882  -1.180  0.00  0.00    -0.495 OA
ATOM     35  C   UNL     1      -4.906  14.809  -0.103  0.00  0.00    +0.277 C 
ENDBRANCH  29  34
ENDBRANCH  24  26
ENDBRANCH   2  22
TORSDOF 7
