REMARK  Name = ZINC31688432
REMARK  9 active torsions:
REMARK  status: ('A' for Active; 'I' for Inactive)
REMARK    1  A    between atoms: C_1  and  C_2
REMARK    2  A    between atoms: C_2  and  C_4
REMARK    3  A    between atoms: C_2  and  N_12
REMARK    4  A    between atoms: C_7  and  S_10
REMARK    5  A    between atoms: S_10  and  C_11
REMARK    6  A    between atoms: C_13  and  C_15
REMARK    7  A    between atoms: C_18  and  S_21
REMARK    8  A    between atoms: S_21  and  N_24
REMARK    9  A    between atoms: N_24  and  C_25
REMARK                            x       y       z     vdW  Elec       q    Type
REMARK                         _______ _______ _______ _____ _____    ______ ____
ROOT
ATOM      1  C   UNL     1       0.583   2.014   0.344  0.00  0.00    +0.037 A 
ATOM      2  C   UNL     1       1.890   2.502   0.305  0.00  0.00    +0.015 A 
ATOM      3  C   UNL     1       2.948   1.624   0.197  0.00  0.00    +0.029 A 
ATOM      4  C   UNL     1       2.716   0.262   0.128  0.00  0.00    +0.109 A 
ATOM      5  C   UNL     1       1.423  -0.229   0.165  0.00  0.00    +0.029 A 
ATOM      6  C   UNL     1       0.356   0.638   0.273  0.00  0.00    +0.015 A 
ENDROOT
BRANCH   1   8
ATOM      7  N   UNL     1      -0.334   4.277   0.522  0.00  0.00    -0.305 N 
ATOM      8  C   UNL     1      -0.556   2.950   0.453  0.00  0.00    +0.245 C 
ATOM      9  O   UNL     1      -1.694   2.522   0.482  0.00  0.00    -0.270 OA
ATOM     10  H   UNL     1       0.696   4.664   0.496  0.00  0.00    +0.150 HD
BRANCH   7  12
ATOM     11  C   UNL     1      -2.003   5.516  -0.767  0.00  0.00    +0.033 C 
ATOM     12  C   UNL     1      -1.463   5.205   0.630  0.00  0.00    +0.100 C 
BRANCH  12  13
ATOM     13  C   UNL     1      -1.003   6.481   1.286  0.00  0.00    -0.027 A 
ATOM     14  C   UNL     1       0.233   7.013   0.969  0.00  0.00    +0.006 A 
ATOM     15  C   UNL     1       0.656   8.185   1.565  0.00  0.00    +0.015 A 
ATOM     16  C   UNL     1      -0.159   8.824   2.492  0.00  0.00    +0.008 A 
ATOM     17  C   UNL     1      -1.398   8.283   2.812  0.00  0.00    +0.015 A 
ATOM     18  C   UNL     1      -1.816   7.114   2.209  0.00  0.00    +0.006 A 
BRANCH  16  19
ATOM     19  S   UNL     1       0.379  10.316   3.260  0.00  0.00    -0.129 S 
ATOM     20  C   UNL     1       2.016  10.616   2.538  0.00  0.00    +0.090 C 
ENDBRANCH  16  19
ENDBRANCH  12  13
ENDBRANCH   7  12
ENDBRANCH   1   8
BRANCH   4  21
ATOM     21  S   UNL     1       4.074  -0.853  -0.010  0.00  0.00    +0.072 S 
ATOM     22  O   UNL     1       5.229  -0.140   0.408  0.00  0.00    -0.150 OA
ATOM     23  O   UNL     1       3.665  -2.068   0.605  0.00  0.00    -0.150 OA
BRANCH  21  24
ATOM     24  N   UNL     1       4.277  -1.182  -1.620  0.00  0.00    -0.216 N 
ATOM     25  H   UNL     1       4.136  -2.207  -1.994  0.00  0.00    +0.174 HD
BRANCH  24  26
ATOM     26  C   UNL     1       4.624  -0.162  -2.500  0.00  0.00    +0.051 A 
ATOM     27  C   UNL     1       3.688   0.366  -3.390  0.00  0.00    +0.042 A 
ATOM     28  C   UNL     1       4.072   1.380  -4.242  0.00  0.00    +0.084 A 
ATOM     29  N   UNL     1       5.307   1.844  -4.229  0.00  0.00    -0.367 N 
ATOM     30  C   UNL     1       6.223   1.367  -3.406  0.00  0.00    +0.084 A 
ATOM     31  C   UNL     1       5.919   0.356  -2.519  0.00  0.00    +0.042 A 
ATOM     32  H   UNL     1       5.599   2.650  -4.918  0.00  0.00    +0.165 HD
ENDBRANCH  24  26
ENDBRANCH  21  24
ENDBRANCH   4  21
TORSDOF 7
