REMARK  Name = ZINC39665663
REMARK  10 active torsions:
REMARK  status: ('A' for Active; 'I' for Inactive)
REMARK    1  A    between atoms: C_1  and  C_2
REMARK    2  A    between atoms: C_2  and  C_4
REMARK    3  A    between atoms: C_2  and  O_29
REMARK    4  A    between atoms: C_4  and  N_5
REMARK    5  A    between atoms: C_6  and  C_8
REMARK    6  A    between atoms: C_19  and  C_21
REMARK    7  A    between atoms: C_21  and  C_22
REMARK    8  A    between atoms: O_29  and  C_30
REMARK    9  A    between atoms: C_33  and  O_36
REMARK   10  A    between atoms: O_36  and  C_37
REMARK                            x       y       z     vdW  Elec       q    Type
REMARK                         _______ _______ _______ _____ _____    ______ ____
ROOT
ATOM      1  C   UNL     1      -1.895  -4.321   0.379  0.00  0.00    +0.100 C 
ATOM      2  C   UNL     1      -0.991  -4.843  -0.759  0.00  0.00    +0.121 C 
ATOM      3  N   UNL     1      -1.521  -6.192  -1.069  0.00  0.00    -0.300 N 
ATOM      4  C   UNL     1      -2.992  -6.040  -0.975  0.00  0.00    +0.115 C 
ATOM      5  C   UNL     1      -3.208  -5.108   0.234  0.00  0.00    -0.004 C 
ATOM      6  C   UNL     1      -4.369  -4.155  -0.037  0.00  0.00    -0.010 C 
ATOM      7  C   UNL     1      -5.672  -4.955  -0.120  0.00  0.00    -0.082 C 
ATOM      8  N   UNL     1      -5.887  -5.675   1.141  0.00  0.00    +0.379 N 
ATOM      9  C   UNL     1      -4.814  -6.656   1.347  0.00  0.00    -0.082 C 
ATOM     10  C   UNL     1      -3.475  -5.928   1.492  0.00  0.00    -0.010 C 
ATOM     11  C   UNL     1      -0.822  -7.305  -1.369  0.00  0.00    +0.220 C 
ATOM     12  O   UNL     1      -1.406  -8.343  -1.601  0.00  0.00    -0.275 OA
ATOM     13  H   UNL     1      -5.891  -5.018   1.906  0.00  0.00    -0.086 HD
ATOM     14  H   UNL     1      -6.775  -6.153   1.107  0.00  0.00    -0.086 HD
ENDROOT
BRANCH   1  16
ATOM     15  N   UNL     1      -2.412  -2.080   1.292  0.00  0.00    -0.312 N 
ATOM     16  C   UNL     1      -2.147  -2.844   0.213  0.00  0.00    +0.218 C 
ATOM     17  O   UNL     1      -2.112  -2.344  -0.891  0.00  0.00    -0.275 OA
ATOM     18  H   UNL     1      -2.440  -2.481   2.175  0.00  0.00    +0.149 HD
BRANCH  15  19
ATOM     19  C   UNL     1      -2.657  -0.645   1.130  0.00  0.00    +0.148 C 
BRANCH  19  21
ATOM     20  C   UNL     1      -3.308   1.454   2.318  0.00  0.00    +0.053 C 
ATOM     21  C   UNL     1      -2.930  -0.017   2.498  0.00  0.00    +0.187 C 
BRANCH  21  22
ATOM     22  O   UNL     1      -1.757  -0.112   3.308  0.00  0.00    -0.488 OA
BRANCH  22  23
ATOM     23  C   UNL     1      -1.933  -0.087   4.657  0.00  0.00    +0.121 A 
ATOM     24  C   UNL     1      -0.851  -0.282   5.502  0.00  0.00    +0.049 A 
ATOM     25  C   UNL     1      -1.031  -0.257   6.871  0.00  0.00    +0.049 A 
ATOM     26  C   UNL     1      -2.293  -0.036   7.401  0.00  0.00    +0.120 A 
ATOM     27  C   UNL     1      -3.375   0.160   6.556  0.00  0.00    +0.049 A 
ATOM     28  C   UNL     1      -3.195   0.139   5.186  0.00  0.00    +0.049 A 
BRANCH  26  29
ATOM     29  O   UNL     1      -2.470  -0.012   8.749  0.00  0.00    -0.495 OA
ATOM     30  C   UNL     1      -3.797   0.221   9.225  0.00  0.00    +0.277 C 
ENDBRANCH  26  29
ENDBRANCH  22  23
ENDBRANCH  21  22
ENDBRANCH  19  21
ENDBRANCH  15  19
ENDBRANCH   1  16
BRANCH  11  31
ATOM     31  C   UNL     1       0.683  -7.261  -1.415  0.00  0.00    +0.131 C 
BRANCH  31  32
ATOM     32  C   UNL     1       1.216  -8.626  -1.769  0.00  0.00    -0.039 A 
ATOM     33  C   UNL     1       1.498  -9.538  -0.770  0.00  0.00    +0.005 A 
ATOM     34  C   UNL     1       1.986 -10.790  -1.095  0.00  0.00    +0.020 A 
ATOM     35  C   UNL     1       2.192 -11.129  -2.420  0.00  0.00    +0.041 A 
ATOM     36  C   UNL     1       1.909 -10.215  -3.420  0.00  0.00    +0.020 A 
ATOM     37  C   UNL     1       1.415  -8.966  -3.094  0.00  0.00    +0.005 A 
ATOM     38 CL   UNL     1       2.806 -12.701  -2.829  0.00  0.00    -0.084 Cl
ENDBRANCH  31  32
ENDBRANCH  11  31
TORSDOF 8
