REMARK  Name = ZINC03012268
REMARK  6 active torsions:
REMARK  status: ('A' for Active; 'I' for Inactive)
REMARK    1  A    between atoms: C_1  and  C_2
REMARK    2  A    between atoms: C_5  and  N_9
REMARK    3  A    between atoms: C_6  and  C_8
REMARK    4  A    between atoms: C_10  and  C_12
REMARK    5  A    between atoms: C_17  and  C_32
REMARK    6  A    between atoms: C_20  and  C_23
REMARK                            x       y       z     vdW  Elec       q    Type
REMARK                         _______ _______ _______ _____ _____    ______ ____
ROOT
ATOM      1  C   UNL     1      -0.132  -6.312  -1.187  0.00  0.00    +0.149 A 
ATOM      2  C   UNL     1      -0.234  -7.136  -2.331  0.00  0.00    +0.078 A 
ATOM      3  C   UNL     1      -0.294  -8.414  -1.907  0.00  0.00    +0.119 A 
ATOM      4  N   UNL     1      -0.235  -8.413  -0.542  0.00  0.00    -0.238 N 
ATOM      5  N   UNL     1      -0.128  -7.090  -0.118  0.00  0.00    -0.164 NA
ATOM      6  C   UNL     1      -0.279  -9.630   0.274  0.00  0.00    +0.215 C 
ATOM      7  C   UNL     1      -0.870 -10.769  -0.564  0.00  0.00    +0.063 C 
ATOM      8  C   UNL     1      -0.153 -10.849  -1.916  0.00  0.00    +0.104 C 
ATOM      9  N   UNL     1      -0.397  -9.593  -2.652  0.00  0.00    -0.322 N 
ATOM     10  H   UNL     1      -0.616  -9.585  -3.597  0.00  0.00    +0.148 HD
ENDROOT
BRANCH   8  11
ATOM     11  C   UNL     1       1.327 -11.030  -1.694  0.00  0.00    -0.024 A 
ATOM     12  C   UNL     1       2.115  -9.940  -1.374  0.00  0.00    +0.009 A 
ATOM     13  C   UNL     1       3.473 -10.101  -1.169  0.00  0.00    +0.050 A 
ATOM     14  C   UNL     1       4.047 -11.357  -1.284  0.00  0.00    +0.166 A 
ATOM     15  C   UNL     1       3.253 -12.455  -1.606  0.00  0.00    +0.167 A 
ATOM     16  C   UNL     1       1.892 -12.287  -1.804  0.00  0.00    +0.055 A 
ATOM     17  O   UNL     1       4.045 -13.565  -1.659  0.00  0.00    -0.453 OA
ATOM     18  C   UNL     1       5.393 -13.071  -1.768  0.00  0.00    +0.466 C 
ATOM     19  O   UNL     1       5.336 -11.779  -1.135  0.00  0.00    -0.453 OA
ENDBRANCH   8  11
BRANCH   1  21
ATOM     20  N   UNL     1       0.059  -4.169  -0.021  0.00  0.00    -0.280 N 
ATOM     21  C   UNL     1      -0.040  -4.838  -1.187  0.00  0.00    +0.268 C 
ATOM     22  O   UNL     1      -0.054  -4.228  -2.238  0.00  0.00    -0.268 OA
ATOM     23  H   UNL     1       0.135  -4.658   0.814  0.00  0.00    +0.155 HD
BRANCH  20  28
ATOM     24  C   UNL     1       0.024   1.503   0.005  0.00  0.00    +0.044 C 
ATOM     25  C   UNL     1       0.034  -0.004  -0.002  0.00  0.00    -0.050 A 
ATOM     26  C   UNL     1       0.631  -0.685  -1.046  0.00  0.00    +0.005 A 
ATOM     27  C   UNL     1       0.642  -2.066  -1.055  0.00  0.00    +0.024 A 
ATOM     28  C   UNL     1       0.051  -2.771  -0.014  0.00  0.00    +0.037 A 
ATOM     29  C   UNL     1      -0.549  -2.083   1.033  0.00  0.00    -0.029 A 
ATOM     30  C   UNL     1      -0.551  -0.702   1.039  0.00  0.00    +0.008 A 
ATOM     31  C   UNL     1      -1.192  -2.843   2.164  0.00  0.00    +0.045 C 
ENDBRANCH  20  28
ENDBRANCH   1  21
BRANCH   6  32
ATOM     32  C   UNL     1      -1.155  -9.389   1.506  0.00  0.00    +0.412 C 
ATOM     33  F   UNL     1      -2.451  -9.055   1.099  0.00  0.00    -0.168 F 
ATOM     34  F   UNL     1      -1.195 -10.551   2.284  0.00  0.00    -0.168 F 
ATOM     35  F   UNL     1      -0.619  -8.341   2.261  0.00  0.00    -0.168 F 
ENDBRANCH   6  32
TORSDOF 4
