REMARK  Name = ZINC39578198
REMARK  9 active torsions:
REMARK  status: ('A' for Active; 'I' for Inactive)
REMARK    1  A    between atoms: C_1  and  C_2
REMARK    2  A    between atoms: C_2  and  C_4
REMARK    3  A    between atoms: C_2  and  N_12
REMARK    4  A    between atoms: C_13  and  C_15
REMARK    5  A    between atoms: C_15  and  N_16
REMARK    6  A    between atoms: C_19  and  C_23
REMARK    7  A    between atoms: C_19  and  C_24
REMARK    8  A    between atoms: C_27  and  O_30
REMARK    9  A    between atoms: O_30  and  C_31
REMARK                            x       y       z     vdW  Elec       q    Type
REMARK                         _______ _______ _______ _____ _____    ______ ____
ROOT
ATOM      1  N   UNL     1      -3.744  -1.371  -2.769  0.00  0.00    -0.215 N 
ATOM      2  C   UNL     1      -4.337  -0.391  -3.479  0.00  0.00    +0.251 C 
ATOM      3  O   UNL     1      -4.634   0.718  -3.089  0.00  0.00    -0.272 OA
ATOM      4  C   UNL     1      -4.554  -0.962  -4.866  0.00  0.00    +0.135 C 
ATOM      5  N   UNL     1      -4.007  -2.327  -4.768  0.00  0.00    -0.281 N 
ATOM      6  C   UNL     1      -3.554  -2.470  -3.509  0.00  0.00    +0.310 C 
ATOM      7  O   UNL     1      -3.034  -3.485  -3.090  0.00  0.00    -0.252 OA
ATOM      8  C   UNL     1      -6.046  -1.003  -5.204  0.00  0.00    +0.047 C 
ATOM      9  H   UNL     1      -3.977  -2.991  -5.474  0.00  0.00    +0.152 HD
ENDROOT
BRANCH   4  10
ATOM     10  C   UNL     1      -3.798  -0.161  -5.894  0.00  0.00    -0.015 A 
ATOM     11  C   UNL     1      -3.569   1.187  -5.686  0.00  0.00    +0.010 A 
ATOM     12  C   UNL     1      -2.876   1.924  -6.627  0.00  0.00    +0.046 A 
ATOM     13  C   UNL     1      -2.410   1.311  -7.782  0.00  0.00    +0.127 A 
ATOM     14  C   UNL     1      -2.642  -0.041  -7.987  0.00  0.00    +0.046 A 
ATOM     15  C   UNL     1      -3.330  -0.775  -7.041  0.00  0.00    +0.010 A 
BRANCH  13  16
ATOM     16  O   UNL     1      -1.730   2.034  -8.709  0.00  0.00    -0.434 OA
BRANCH  16  17
ATOM     17  C   UNL     1      -1.280   1.337  -9.873  0.00  0.00    +0.541 C 
ATOM     18  F   UNL     1      -0.416   0.304  -9.493  0.00  0.00    -0.166 F 
ATOM     19  F   UNL     1      -2.381   0.800 -10.549  0.00  0.00    -0.166 F 
ENDBRANCH  16  17
ENDBRANCH  13  16
ENDBRANCH   4  10
BRANCH   1  20
ATOM     20  C   UNL     1      -3.351  -1.248  -1.364  0.00  0.00    +0.213 C 
BRANCH  20  22
ATOM     21  N   UNL     1      -1.367  -0.520  -0.079  0.00  0.00    -0.307 N 
ATOM     22  C   UNL     1      -1.943  -0.717  -1.281  0.00  0.00    +0.231 C 
ATOM     23  O   UNL     1      -1.329  -0.466  -2.296  0.00  0.00    -0.274 OA
ATOM     24  H   UNL     1      -1.858  -0.720   0.733  0.00  0.00    +0.149 HD
BRANCH  21  26
ATOM     25  C   UNL     1      -0.028   1.526  -0.017  0.00  0.00    +0.033 C 
ATOM     26  C   UNL     1       0.002  -0.004   0.002  0.00  0.00    +0.102 C 
BRANCH  26  27
ATOM     27  C   UNL     1       0.643  -0.478   1.281  0.00  0.00    -0.009 A 
ATOM     28  C   UNL     1      -0.141  -0.765   2.382  0.00  0.00    +0.008 A 
ATOM     29  C   UNL     1       0.446  -1.200   3.555  0.00  0.00    +0.020 A 
ATOM     30  C   UNL     1       1.820  -1.350   3.627  0.00  0.00    +0.042 A 
ATOM     31  C   UNL     1       2.606  -1.063   2.525  0.00  0.00    +0.040 A 
ATOM     32  C   UNL     1       2.016  -0.632   1.350  0.00  0.00    +0.047 A 
ATOM     33 CL   UNL     1       3.001  -0.278  -0.036  0.00  0.00    -0.083 Cl
ATOM     34 CL   UNL     1       2.558  -1.896   5.101  0.00  0.00    -0.083 Cl
ENDBRANCH  26  27
ENDBRANCH  21  26
ENDBRANCH  20  22
ENDBRANCH   1  20
TORSDOF 7
