REMARK  Name = ZINC13685014
REMARK  6 active torsions:
REMARK  status: ('A' for Active; 'I' for Inactive)
REMARK    1  A    between atoms: C_4  and  N_16
REMARK    2  A    between atoms: C_5  and  C_7
REMARK    3  A    between atoms: N_9  and  C_10
REMARK    4  A    between atoms: C_17  and  C_19
REMARK    5  A    between atoms: N_22  and  S_25
REMARK    6  A    between atoms: S_25  and  C_28
REMARK                            x       y       z     vdW  Elec       q    Type
REMARK                         _______ _______ _______ _____ _____    ______ ____
ROOT
ATOM      1  N   UNL     1       0.005  -2.749  -0.194  0.00  0.00    -0.285 N 
ATOM      2  C   UNL     1       0.061  -4.080  -0.399  0.00  0.00    +0.220 C 
ATOM      3  O   UNL     1      -0.960  -4.709  -0.580  0.00  0.00    -0.275 OA
ATOM      4  H   UNL     1       0.825  -2.235  -0.120  0.00  0.00    +0.155 HD
ENDROOT
BRANCH   1   8
ATOM      5  C   UNL     1      -3.689  -0.839   0.116  0.00  0.00    +0.001 A 
ATOM      6  C   UNL     1      -3.482  -1.807  -0.855  0.00  0.00    +0.002 A 
ATOM      7  C   UNL     1      -2.260  -2.441  -0.959  0.00  0.00    +0.024 A 
ATOM      8  C   UNL     1      -1.228  -2.111  -0.090  0.00  0.00    +0.046 A 
ATOM      9  C   UNL     1      -1.435  -1.132   0.893  0.00  0.00    +0.058 A 
ATOM     10  C   UNL     1      -2.678  -0.503   0.990  0.00  0.00    +0.015 A 
BRANCH   9  11
ATOM     11  C   UNL     1      -0.347  -0.773   1.823  0.00  0.00    +0.246 C 
ATOM     12  O   UNL     1       0.730  -1.331   1.742  0.00  0.00    -0.270 OA
ATOM     13  N   UNL     1      -0.548   0.173   2.761  0.00  0.00    -0.308 N 
ATOM     14  H   UNL     1      -1.406   0.621   2.823  0.00  0.00    +0.149 HD
BRANCH  13  15
ATOM     15  C   UNL     1       0.532   0.530   3.684  0.00  0.00    +0.073 C 
ATOM     16  C   UNL     1       0.531  -0.438   4.869  0.00  0.00    +0.022 C 
ATOM     17  C   UNL     1       1.659  -0.066   5.833  0.00  0.00    +0.002 C 
ATOM     18  C   UNL     1       1.446   1.362   6.341  0.00  0.00    +0.000 C 
ATOM     19  C   UNL     1       1.447   2.330   5.156  0.00  0.00    +0.002 C 
ATOM     20  C   UNL     1       0.319   1.957   4.192  0.00  0.00    +0.022 C 
ENDBRANCH  13  15
ENDBRANCH   9  11
ENDBRANCH   1   8
BRANCH   2  21
ATOM     21  C   UNL     1       1.391  -4.787  -0.401  0.00  0.00    +0.078 C 
ATOM     22  C   UNL     1       2.276  -4.205  -1.506  0.00  0.00    +0.030 C 
ATOM     23  C   UNL     1       3.640  -4.902  -1.483  0.00  0.00    +0.110 C 
ATOM     24  N   UNL     1       3.431  -6.353  -1.580  0.00  0.00    -0.177 NA
ATOM     25  C   UNL     1       2.526  -7.002  -0.621  0.00  0.00    +0.110 C 
ATOM     26  C   UNL     1       1.175  -6.281  -0.653  0.00  0.00    +0.030 C 
BRANCH  24  27
ATOM     27  S   UNL     1       4.201  -7.241  -2.746  0.00  0.00    +0.061 S 
ATOM     28  O   UNL     1       5.361  -6.508  -3.115  0.00  0.00    -0.153 OA
ATOM     29  O   UNL     1       4.264  -8.577  -2.265  0.00  0.00    -0.153 OA
BRANCH  27  30
ATOM     30  C   UNL     1       3.151  -7.265  -4.161  0.00  0.00    +0.106 A 
ATOM     31  C   UNL     1       2.215  -8.272  -4.310  0.00  0.00    +0.030 A 
ATOM     32  C   UNL     1       1.387  -8.288  -5.416  0.00  0.00    +0.022 A 
ATOM     33  C   UNL     1       1.502  -7.303  -6.381  0.00  0.00    +0.041 A 
ATOM     34  C   UNL     1       2.442  -6.299  -6.234  0.00  0.00    +0.022 A 
ATOM     35  C   UNL     1       3.266  -6.280  -5.124  0.00  0.00    +0.030 A 
ATOM     36 CL   UNL     1       0.467  -7.326  -7.774  0.00  0.00    -0.084 Cl
ENDBRANCH  27  30
ENDBRANCH  24  27
ENDBRANCH   2  21
TORSDOF 6
