REMARK  Name = ZINC46841262
REMARK  8 active torsions:
REMARK  status: ('A' for Active; 'I' for Inactive)
REMARK    1  A    between atoms: C_1  and  C_2
REMARK    2  A    between atoms: C_7  and  C_10
REMARK    3  A    between atoms: C_14  and  C_17
REMARK    4  A    between atoms: C_17  and  N_18
REMARK    5  A    between atoms: C_19  and  C_21
REMARK    6  A    between atoms: C_21  and  C_22
REMARK    7  A    between atoms: C_25  and  C_27
REMARK    8  A    between atoms: C_30  and  C_33
REMARK                            x       y       z     vdW  Elec       q    Type
REMARK                         _______ _______ _______ _____ _____    ______ ____
ROOT
ATOM      1  N   UNL     1      -3.369  -5.796  -4.369  0.00  0.00    -0.311 N 
ATOM      2  C   UNL     1      -3.827  -6.645  -5.310  0.00  0.00    +0.219 C 
ATOM      3  O   UNL     1      -4.914  -7.167  -5.179  0.00  0.00    -0.275 OA
ATOM      4  H   UNL     1      -2.500  -5.378  -4.474  0.00  0.00    +0.149 HD
ENDROOT
BRANCH   1   5
ATOM      5  C   UNL     1      -4.185  -5.503  -3.188  0.00  0.00    +0.141 C 
BRANCH   5  17
ATOM      6  C   UNL     1      -0.045  -2.168   3.728  0.00  0.00    +0.039 C 
ATOM      7  C   UNL     1      -0.987  -1.773   2.589  0.00  0.00    +0.133 C 
ATOM      8  C   UNL     1      -0.596  -2.529   1.315  0.00  0.00    +0.137 C 
ATOM      9  N   UNL     1      -1.389  -1.995   0.196  0.00  0.00    -0.312 N 
ATOM     10  C   UNL     1      -1.418  -0.537   0.002  0.00  0.00    +0.137 C 
ATOM     11  C   UNL     1      -1.770   0.122   1.341  0.00  0.00    +0.133 C 
ATOM     12  O   UNL     1      -0.886  -0.366   2.353  0.00  0.00    -0.371 OA
ATOM     13  C   UNL     1      -3.214  -0.218   1.714  0.00  0.00    +0.039 C 
ATOM     14  C   UNL     1      -2.091  -2.844  -0.652  0.00  0.00    +0.099 A 
ATOM     15  C   UNL     1      -2.927  -2.308  -1.627  0.00  0.00    +0.042 A 
ATOM     16  C   UNL     1      -3.619  -3.164  -2.464  0.00  0.00    +0.010 A 
ATOM     17  C   UNL     1      -3.451  -4.533  -2.299  0.00  0.00    -0.014 A 
ATOM     18  C   UNL     1      -2.604  -4.995  -1.311  0.00  0.00    +0.089 A 
ATOM     19  N   UNL     1      -1.953  -4.155  -0.530  0.00  0.00    -0.349 N 
ATOM     20  H   UNL     1      -1.361  -4.507   0.154  0.00  0.00    +0.167 HD
ENDBRANCH   5  17
ENDBRANCH   1   5
BRANCH   2  21
ATOM     21  C   UNL     1      -2.989  -6.946  -6.526  0.00  0.00    +0.151 C 
BRANCH  21  22
ATOM     22  C   UNL     1      -3.723  -7.916  -7.415  0.00  0.00    +0.058 A 
ATOM     23  C   UNL     1      -3.946  -7.609  -8.720  0.00  0.00    +0.071 A 
ATOM     24  S   UNL     1      -4.822  -9.071  -9.259  0.00  0.00    -0.075 S 
ATOM     25  C   UNL     1      -4.797  -9.930  -7.691  0.00  0.00    +0.109 A 
ATOM     26  N   UNL     1      -4.144  -9.061  -6.932  0.00  0.00    -0.243 NA
BRANCH  25  27
ATOM     27  C   UNL     1      -5.350 -11.255  -7.337  0.00  0.00    +0.007 A 
ATOM     28  C   UNL     1      -5.224 -11.742  -6.036  0.00  0.00    +0.011 A 
ATOM     29  C   UNL     1      -5.743 -12.979  -5.712  0.00  0.00    +0.013 A 
ATOM     30  C   UNL     1      -6.386 -13.736  -6.675  0.00  0.00    +0.055 A 
ATOM     31  C   UNL     1      -6.514 -13.259  -7.968  0.00  0.00    +0.013 A 
ATOM     32  C   UNL     1      -6.005 -12.021  -8.302  0.00  0.00    +0.011 A 
BRANCH  30  33
ATOM     33  C   UNL     1      -6.949 -15.087  -6.315  0.00  0.00    +0.417 C 
ATOM     34  F   UNL     1      -8.271 -14.940  -5.881  0.00  0.00    -0.166 F 
ATOM     35  F   UNL     1      -6.917 -15.920  -7.438  0.00  0.00    -0.166 F 
ATOM     36  F   UNL     1      -6.183 -15.654  -5.291  0.00  0.00    -0.166 F 
ENDBRANCH  30  33
ENDBRANCH  25  27
ENDBRANCH  21  22
ENDBRANCH   2  21
TORSDOF 6
