REMARK  Name = ZINC40399796
REMARK  10 active torsions:
REMARK  status: ('A' for Active; 'I' for Inactive)
REMARK    1  A    between atoms: C_1  and  C_2
REMARK    2  A    between atoms: C_2  and  C_3
REMARK    3  A    between atoms: C_3  and  C_5
REMARK    4  A    between atoms: C_3  and  C_6
REMARK    5  A    between atoms: N_10  and  C_28
REMARK    6  A    between atoms: N_15  and  C_18
REMARK    7  A    between atoms: C_18  and  N_20
REMARK    8  A    between atoms: N_20  and  C_21
REMARK    9  A    between atoms: C_28  and  C_29
REMARK   10  A    between atoms: C_33  and  C_35
REMARK                            x       y       z     vdW  Elec       q    Type
REMARK                         _______ _______ _______ _____ _____    ______ ____
ROOT
ATOM      1  C   UNL     1      -0.889  -2.155  -0.257  0.00  0.00    +0.022 C 
ATOM      2  C   UNL     1      -0.264  -2.947   0.872  0.00  0.00    +0.201 C 
ATOM      3  O   UNL     1       0.905  -2.920   1.194  0.00  0.00    -0.277 OA
ATOM      4  N   UNL     1      -1.227  -3.687   1.459  0.00  0.00    -0.309 N 
ATOM      5  C   UNL     1      -2.506  -3.451   0.783  0.00  0.00    +0.006 C 
ATOM      6  N   UNL     1      -2.347  -2.201   0.007  0.00  0.00    +0.401 N 
ATOM      7  C   UNL     1      -3.624  -3.284   1.810  0.00  0.00    +0.025 C 
ATOM      8  C   UNL     1      -3.756  -4.571   2.632  0.00  0.00    +0.107 C 
ATOM      9  N   UNL     1      -3.933  -5.703   1.712  0.00  0.00    -0.312 N 
ATOM     10  C   UNL     1      -2.948  -5.905   0.641  0.00  0.00    +0.107 C 
ATOM     11  C   UNL     1      -2.823  -4.607  -0.165  0.00  0.00    +0.025 C 
ATOM     12  H   UNL     1      -2.636  -1.404   0.554  0.00  0.00    -0.082 HD
ATOM     13  H   UNL     1      -2.864  -2.249  -0.858  0.00  0.00    -0.082 HD
ENDROOT
BRANCH   1  14
ATOM     14  C   UNL     1      -0.389  -0.709  -0.233  0.00  0.00    -0.020 C 
ATOM     15  C   UNL     1      -0.589  -0.123   1.166  0.00  0.00    +0.006 C 
BRANCH  14  17
ATOM     16  C   UNL     1       1.569   0.775  -0.690  0.00  0.00    +0.004 C 
ATOM     17  C   UNL     1       1.098  -0.678  -0.592  0.00  0.00    -0.001 C 
ENDBRANCH  14  17
ENDBRANCH   1  14
BRANCH   9  18
ATOM     18  C   UNL     1      -4.980  -6.541   1.849  0.00  0.00    +0.137 C 
ATOM     19  S   UNL     1      -6.188  -6.218   3.018  0.00  0.00    -0.018 S 
BRANCH  18  20
ATOM     20  N   UNL     1      -5.075  -7.634   1.066  0.00  0.00    -0.297 N 
ATOM     21  H   UNL     1      -5.669  -7.631   0.299  0.00  0.00    +0.154 HD
BRANCH  20  22
ATOM     22  C   UNL     1      -4.316  -8.773   1.359  0.00  0.00    +0.033 A 
ATOM     23  C   UNL     1      -3.394  -8.746   2.397  0.00  0.00    +0.026 A 
ATOM     24  C   UNL     1      -2.646  -9.871   2.684  0.00  0.00    +0.040 A 
ATOM     25  C   UNL     1      -2.816 -11.026   1.938  0.00  0.00    +0.124 A 
ATOM     26  C   UNL     1      -3.734 -11.055   0.903  0.00  0.00    +0.040 A 
ATOM     27  C   UNL     1      -4.489  -9.934   0.616  0.00  0.00    +0.026 A 
ATOM     28  F   UNL     1      -2.083 -12.125   2.221  0.00  0.00    -0.205 F 
ENDBRANCH  20  22
ENDBRANCH  18  20
ENDBRANCH   9  18
BRANCH   4  29
ATOM     29  C   UNL     1      -1.026  -4.587   2.597  0.00  0.00    +0.141 C 
BRANCH  29  30
ATOM     30  C   UNL     1      -0.927  -3.780   3.865  0.00  0.00    -0.030 A 
ATOM     31  C   UNL     1       0.284  -3.226   4.240  0.00  0.00    +0.005 A 
ATOM     32  C   UNL     1       0.374  -2.485   5.403  0.00  0.00    +0.001 A 
ATOM     33  C   UNL     1      -0.746  -2.297   6.192  0.00  0.00    +0.012 A 
ATOM     34  C   UNL     1      -1.956  -2.849   5.817  0.00  0.00    +0.055 A 
ATOM     35  C   UNL     1      -2.047  -3.587   4.651  0.00  0.00    +0.017 A 
BRANCH  34  36
ATOM     36  C   UNL     1      -3.176  -2.644   6.677  0.00  0.00    +0.417 C 
ATOM     37  F   UNL     1      -2.837  -1.869   7.791  0.00  0.00    -0.166 F 
ATOM     38  F   UNL     1      -4.164  -1.988   5.935  0.00  0.00    -0.166 F 
ATOM     39  F   UNL     1      -3.660  -3.886   7.103  0.00  0.00    -0.166 F 
ENDBRANCH  34  36
ENDBRANCH  29  30
ENDBRANCH   4  29
TORSDOF 8
