REMARK  Name = ZINC30975788
REMARK  10 active torsions:
REMARK  status: ('A' for Active; 'I' for Inactive)
REMARK    1  A    between atoms: C_1  and  C_2
REMARK    2  A    between atoms: C_5  and  C_8
REMARK    3  A    between atoms: C_10  and  C_13
REMARK    4  A    between atoms: C_13  and  N_14
REMARK    5  A    between atoms: C_17  and  C_20
REMARK    6  A    between atoms: N_22  and  C_23
REMARK    7  A    between atoms: C_28  and  C_29
REMARK    8  A    between atoms: N_31  and  C_32
REMARK    9  A    between atoms: C_32  and  C_34
REMARK   10  A    between atoms: C_32  and  C_35
REMARK                            x       y       z     vdW  Elec       q    Type
REMARK                         _______ _______ _______ _____ _____    ______ ____
ROOT
ATOM      1  C   UNL     1      -0.021   4.114   0.116  0.00  0.00    +0.220 C 
ATOM      2  O   UNL     1      -1.045   3.491   0.300  0.00  0.00    -0.275 OA
ATOM      3  N   UNL     1       1.154   3.462   0.006  0.00  0.00    -0.285 N 
ATOM      4  H   UNL     1       2.092   4.030  -0.075  0.00  0.00    +0.155 HD
ENDROOT
BRANCH   1   8
ATOM      5  N   UNL     1      -0.695   8.171   1.198  0.00  0.00    +0.386 N 
ATOM      6  C   UNL     1      -1.532   7.631   0.120  0.00  0.00    -0.077 C 
ATOM      7  C   UNL     1      -1.505   6.101   0.168  0.00  0.00    -0.006 C 
ATOM      8  C   UNL     1      -0.062   5.616   0.009  0.00  0.00    +0.072 C 
ATOM      9  C   UNL     1       0.800   6.231   1.116  0.00  0.00    -0.006 C 
ATOM     10  C   UNL     1       0.706   7.757   1.040  0.00  0.00    -0.077 C 
ATOM     11  H   UNL     1      -1.062   7.755   2.148  0.00  0.00    -0.081 HD
BRANCH   5  12
ATOM     12  C   UNL     1      -0.806   9.634   1.269  0.00  0.00    +0.022 C 
BRANCH  12  15
ATOM     13  C   UNL     1       1.264  10.849   3.944  0.00  0.00    +0.202 A 
ATOM     14  N   UNL     1       1.119  10.478   2.652  0.00  0.00    -0.193 NA
ATOM     15  C   UNL     1      -0.137  10.128   2.526  0.00  0.00    +0.211 A 
ATOM     16  O   UNL     1      -0.714  10.297   3.719  0.00  0.00    -0.340 OA
ATOM     17  N   UNL     1       0.100  10.704   4.521  0.00  0.00    -0.056 NA
BRANCH  13  22
ATOM     18  C   UNL     1       6.108  12.714   6.442  0.00  0.00    +0.044 C 
ATOM     19  C   UNL     1       4.840  12.226   5.788  0.00  0.00    -0.050 A 
ATOM     20  C   UNL     1       3.677  12.126   6.530  0.00  0.00    +0.004 A 
ATOM     21  C   UNL     1       2.514  11.680   5.936  0.00  0.00    +0.012 A 
ATOM     22  C   UNL     1       2.512  11.330   4.588  0.00  0.00    +0.022 A 
ATOM     23  C   UNL     1       3.688  11.429   3.846  0.00  0.00    +0.012 A 
ATOM     24  C   UNL     1       4.845  11.880   4.449  0.00  0.00    +0.004 A 
ENDBRANCH  13  22
ENDBRANCH  12  15
ENDBRANCH   5  12
ENDBRANCH   1   8
BRANCH   3  25
ATOM     25  C   UNL     1       1.179   2.069  -0.006  0.00  0.00    +0.046 A 
ATOM     26  C   UNL     1       0.150   1.358  -0.609  0.00  0.00    +0.024 A 
ATOM     27  C   UNL     1       0.178  -0.022  -0.620  0.00  0.00    +0.002 A 
ATOM     28  C   UNL     1       1.229  -0.707  -0.032  0.00  0.00    +0.001 A 
ATOM     29  C   UNL     1       2.259  -0.018   0.571  0.00  0.00    +0.015 A 
ATOM     30  C   UNL     1       2.244   1.379   0.590  0.00  0.00    +0.058 A 
BRANCH  30  31
ATOM     31  C   UNL     1       3.344   2.123   1.234  0.00  0.00    +0.246 C 
ATOM     32  O   UNL     1       3.375   3.337   1.171  0.00  0.00    -0.270 OA
ATOM     33  N   UNL     1       4.313   1.458   1.893  0.00  0.00    -0.305 N 
ATOM     34  H   UNL     1       4.284   0.359   1.951  0.00  0.00    +0.150 HD
BRANCH  33  35
ATOM     35  C   UNL     1       5.404   2.197   2.533  0.00  0.00    +0.100 C 
ATOM     36  C   UNL     1       4.967   2.646   3.928  0.00  0.00    +0.033 C 
BRANCH  35  37
ATOM     37  C   UNL     1       6.614   1.306   2.648  0.00  0.00    -0.027 A 
ATOM     38  C   UNL     1       6.463  -0.023   2.996  0.00  0.00    +0.005 A 
ATOM     39  C   UNL     1       7.573  -0.841   3.097  0.00  0.00    +0.000 A 
ATOM     40  C   UNL     1       8.834  -0.328   2.859  0.00  0.00    +0.000 A 
ATOM     41  C   UNL     1       8.986   1.002   2.516  0.00  0.00    +0.000 A 
ATOM     42  C   UNL     1       7.875   1.819   2.410  0.00  0.00    +0.005 A 
ENDBRANCH  35  37
ENDBRANCH  33  35
ENDBRANCH  30  31
ENDBRANCH   3  25
TORSDOF 8
