REMARK  Name = ZINC12494018
REMARK  14 active torsions:
REMARK  status: ('A' for Active; 'I' for Inactive)
REMARK    1  A    between atoms: C_1  and  C_2
REMARK    2  A    between atoms: C_4  and  O_12
REMARK    3  A    between atoms: C_5  and  C_9
REMARK    4  A    between atoms: C_9  and  C_10
REMARK    5  A    between atoms: C_9  and  C_11
REMARK    6  A    between atoms: O_12  and  C_13
REMARK    7  A    between atoms: C_13  and  C_14
REMARK    8  A    between atoms: N_16  and  N_17
REMARK    9  A    between atoms: C_18  and  C_20
REMARK   10  A    between atoms: C_23  and  N_26
REMARK   11  A    between atoms: C_27  and  C_29
REMARK   12  A    between atoms: C_29  and  C_30
REMARK   13  A    between atoms: C_30  and  C_31
REMARK   14  A    between atoms: C_30  and  C_32
REMARK                            x       y       z     vdW  Elec       q    Type
REMARK                         _______ _______ _______ _____ _____    ______ ____
ROOT
ATOM      1  N   UNL     1      -0.030  -3.228  -7.127  0.00  0.00    -0.230 N 
ATOM      2  C   UNL     1      -0.033  -2.703  -8.368  0.00  0.00    +0.260 C 
ATOM      3  O   UNL     1      -0.047  -1.497  -8.518  0.00  0.00    -0.269 OA
ATOM      4  H   UNL     1      -0.018  -4.191  -7.008  0.00  0.00    +0.173 HD
ENDROOT
BRANCH   2   5
ATOM      5  C   UNL     1      -0.019  -3.593  -9.546  0.00  0.00    +0.038 A 
ATOM      6  C   UNL     1      -0.008  -4.980  -9.376  0.00  0.00    +0.015 A 
ATOM      7  C   UNL     1       0.004  -5.807 -10.476  0.00  0.00    +0.024 A 
ATOM      8  C   UNL     1       0.006  -5.263 -11.757  0.00  0.00    +0.033 A 
ATOM      9  C   UNL     1      -0.004  -3.883 -11.930  0.00  0.00    +0.024 A 
ATOM     10  C   UNL     1      -0.022  -3.050 -10.834  0.00  0.00    +0.015 A 
BRANCH   8  11
ATOM     11  N   UNL     1       0.019  -6.104 -12.869  0.00  0.00    -0.285 N 
ATOM     12  C   UNL     1       0.700  -7.266 -12.828  0.00  0.00    +0.217 C 
ATOM     13  O   UNL     1       1.233  -7.621 -11.798  0.00  0.00    -0.275 OA
ATOM     14  H   UNL     1      -0.463  -5.852 -13.673  0.00  0.00    +0.155 HD
BRANCH  12  15
ATOM     15  C   UNL     1       0.800  -8.125 -14.062  0.00  0.00    +0.099 C 
BRANCH  15  16
ATOM     16  C   UNL     1       1.621  -9.377 -13.747  0.00  0.00    -0.008 C 
ATOM     17  C   UNL     1       1.617 -10.308 -14.961  0.00  0.00    +0.008 C 
ATOM     18  C   UNL     1       3.059  -8.975 -13.417  0.00  0.00    +0.008 C 
ENDBRANCH  15  16
ENDBRANCH  12  15
ENDBRANCH   8  11
ENDBRANCH   2   5
BRANCH   1  21
ATOM     19  C   UNL     1      -0.040  -2.909  -4.768  0.00  0.00    +0.267 C 
ATOM     20  O   UNL     1      -0.026  -4.112  -4.619  0.00  0.00    -0.271 OA
ATOM     21  N   UNL     1      -0.043  -2.384  -6.010  0.00  0.00    -0.231 N 
ATOM     22  H   UNL     1      -0.054  -1.421  -6.129  0.00  0.00    +0.173 HD
BRANCH  19  23
ATOM     23  C   UNL     1      -0.054  -2.000  -3.566  0.00  0.00    +0.326 C 
BRANCH  23  24
ATOM     24  O   UNL     1      -0.048  -2.788  -2.373  0.00  0.00    -0.482 OA
BRANCH  24  28
ATOM     25  C   UNL     1      -0.105   1.455   0.038  0.00  0.00    +0.045 C 
ATOM     26  C   UNL     1      -0.087  -0.051   0.024  0.00  0.00    -0.033 A 
ATOM     27  C   UNL     1      -0.075  -0.731  -1.179  0.00  0.00    +0.050 A 
ATOM     28  C   UNL     1      -0.059  -2.118  -1.191  0.00  0.00    +0.125 A 
ATOM     29  C   UNL     1      -0.054  -2.820   0.005  0.00  0.00    -0.002 A 
ATOM     30  C   UNL     1      -0.066  -2.137   1.206  0.00  0.00    +0.023 A 
ATOM     31  C   UNL     1      -0.077  -0.753   1.216  0.00  0.00    +0.021 A 
ATOM     32 BR   UNL     1      -0.086   0.179   2.861  0.00  0.00    -0.050 Br
BRANCH  29  33
ATOM     33  C   UNL     1      -0.036  -4.327  -0.005  0.00  0.00    +0.016 C 
ATOM     34  C   UNL     1       1.217  -4.827   0.717  0.00  0.00    +0.012 C 
ATOM     35  C   UNL     1      -1.281  -4.856   0.710  0.00  0.00    +0.012 C 
ENDBRANCH  29  33
ENDBRANCH  24  28
ENDBRANCH  23  24
ENDBRANCH  19  23
ENDBRANCH   1  21
TORSDOF 9
