REMARK  Name = ZINC65601422
REMARK  10 active torsions:
REMARK  status: ('A' for Active; 'I' for Inactive)
REMARK    1  A    between atoms: C_1  and  C_2
REMARK    2  A    between atoms: N_5  and  C_8
REMARK    3  A    between atoms: C_8  and  C_9
REMARK    4  A    between atoms: C_8  and  C_10
REMARK    5  A    between atoms: C_10  and  N_11
REMARK    6  A    between atoms: C_12  and  C_14
REMARK    7  A    between atoms: N_16  and  C_17
REMARK    8  A    between atoms: C_20  and  C_23
REMARK    9  A    between atoms: N_25  and  C_26
REMARK   10  A    between atoms: C_26  and  C_27
REMARK                            x       y       z     vdW  Elec       q    Type
REMARK                         _______ _______ _______ _____ _____    ______ ____
ROOT
ATOM      1  C   UNL     1       1.968  -3.666   4.851  0.00  0.00    +0.303 C 
ATOM      2  O   UNL     1       0.874  -3.142   4.837  0.00  0.00    -0.265 OA
ATOM      3  N   UNL     1       2.607  -3.860   6.022  0.00  0.00    -0.278 N 
ATOM      4  H   UNL     1       3.448  -4.342   6.041  0.00  0.00    +0.155 HD
ENDROOT
BRANCH   3   5
ATOM      5  C   UNL     1       2.059  -3.368   7.204  0.00  0.00    +0.034 A 
ATOM      6  C   UNL     1       0.679  -3.369   7.383  0.00  0.00    +0.024 A 
ATOM      7  C   UNL     1       0.135  -2.883   8.550  0.00  0.00    +0.015 A 
ATOM      8  C   UNL     1       0.970  -2.390   9.557  0.00  0.00    +0.037 A 
ATOM      9  C   UNL     1       2.355  -2.391   9.374  0.00  0.00    +0.015 A 
ATOM     10  C   UNL     1       2.894  -2.882   8.207  0.00  0.00    +0.024 A 
BRANCH   8  11
ATOM     11  C   UNL     1       0.389  -1.868  10.809  0.00  0.00    +0.244 C 
ATOM     12  O   UNL     1      -0.817  -1.867  10.967  0.00  0.00    -0.270 OA
ATOM     13  N   UNL     1       1.196  -1.392  11.779  0.00  0.00    -0.308 N 
ATOM     14  H   UNL     1       2.157  -1.393  11.654  0.00  0.00    +0.149 HD
BRANCH  13  15
ATOM     15  C   UNL     1       0.619  -0.874  13.022  0.00  0.00    +0.131 C 
BRANCH  15  16
ATOM     16  C   UNL     1       1.726  -0.408  13.933  0.00  0.00    -0.016 C 
ATOM     17  C   UNL     1       1.718   0.816  14.399  0.00  0.00    +0.005 C 
ENDBRANCH  15  16
ENDBRANCH  13  15
ENDBRANCH   8  11
ENDBRANCH   3   5
BRANCH   1  19
ATOM     18  N   UNL     1       1.967  -3.904   2.401  0.00  0.00    -0.309 N 
ATOM     19  C   UNL     1       2.606  -4.097   3.571  0.00  0.00    +0.299 C 
ATOM     20  O   UNL     1       3.700  -4.622   3.586  0.00  0.00    -0.265 OA
ATOM     21  H   UNL     1       1.092  -3.484   2.389  0.00  0.00    +0.149 HD
BRANCH  18  22
ATOM     22  C   UNL     1       2.593  -4.326   1.146  0.00  0.00    +0.089 C 
BRANCH  22  23
ATOM     23  C   UNL     1       1.726  -3.880  -0.033  0.00  0.00    -0.054 C 
ATOM     24  C   UNL     1       2.435  -4.218  -1.345  0.00  0.00    -0.012 C 
BRANCH  23  29
ATOM     25  C   UNL     1       1.337   1.757  -0.807  0.00  0.00    +0.007 C 
ATOM     26  C   UNL     1       1.618   0.267  -1.009  0.00  0.00    -0.018 C 
ATOM     27  C   UNL     1       2.575  -0.226   0.080  0.00  0.00    -0.016 C 
ATOM     28  C   UNL     1       2.790  -1.732  -0.080  0.00  0.00    -0.078 C 
ATOM     29  N   UNL     1       1.504  -2.429   0.044  0.00  0.00    +0.382 N 
ATOM     30  C   UNL     1       0.606  -2.015  -1.040  0.00  0.00    -0.078 C 
ATOM     31  C   UNL     1       0.307  -0.519  -0.916  0.00  0.00    -0.016 C 
ATOM     32  H   UNL     1       1.084  -2.202   0.933  0.00  0.00    -0.081 HD
ENDBRANCH  23  29
ENDBRANCH  22  23
ENDBRANCH  18  22
ENDBRANCH   1  19
TORSDOF 8
