REMARK  Name = ZINC00683819
REMARK  6 active torsions:
REMARK  status: ('A' for Active; 'I' for Inactive)
REMARK    1  A    between atoms: C_5  and  C_7
REMARK    2  A    between atoms: N_9  and  C_10
REMARK    3  A    between atoms: C_10  and  N_12
REMARK    4  A    between atoms: N_12  and  C_13
REMARK    5  A    between atoms: C_16  and  N_19
REMARK    6  A    between atoms: C_20  and  C_22
REMARK                            x       y       z     vdW  Elec       q    Type
REMARK                         _______ _______ _______ _____ _____    ______ ____
ROOT
ATOM      1  C   UNL     1      -2.312   1.507  -0.027  0.00  0.00    +0.033 A 
ATOM      2  C   UNL     1      -2.225   0.122   0.009  0.00  0.00    +0.025 A 
ATOM      3  C   UNL     1      -3.372  -0.640   0.098  0.00  0.00    +0.025 A 
ATOM      4  C   UNL     1      -4.615  -0.021   0.141  0.00  0.00    +0.034 A 
ATOM      5  C   UNL     1      -4.703   1.364   0.100  0.00  0.00    +0.025 A 
ATOM      6  C   UNL     1      -3.555   2.126   0.016  0.00  0.00    +0.025 A 
ENDROOT
BRANCH   4   7
ATOM      7  N   UNL     1      -5.779  -0.794   0.227  0.00  0.00    -0.282 N 
ATOM      8  C   UNL     1      -5.783  -1.929   0.953  0.00  0.00    +0.248 C 
ATOM      9  O   UNL     1      -4.761  -2.311   1.490  0.00  0.00    -0.270 OA
ATOM     10  H   UNL     1      -6.583  -0.513  -0.238  0.00  0.00    +0.155 HD
BRANCH   8  11
ATOM     11  C   UNL     1      -7.030  -2.710   1.098  0.00  0.00    +0.038 A 
ATOM     12  C   UNL     1      -7.038  -3.886   1.850  0.00  0.00    +0.013 A 
ATOM     13  C   UNL     1      -8.204  -4.610   1.982  0.00  0.00    +0.002 A 
ATOM     14  C   UNL     1      -9.366  -4.173   1.371  0.00  0.00    +0.020 A 
ATOM     15  C   UNL     1      -9.367  -3.008   0.624  0.00  0.00    +0.042 A 
ATOM     16  C   UNL     1      -8.206  -2.271   0.488  0.00  0.00    +0.033 A 
ATOM     17 CL   UNL     1     -10.830  -2.468  -0.139  0.00  0.00    -0.084 Cl
ENDBRANCH   8  11
ENDBRANCH   4   7
BRANCH   1  18
ATOM     18  N   UNL     1      -1.147   2.280  -0.113  0.00  0.00    -0.297 N 
ATOM     19  H   UNL     1      -0.438   2.023  -0.722  0.00  0.00    +0.154 HD
BRANCH  18  20
ATOM     20  C   UNL     1      -1.012   3.381   0.653  0.00  0.00    +0.141 C 
ATOM     21  S   UNL     1      -2.301   3.889   1.658  0.00  0.00    -0.018 S 
BRANCH  20  24
ATOM     22  C   UNL     1       0.278   5.178   1.400  0.00  0.00    +0.252 C 
ATOM     23  O   UNL     1      -0.637   5.538   2.114  0.00  0.00    -0.270 OA
ATOM     24  N   UNL     1       0.141   4.080   0.631  0.00  0.00    -0.263 N 
ATOM     25  H   UNL     1       0.871   3.792   0.061  0.00  0.00    +0.157 HD
BRANCH  22  30
ATOM     26  C   UNL     1       3.771   6.250   0.539  0.00  0.00    +0.001 A 
ATOM     27  C   UNL     1       3.911   7.378   1.330  0.00  0.00    +0.003 A 
ATOM     28  C   UNL     1       2.874   7.793   2.144  0.00  0.00    +0.039 A 
ATOM     29  C   UNL     1       1.687   7.082   2.173  0.00  0.00    +0.135 A 
ATOM     30  C   UNL     1       1.541   5.942   1.376  0.00  0.00    +0.072 A 
ATOM     31  C   UNL     1       2.597   5.528   0.561  0.00  0.00    +0.016 A 
ATOM     32  F   UNL     1       0.674   7.488   2.969  0.00  0.00    -0.205 F 
ENDBRANCH  22  30
ENDBRANCH  20  24
ENDBRANCH  18  20
ENDBRANCH   1  18
TORSDOF 6
