REMARK  Name = ZINC14667581
REMARK  10 active torsions:
REMARK  status: ('A' for Active; 'I' for Inactive)
REMARK    1  A    between atoms: C_1  and  C_2
REMARK    2  A    between atoms: C_3  and  C_24
REMARK    3  A    between atoms: C_5  and  N_10
REMARK    4  A    between atoms: C_6  and  C_7
REMARK    5  A    between atoms: C_11  and  C_13
REMARK    6  A    between atoms: C_18  and  O_19
REMARK    7  A    between atoms: O_19  and  C_20
REMARK    8  A    between atoms: C_20  and  C_21
REMARK    9  A    between atoms: C_20  and  C_22
REMARK   10  A    between atoms: C_24  and  C_25
REMARK                            x       y       z     vdW  Elec       q    Type
REMARK                         _______ _______ _______ _____ _____    ______ ____
ROOT
ATOM      1  C   UNL     1      -7.280  -0.902   1.650  0.00  0.00    +0.045 C 
ATOM      2  C   UNL     1      -5.857  -1.315   1.371  0.00  0.00    -0.026 A 
ATOM      3  C   UNL     1      -5.504  -2.611   1.302  0.00  0.00    -0.000 A 
ATOM      4  S   UNL     1      -3.758  -2.542   0.960  0.00  0.00    -0.077 S 
ATOM      5  C   UNL     1      -3.539  -0.825   0.919  0.00  0.00    +0.085 A 
ATOM      6  C   UNL     1      -4.815  -0.336   1.175  0.00  0.00    +0.068 A 
ENDROOT
BRANCH   6   7
ATOM      7  C   UNL     1      -5.089   1.103   1.237  0.00  0.00    +0.244 C 
ATOM      8  O   UNL     1      -5.408   1.706   0.229  0.00  0.00    -0.270 OA
ATOM      9  N   UNL     1      -4.987   1.758   2.410  0.00  0.00    -0.325 N 
ATOM     10  H   UNL     1      -4.733   1.277   3.214  0.00  0.00    +0.145 HD
ATOM     11  H   UNL     1      -5.169   2.710   2.452  0.00  0.00    +0.145 HD
ENDBRANCH   6   7
BRANCH   5  12
ATOM     12  N   UNL     1      -2.373  -0.111   0.691  0.00  0.00    -0.275 N 
ATOM     13  C   UNL     1      -1.216  -0.765   0.464  0.00  0.00    +0.252 C 
ATOM     14  O   UNL     1      -1.196  -1.980   0.459  0.00  0.00    -0.270 OA
ATOM     15  H   UNL     1      -2.390   0.859   0.696  0.00  0.00    +0.156 HD
BRANCH  13  16
ATOM     16  C   UNL     1       0.024  -0.005   0.223  0.00  0.00    +0.080 A 
ATOM     17  C   UNL     1       0.005   1.392   0.228  0.00  0.00    +0.032 A 
ATOM     18  C   UNL     1       1.169   2.096   0.001  0.00  0.00    +0.019 A 
ATOM     19  C   UNL     1       2.358   1.424  -0.232  0.00  0.00    +0.019 A 
ATOM     20  C   UNL     1       2.391   0.044  -0.239  0.00  0.00    +0.047 A 
ATOM     21  C   UNL     1       1.230  -0.680  -0.013  0.00  0.00    +0.133 A 
ATOM     22 BR   UNL     1       1.141   3.987   0.009  0.00  0.00    -0.050 Br
BRANCH  21  23
ATOM     23  O   UNL     1       1.260  -2.037  -0.021  0.00  0.00    -0.489 OA
BRANCH  23  24
ATOM     24  C   UNL     1       2.542  -2.656  -0.148  0.00  0.00    +0.167 C 
ATOM     25  C   UNL     1       2.494  -4.057   0.464  0.00  0.00    +0.051 C 
ATOM     26  C   UNL     1       2.914  -2.758  -1.629  0.00  0.00    +0.051 C 
ENDBRANCH  23  24
ENDBRANCH  21  23
ENDBRANCH  13  16
ENDBRANCH   5  12
BRANCH   3  27
ATOM     27  C   UNL     1      -6.376  -3.828   1.471  0.00  0.00    +0.077 C 
BRANCH  27  28
ATOM     28  C   UNL     1      -6.940  -4.233   0.133  0.00  0.00    -0.043 A 
ATOM     29  C   UNL     1      -8.150  -3.717  -0.291  0.00  0.00    +0.004 A 
ATOM     30  C   UNL     1      -8.665  -4.084  -1.521  0.00  0.00    +0.000 A 
ATOM     31  C   UNL     1      -7.974  -4.975  -2.321  0.00  0.00    +0.000 A 
ATOM     32  C   UNL     1      -6.767  -5.495  -1.894  0.00  0.00    +0.000 A 
ATOM     33  C   UNL     1      -6.250  -5.124  -0.667  0.00  0.00    +0.004 A 
ENDBRANCH  27  28
ENDBRANCH   3  27
TORSDOF 7
