REMARK  Name = ZINC08809648
REMARK  5 active torsions:
REMARK  status: ('A' for Active; 'I' for Inactive)
REMARK    1  A    between atoms: C_3  and  N_28
REMARK    2  A    between atoms: C_6  and  N_7
REMARK    3  A    between atoms: C_10  and  C_17
REMARK    4  A    between atoms: C_12  and  C_15
REMARK    5  A    between atoms: C_13  and  N_14
REMARK                            x       y       z     vdW  Elec       q    Type
REMARK                         _______ _______ _______ _____ _____    ______ ____
ROOT
ATOM      1  N   UNL     1       0.001   0.035  -0.243  0.00  0.00    -0.260 N 
ATOM      2  C   UNL     1      -0.224   1.225   0.399  0.00  0.00    +0.024 C 
ATOM      3  C   UNL     1       0.798   2.062   0.676  0.00  0.00    +0.026 C 
ATOM      4  C   UNL     1       2.210   1.719   0.274  0.00  0.00    +0.104 C 
ATOM      5  C   UNL     1       2.350   0.255  -0.019  0.00  0.00    +0.077 C 
ATOM      6  C   UNL     1       1.261  -0.519  -0.266  0.00  0.00    +0.107 C 
ATOM      7  C   UNL     1       0.578   3.277   1.349  0.00  0.00    +0.162 C 
ATOM      8  O   UNL     1       1.519   4.012   1.574  0.00  0.00    -0.292 OA
ATOM      9  C   UNL     1      -0.800   3.683   1.795  0.00  0.00    +0.080 C 
ATOM     10  C   UNL     1      -1.632   2.424   2.057  0.00  0.00    +0.014 C 
ATOM     11  C   UNL     1      -1.641   1.576   0.781  0.00  0.00    +0.052 C 
ENDROOT
BRANCH   1  17
ATOM     12  C   UNL     1      -1.788  -1.587  -0.199  0.00  0.00    +0.026 A 
ATOM     13  C   UNL     1      -2.836  -2.230  -0.829  0.00  0.00    +0.034 A 
ATOM     14  C   UNL     1      -3.151  -1.921  -2.140  0.00  0.00    +0.126 A 
ATOM     15  C   UNL     1      -2.422  -0.964  -2.822  0.00  0.00    +0.034 A 
ATOM     16  C   UNL     1      -1.377  -0.314  -2.196  0.00  0.00    +0.026 A 
ATOM     17  C   UNL     1      -1.058  -0.622  -0.880  0.00  0.00    +0.040 A 
BRANCH  14  18
ATOM     18  N   UNL     1      -4.270  -2.617  -2.814  0.00  0.00    +0.056 N 
ATOM     19  O   UNL     1      -4.548  -2.347  -3.968  0.00  0.00    -0.126 OA
ATOM     20  O   UNL     1      -4.912  -3.461  -2.214  0.00  0.00    -0.126 OA
ENDBRANCH  14  18
ENDBRANCH   1  17
BRANCH   4  21
ATOM     21  C   UNL     1       2.579   2.507  -0.957  0.00  0.00    +0.004 A 
ATOM     22  C   UNL     1       3.556   3.433  -1.117  0.00  0.00    +0.013 A 
ATOM     23  C   UNL     1       3.717   4.031  -2.353  0.00  0.00    +0.023 A 
ATOM     24  C   UNL     1       2.884   3.682  -3.365  0.00  0.00    +0.055 A 
ATOM     25  S   UNL     1       1.837   2.467  -2.580  0.00  0.00    -0.085 S 
ATOM     26 BR   UNL     1       2.843   4.317  -5.146  0.00  0.00    -0.043 Br
ENDBRANCH   4  21
BRANCH   6  27
ATOM     27  N   UNL     1       1.418  -1.856  -0.540  0.00  0.00    -0.345 N 
ATOM     28  H   UNL     1       0.639  -2.428  -0.626  0.00  0.00    +0.144 HD
ATOM     29  H   UNL     1       2.307  -2.229  -0.647  0.00  0.00    +0.144 HD
ENDBRANCH   6  27
BRANCH   5  30
ATOM     30  C   UNL     1       3.654  -0.338  -0.038  0.00  0.00    +0.099 C 
ATOM     31  N   UNL     1       4.688  -0.809  -0.053  0.00  0.00    -0.191 NA
ENDBRANCH   5  30
TORSDOF 5
