REMARK  Name = ZINC45579301
REMARK  7 active torsions:
REMARK  status: ('A' for Active; 'I' for Inactive)
REMARK    1  A    between atoms: C_1  and  C_2
REMARK    2  A    between atoms: C_8  and  N_10
REMARK    3  A    between atoms: N_10  and  S_11
REMARK    4  A    between atoms: S_11  and  C_14
REMARK    5  A    between atoms: C_16  and  C_22
REMARK    6  A    between atoms: C_19  and  O_20
REMARK    7  A    between atoms: O_20  and  C_21
REMARK                            x       y       z     vdW  Elec       q    Type
REMARK                         _______ _______ _______ _____ _____    ______ ____
ROOT
ATOM      1  C   UNL     1       3.040  -1.099   3.576  0.00  0.00    +0.147 A 
ATOM      2  C   UNL     1       4.296  -1.589   3.858  0.00  0.00    +0.045 A 
ATOM      3  C   UNL     1       4.436  -2.768   4.595  0.00  0.00    +0.039 A 
ATOM      4  C   UNL     1       3.299  -3.446   5.043  0.00  0.00    +0.017 A 
ATOM      5  C   UNL     1       2.046  -2.950   4.757  0.00  0.00    +0.048 A 
ATOM      6  C   UNL     1       1.912  -1.774   4.029  0.00  0.00    +0.146 A 
ENDROOT
BRANCH   3   7
ATOM      7  C   UNL     1       5.780  -3.296   4.898  0.00  0.00    +0.249 C 
ATOM      8  O   UNL     1       6.768  -2.705   4.507  0.00  0.00    -0.270 OA
ATOM      9  N   UNL     1       5.912  -4.433   5.609  0.00  0.00    -0.266 N 
ATOM     10  C   UNL     1       7.172  -4.988   5.805  0.00  0.00    +0.126 A 
ATOM     11  C   UNL     1       7.281  -6.226   6.454  0.00  0.00    +0.044 A 
ATOM     12  C   UNL     1       8.509  -6.782   6.653  0.00  0.00    +0.013 A 
ATOM     13  C   UNL     1       9.642  -6.082   6.191  0.00  0.00    +0.001 A 
ATOM     14  C   UNL     1      10.936  -6.596   6.362  0.00  0.00    +0.010 A 
ATOM     15  C   UNL     1      12.008  -5.892   5.904  0.00  0.00    +0.001 A 
ATOM     16  C   UNL     1      11.836  -4.665   5.266  0.00  0.00    +0.002 A 
ATOM     17  C   UNL     1      10.595  -4.137   5.084  0.00  0.00    +0.028 A 
ATOM     18  C   UNL     1       9.465  -4.835   5.543  0.00  0.00    +0.073 A 
ATOM     19  N   UNL     1       8.233  -4.341   5.372  0.00  0.00    -0.232 NA
ATOM     20  H   UNL     1       5.128  -4.865   5.984  0.00  0.00    +0.157 HD
ENDBRANCH   3   7
BRANCH   1  21
ATOM     21  S   UNL     1       2.863   0.388   2.648  0.00  0.00    +0.062 S 
ATOM     22  O   UNL     1       4.176   0.816   2.313  0.00  0.00    -0.153 OA
ATOM     23  O   UNL     1       1.953   1.209   3.367  0.00  0.00    -0.153 OA
BRANCH  21  24
ATOM     24  N   UNL     1       2.118  -0.010   1.224  0.00  0.00    -0.187 NA
ATOM     25  H   UNL     1       2.591   0.093   0.383  0.00  0.00    +0.148 HD
BRANCH  24  32
ATOM     26  C   UNL     1      -0.018   1.517  -0.000  0.00  0.00    +0.009 C 
ATOM     27  C   UNL     1       0.004  -0.013  -0.007  0.00  0.00    +0.005 C 
ATOM     28  C   UNL     1       0.722  -0.507  -1.265  0.00  0.00    +0.005 C 
ATOM     29  C   UNL     1       0.744  -2.037  -1.272  0.00  0.00    +0.000 C 
ATOM     30  C   UNL     1       1.483  -2.542  -0.032  0.00  0.00    +0.002 C 
ATOM     31  C   UNL     1       0.765  -2.048   1.226  0.00  0.00    +0.020 C 
ATOM     32  C   UNL     1       0.744  -0.518   1.233  0.00  0.00    +0.079 C 
ENDBRANCH  24  32
ENDBRANCH  21  24
ENDBRANCH   1  21
BRANCH   6  33
ATOM     33  O   UNL     1       0.676  -1.285   3.754  0.00  0.00    -0.493 OA
ATOM     34  C   UNL     1      -0.440  -2.028   4.249  0.00  0.00    +0.277 C 
ENDBRANCH   6  33
TORSDOF 5
