REMARK  Name = ZINC34791854
REMARK  9 active torsions:
REMARK  status: ('A' for Active; 'I' for Inactive)
REMARK    1  A    between atoms: C_1  and  C_2
REMARK    2  A    between atoms: C_2  and  C_3
REMARK    3  A    between atoms: C_2  and  C_4
REMARK    4  A    between atoms: C_4  and  O_34
REMARK    5  A    between atoms: C_5  and  C_30
REMARK    6  A    between atoms: C_7  and  C_23
REMARK    7  A    between atoms: N_12  and  C_13
REMARK    8  A    between atoms: C_30  and  O_32
REMARK    9  A    between atoms: O_32  and  C_33
REMARK                            x       y       z     vdW  Elec       q    Type
REMARK                         _______ _______ _______ _____ _____    ______ ____
ROOT
ATOM      1  C   UNL     1      -0.401  -1.209   0.047  0.00  0.00    +0.156 C 
ATOM      2  C   UNL     1      -1.434  -2.309  -0.217  0.00  0.00    +0.173 C 
ATOM      3  C   UNL     1      -2.835  -1.717  -0.029  0.00  0.00    +0.120 C 
ATOM      4  N   UNL     1      -2.983  -0.548  -0.897  0.00  0.00    -0.318 N 
ATOM      5  C   UNL     1      -1.927   0.205  -1.239  0.00  0.00    +0.140 C 
ATOM      6  S   UNL     1      -2.180   1.567  -2.245  0.00  0.00    -0.018 S 
ATOM      7  N   UNL     1      -0.681  -0.067  -0.825  0.00  0.00    -0.253 N 
ATOM      8  H   UNL     1      -3.863  -0.312  -1.232  0.00  0.00    +0.148 HD
ENDROOT
BRANCH   7   9
ATOM      9  C   UNL     1       0.374   0.759  -1.234  0.00  0.00    +0.042 A 
ATOM     10  C   UNL     1       1.042   0.495  -2.423  0.00  0.00    +0.027 A 
ATOM     11  C   UNL     1       2.083   1.308  -2.826  0.00  0.00    +0.051 A 
ATOM     12  C   UNL     1       2.465   2.390  -2.046  0.00  0.00    +0.162 A 
ATOM     13  C   UNL     1       1.797   2.658  -0.857  0.00  0.00    +0.164 A 
ATOM     14  C   UNL     1       0.749   1.844  -0.455  0.00  0.00    +0.073 A 
ATOM     15  O   UNL     1       2.152   3.720  -0.083  0.00  0.00    -0.485 OA
ATOM     16  C   UNL     1       3.439   4.295  -0.330  0.00  0.00    +0.270 C 
ATOM     17  C   UNL     1       3.605   4.468  -1.846  0.00  0.00    +0.270 C 
ATOM     18  O   UNL     1       3.496   3.179  -2.459  0.00  0.00    -0.485 OA
ENDBRANCH   7   9
BRANCH   3  19
ATOM     19  C   UNL     1      -3.871  -2.750  -0.393  0.00  0.00    -0.024 A 
ATOM     20  C   UNL     1      -4.179  -2.982  -1.721  0.00  0.00    +0.005 A 
ATOM     21  C   UNL     1      -5.129  -3.929  -2.055  0.00  0.00    +0.003 A 
ATOM     22  C   UNL     1      -5.772  -4.645  -1.063  0.00  0.00    +0.038 A 
ATOM     23  C   UNL     1      -5.464  -4.413   0.267  0.00  0.00    +0.124 A 
ATOM     24  C   UNL     1      -4.508  -3.469   0.601  0.00  0.00    +0.043 A 
ATOM     25  F   UNL     1      -6.092  -5.112   1.237  0.00  0.00    -0.205 F 
ENDBRANCH   3  19
BRANCH   1  27
ATOM     26  C   UNL     1       2.044  -0.716   0.200  0.00  0.00    +0.012 C 
ATOM     27  C   UNL     1       1.002  -1.744  -0.246  0.00  0.00    +0.034 C 
ATOM     28  C   UNL     1       1.219  -3.053   0.517  0.00  0.00    +0.012 C 
ENDBRANCH   1  27
BRANCH   2  29
ATOM     29  C   UNL     1      -1.281  -2.819  -1.627  0.00  0.00    +0.317 C 
ATOM     30  O   UNL     1      -0.910  -2.073  -2.502  0.00  0.00    -0.250 OA
BRANCH  29  31
ATOM     31  O   UNL     1      -1.557  -4.102  -1.911  0.00  0.00    -0.468 OA
ATOM     32  C   UNL     1      -1.389  -4.516  -3.268  0.00  0.00    +0.280 C 
ENDBRANCH  29  31
ENDBRANCH   2  29
BRANCH   1  33
ATOM     33  O   UNL     1      -0.479  -0.797   1.413  0.00  0.00    -0.370 OA
ATOM     34  H   UNL     1       0.147  -0.099   1.650  0.00  0.00    +0.212 HD
ENDBRANCH   1  33
TORSDOF 6
