REMARK  Name = ZINC36019094
REMARK  13 active torsions:
REMARK  status: ('A' for Active; 'I' for Inactive)
REMARK    1  A    between atoms: C_1  and  C_2
REMARK    2  A    between atoms: C_2  and  O_3
REMARK    3  A    between atoms: O_3  and  C_4
REMARK    4  A    between atoms: C_4  and  C_6
REMARK    5  A    between atoms: C_7  and  C_24
REMARK    6  A    between atoms: N_8  and  C_21
REMARK    7  A    between atoms: C_12  and  C_14
REMARK    8  A    between atoms: C_21  and  C_22
REMARK    9  A    between atoms: C_24  and  N_25
REMARK   10  A    between atoms: N_34  and  C_35
REMARK   11  A    between atoms: C_35  and  C_36
REMARK   12  A    between atoms: C_35  and  C_37
REMARK   13  A    between atoms: C_35  and  C_38
REMARK                            x       y       z     vdW  Elec       q    Type
REMARK                         _______ _______ _______ _____ _____    ______ ____
ROOT
ATOM      1  C   UNL     1      -3.570  -3.973  -0.730  0.00  0.00    +0.076 C 
ATOM      2  C   UNL     1      -2.681  -3.563   0.200  0.00  0.00    +0.011 C 
ATOM      3  N   UNL     1      -2.848  -2.380   0.862  0.00  0.00    -0.257 N 
ATOM      4  C   UNL     1      -3.877  -1.550   0.651  0.00  0.00    +0.307 C 
ATOM      5  O   UNL     1      -3.940  -0.518   1.289  0.00  0.00    -0.252 OA
ATOM      6  N   UNL     1      -4.845  -1.822  -0.247  0.00  0.00    -0.288 N 
ATOM      7  C   UNL     1      -4.755  -3.073  -1.018  0.00  0.00    +0.143 C 
ATOM      8  H   UNL     1      -5.583  -1.207  -0.383  0.00  0.00    +0.151 HD
ENDROOT
BRANCH   7   9
ATOM      9  C   UNL     1      -6.012  -3.864  -0.762  0.00  0.00    -0.022 A 
ATOM     10  C   UNL     1      -6.475  -4.025   0.530  0.00  0.00    +0.007 A 
ATOM     11  C   UNL     1      -7.628  -4.750   0.766  0.00  0.00    +0.020 A 
ATOM     12  C   UNL     1      -8.319  -5.314  -0.292  0.00  0.00    +0.041 A 
ATOM     13  C   UNL     1      -7.854  -5.153  -1.585  0.00  0.00    +0.020 A 
ATOM     14  C   UNL     1      -6.704  -4.423  -1.820  0.00  0.00    +0.007 A 
ATOM     15 CL   UNL     1      -9.766  -6.226   0.003  0.00  0.00    -0.084 Cl
ENDBRANCH   7   9
BRANCH   1  16
ATOM     16  C   UNL     1      -3.398  -5.198  -1.416  0.00  0.00    +0.339 C 
ATOM     17  O   UNL     1      -2.412  -5.880  -1.207  0.00  0.00    -0.245 OA
BRANCH  16  18
ATOM     18  O   UNL     1      -4.328  -5.611  -2.303  0.00  0.00    -0.462 OA
BRANCH  18  20
ATOM     19  C   UNL     1      -5.243  -7.157  -3.919  0.00  0.00    +0.048 C 
ATOM     20  C   UNL     1      -4.090  -6.858  -2.959  0.00  0.00    +0.229 C 
ENDBRANCH  18  20
ENDBRANCH  16  18
ENDBRANCH   1  16
BRANCH   3  21
ATOM     21  C   UNL     1      -1.845  -1.998   1.858  0.00  0.00    +0.141 C 
BRANCH  21  22
ATOM     22  C   UNL     1      -0.807  -1.115   1.214  0.00  0.00    -0.015 C 
ATOM     23  C   UNL     1      -0.547   0.066   1.719  0.00  0.00    +0.005 C 
ENDBRANCH  21  22
ENDBRANCH   3  21
BRANCH   2  24
ATOM     24  C   UNL     1      -1.486  -4.426   0.514  0.00  0.00    -0.026 C 
BRANCH  24  25
ATOM     25  N   UNL     1      -1.781  -5.266   1.683  0.00  0.00    +0.384 N 
ATOM     26  C   UNL     1      -0.538  -5.895   2.124  0.00  0.00    -0.077 C 
ATOM     27  C   UNL     1      -0.604  -6.139   3.615  0.00  0.00    +0.000 C 
ATOM     28  C   UNL     1      -1.123  -7.565   3.878  0.00  0.00    +0.107 C 
ATOM     29  N   UNL     1      -2.208  -7.917   2.940  0.00  0.00    -0.287 N 
ATOM     30  C   UNL     1      -3.251  -6.981   2.574  0.00  0.00    +0.091 C 
ATOM     31  C   UNL     1      -2.813  -6.165   1.335  0.00  0.00    -0.059 C 
ATOM     32  C   UNL     1      -2.228  -9.153   2.404  0.00  0.00    +0.303 C 
ATOM     33  O   UNL     1      -1.410  -9.981   2.755  0.00  0.00    -0.253 OA
ATOM     34  N   UNL     1      -3.154  -9.472   1.478  0.00  0.00    -0.294 N 
ATOM     35  H   UNL     1      -3.761  -8.792   1.145  0.00  0.00    +0.151 HD
ATOM     36  H   UNL     1      -2.114  -4.670   2.425  0.00  0.00    -0.081 HD
BRANCH  34  37
ATOM     37  C   UNL     1      -3.245 -10.845   0.975  0.00  0.00    +0.028 C 
ATOM     38  C   UNL     1      -3.541 -11.795   2.137  0.00  0.00    +0.031 C 
ATOM     39  C   UNL     1      -4.369 -10.936  -0.058  0.00  0.00    +0.031 C 
ATOM     40  C   UNL     1      -1.918 -11.237   0.321  0.00  0.00    +0.031 C 
ENDBRANCH  34  37
ENDBRANCH  24  25
ENDBRANCH   2  24
TORSDOF 9
