REMARK  Name = ZINC22645317
REMARK  6 active torsions:
REMARK  status: ('A' for Active; 'I' for Inactive)
REMARK    1  A    between atoms: C_2  and  C_11
REMARK    2  A    between atoms: C_12  and  C_13
REMARK    3  A    between atoms: N_15  and  N_16
REMARK    4  A    between atoms: N_16  and  C_17
REMARK    5  A    between atoms: C_17  and  N_19
REMARK    6  A    between atoms: N_19  and  C_20
REMARK                            x       y       z     vdW  Elec       q    Type
REMARK                         _______ _______ _______ _____ _____    ______ ____
ROOT
ATOM      1  C   UNL     1       2.854   3.009   5.200  0.00  0.00    +0.253 C 
ATOM      2  O   UNL     1       2.506   2.996   6.366  0.00  0.00    -0.269 OA
ATOM      3  N   UNL     1       1.982   2.667   4.231  0.00  0.00    -0.232 N 
ATOM      4  H   UNL     1       2.297   2.679   3.178  0.00  0.00    +0.173 HD
ENDROOT
BRANCH   1   6
ATOM      5  C   UNL     1       5.095   3.738   5.819  0.00  0.00    +0.013 C 
ATOM      6  C   UNL     1       4.221   3.396   4.849  0.00  0.00    +0.069 C 
BRANCH   5   8
ATOM      7  C   UNL     1       7.375   4.488   6.470  0.00  0.00    +0.057 A 
ATOM      8  C   UNL     1       6.468   4.127   5.467  0.00  0.00    -0.020 A 
ATOM      9  C   UNL     1       6.871   4.143   4.127  0.00  0.00    +0.031 A 
ATOM     10  C   UNL     1       8.160   4.508   3.800  0.00  0.00    +0.087 A 
ATOM     11  C   UNL     1       9.061   4.861   4.797  0.00  0.00    +0.184 A 
ATOM     12  C   UNL     1       8.665   4.847   6.135  0.00  0.00    +0.168 A 
ATOM     13  O   UNL     1       9.725   5.231   6.907  0.00  0.00    -0.453 OA
ATOM     14  C   UNL     1      10.884   5.083   6.066  0.00  0.00    +0.466 C 
ATOM     15  O   UNL     1      10.366   5.253   4.734  0.00  0.00    -0.451 OA
ATOM     16 CL   UNL     1       8.658   4.527   2.137  0.00  0.00    -0.080 Cl
ENDBRANCH   5   8
ENDBRANCH   1   6
BRANCH   3  17
ATOM     17  N   UNL     1       0.673   2.296   4.567  0.00  0.00    -0.246 N 
ATOM     18  H   UNL     1       0.358   2.284   5.621  0.00  0.00    +0.172 HD
BRANCH  17  19
ATOM     19  C   UNL     1      -0.200   1.954   3.599  0.00  0.00    +0.147 C 
ATOM     20  S   UNL     1      -1.799   1.502   4.009  0.00  0.00    -0.017 S 
BRANCH  19  21
ATOM     21  N   UNL     1       0.186   1.969   2.308  0.00  0.00    -0.323 N 
ATOM     22  H   UNL     1       1.214   2.260   2.044  0.00  0.00    +0.148 HD
BRANCH  21  23
ATOM     23  C   UNL     1      -0.763   1.597   1.255  0.00  0.00    +0.072 C 
ATOM     24  C   UNL     1      -0.013   1.086   0.008  0.00  0.00    +0.022 C 
ATOM     25  C   UNL     1      -0.784   1.609  -1.216  0.00  0.00    +0.002 C 
ATOM     26  C   UNL     1      -1.978   2.421  -0.670  0.00  0.00    +0.002 C 
ATOM     27  C   UNL     1      -1.531   2.845   0.750  0.00  0.00    +0.022 C 
ENDBRANCH  21  23
ENDBRANCH  19  21
ENDBRANCH  17  19
ENDBRANCH   3  17
TORSDOF 6
