REMARK  Name = ZINC13389882
REMARK  12 active torsions:
REMARK  status: ('A' for Active; 'I' for Inactive)
REMARK    1  A    between atoms: C_1  and  C_2
REMARK    2  A    between atoms: C_5  and  C_30
REMARK    3  A    between atoms: C_7  and  S_8
REMARK    4  A    between atoms: S_8  and  N_11
REMARK    5  A    between atoms: C_14  and  C_17
REMARK    6  A    between atoms: N_19  and  C_20
REMARK    7  A    between atoms: C_20  and  C_22
REMARK    8  A    between atoms: C_20  and  C_25
REMARK    9  A    between atoms: C_22  and  C_23
REMARK   10  A    between atoms: C_30  and  C_31
REMARK   11  A    between atoms: C_30  and  C_32
REMARK   12  A    between atoms: C_30  and  C_33
REMARK                            x       y       z     vdW  Elec       q    Type
REMARK                         _______ _______ _______ _____ _____    ______ ____
ROOT
ATOM      1  N   UNL     1       3.088   3.349   2.351  0.00  0.00    -0.177 NA
ATOM      2  C   UNL     1       2.655   4.363   3.322  0.00  0.00    +0.110 C 
ATOM      3  C   UNL     1       2.151   3.647   4.584  0.00  0.00    +0.030 C 
ATOM      4  C   UNL     1       3.242   2.707   5.102  0.00  0.00    +0.077 C 
ATOM      5  C   UNL     1       3.553   1.650   4.040  0.00  0.00    +0.030 C 
ATOM      6  C   UNL     1       4.069   2.340   2.773  0.00  0.00    +0.110 C 
ENDROOT
BRANCH   4   7
ATOM      7  C   UNL     1       2.766   2.030   6.361  0.00  0.00    +0.217 C 
ATOM      8  O   UNL     1       2.683   0.821   6.405  0.00  0.00    -0.275 OA
ATOM      9  N   UNL     1       2.432   2.768   7.438  0.00  0.00    -0.307 N 
ATOM     10  H   UNL     1       2.570   3.728   7.430  0.00  0.00    +0.149 HD
BRANCH   9  11
ATOM     11  C   UNL     1       1.861   2.120   8.621  0.00  0.00    +0.121 C 
BRANCH  11  12
ATOM     12  C   UNL     1       0.997   3.105   9.366  0.00  0.00    +0.010 A 
ATOM     13  C   UNL     1      -0.198   2.904   9.973  0.00  0.00    +0.013 A 
ATOM     14  C   UNL     1      -0.817   3.967  10.604  0.00  0.00    +0.008 A 
ATOM     15  C   UNL     1      -0.210   5.179  10.597  0.00  0.00    +0.045 A 
ATOM     16  S   UNL     1       1.286   4.838   9.684  0.00  0.00    -0.100 S 
ENDBRANCH  11  12
BRANCH  11  17
ATOM     17  C   UNL     1       2.990   1.639   9.535  0.00  0.00    +0.152 C 
BRANCH  17  18
ATOM     18  C   UNL     1       2.408   0.862  10.687  0.00  0.00    +0.358 C 
ATOM     19  O   UNL     1       1.223   0.627  10.720  0.00  0.00    -0.246 OA
ATOM     20  O   UNL     1       3.205   0.432  11.678  0.00  0.00    -0.246 OA
ENDBRANCH  17  18
ENDBRANCH  11  17
ENDBRANCH   9  11
ENDBRANCH   4   7
BRANCH   1  21
ATOM     21  S   UNL     1       2.488   3.348   0.808  0.00  0.00    +0.061 S 
ATOM     22  O   UNL     1       3.502   2.799  -0.022  0.00  0.00    -0.153 OA
ATOM     23  O   UNL     1       1.937   4.638   0.586  0.00  0.00    -0.153 OA
BRANCH  21  30
ATOM     24  C   UNL     1      -0.145   3.792   2.229  0.00  0.00    +0.046 C 
ATOM     25  C   UNL     1      -0.026   2.504   1.456  0.00  0.00    -0.024 A 
ATOM     26  C   UNL     1      -1.083   1.613   1.430  0.00  0.00    +0.005 A 
ATOM     27  C   UNL     1      -0.971   0.429   0.726  0.00  0.00    +0.004 A 
ATOM     28  C   UNL     1       0.193   0.140   0.040  0.00  0.00    -0.040 A 
ATOM     29  C   UNL     1       1.250   1.030   0.066  0.00  0.00    +0.033 A 
ATOM     30  C   UNL     1       1.140   2.212   0.775  0.00  0.00    +0.109 A 
BRANCH  28  31
ATOM     31  C   UNL     1       0.313  -1.149  -0.732  0.00  0.00    -0.013 C 
ATOM     32  C   UNL     1       1.476  -1.972  -0.174  0.00  0.00    +0.015 C 
ATOM     33  C   UNL     1      -0.986  -1.946  -0.598  0.00  0.00    +0.015 C 
ATOM     34  C   UNL     1       0.570  -0.838  -2.208  0.00  0.00    +0.015 C 
ENDBRANCH  28  31
ENDBRANCH  21  30
ENDBRANCH   1  21
TORSDOF 8
