REMARK  Name = ZINC34107785
REMARK  5 active torsions:
REMARK  status: ('A' for Active; 'I' for Inactive)
REMARK    1  A    between atoms: C_1  and  C_2
REMARK    2  A    between atoms: C_14  and  C_15
REMARK    3  A    between atoms: C_18  and  C_20
REMARK    4  A    between atoms: C_23  and  S_26
REMARK    5  A    between atoms: S_26  and  N_29
REMARK                            x       y       z     vdW  Elec       q    Type
REMARK                         _______ _______ _______ _____ _____    ______ ____
ROOT
ATOM      1  C   UNL     1       3.890  -7.040   1.691  0.00  0.00    +0.130 A 
ATOM      2  C   UNL     1       4.582  -8.235   1.787  0.00  0.00    +0.050 A 
ATOM      3  C   UNL     1       3.631  -9.257   1.745  0.00  0.00    +0.050 A 
ATOM      4  C   UNL     1       2.398  -8.655   1.627  0.00  0.00    +0.136 A 
ATOM      5  O   UNL     1       2.574  -7.321   1.602  0.00  0.00    -0.455 OA
ENDROOT
BRANCH   1  18
ATOM      6  C   UNL     1      -0.019   1.526   0.010  0.00  0.00    +0.009 C 
ATOM      7  C   UNL     1       0.002  -0.004   0.002  0.00  0.00    +0.003 C 
ATOM      8  C   UNL     1      -1.433  -0.534   0.015  0.00  0.00    +0.006 C 
ATOM      9  C   UNL     1      -1.414  -2.064  -0.027  0.00  0.00    +0.019 C 
ATOM     10  C   UNL     1      -0.692  -2.596   1.215  0.00  0.00    +0.107 C 
ATOM     11  N   UNL     1       0.639  -1.977   1.288  0.00  0.00    -0.311 N 
ATOM     12  C   UNL     1       0.742  -0.512   1.244  0.00  0.00    +0.110 C 
ATOM     13  C   UNL     1       1.765  -2.753   1.397  0.00  0.00    +0.154 C 
ATOM     14  N   UNL     1       3.026  -2.363   1.480  0.00  0.00    -0.154 NA
ATOM     15  C   UNL     1       4.023  -3.216   1.581  0.00  0.00    +0.276 C 
ATOM     16  O   UNL     1       5.184  -2.843   1.657  0.00  0.00    -0.267 OA
ATOM     17  C   UNL     1       3.662  -4.649   1.599  0.00  0.00    +0.082 C 
ATOM     18  C   UNL     1       4.463  -5.750   1.694  0.00  0.00    +0.066 C 
ATOM     19  S   UNL     1       1.882  -4.533   1.468  0.00  0.00    -0.051 S 
ENDBRANCH   1  18
BRANCH   4  20
ATOM     20  C   UNL     1       1.102  -9.355   1.547  0.00  0.00    +0.017 A 
ATOM     21  C   UNL     1       1.054 -10.751   1.595  0.00  0.00    +0.013 A 
ATOM     22  C   UNL     1      -0.162 -11.398   1.520  0.00  0.00    +0.029 A 
ATOM     23  C   UNL     1      -1.331 -10.669   1.397  0.00  0.00    +0.105 A 
ATOM     24  C   UNL     1      -1.291  -9.287   1.348  0.00  0.00    +0.029 A 
ATOM     25  C   UNL     1      -0.084  -8.626   1.428  0.00  0.00    +0.013 A 
BRANCH  23  26
ATOM     26  S   UNL     1      -2.879 -11.505   1.301  0.00  0.00    +0.056 S 
ATOM     27  O   UNL     1      -3.777 -10.624   0.641  0.00  0.00    -0.153 OA
ATOM     28  O   UNL     1      -2.605 -12.814   0.819  0.00  0.00    -0.153 OA
BRANCH  26  29
ATOM     29  N   UNL     1      -3.439 -11.679   2.849  0.00  0.00    -0.204 NA
ATOM     30  H   UNL     1      -4.394 -11.698   3.021  0.00  0.00    +0.144 HD
ATOM     31  H   UNL     1      -2.812 -11.761   3.585  0.00  0.00    +0.144 HD
ENDBRANCH  26  29
ENDBRANCH  23  26
ENDBRANCH   4  20
TORSDOF 4
