REMARK  Name = ZINC36619904
REMARK  4 active torsions:
REMARK  status: ('A' for Active; 'I' for Inactive)
REMARK    1  A    between atoms: C_8  and  C_10
REMARK    2  A    between atoms: C_13  and  S_16
REMARK    3  A    between atoms: S_16  and  N_19
REMARK    4  A    between atoms: N_19  and  C_20
REMARK                            x       y       z     vdW  Elec       q    Type
REMARK                         _______ _______ _______ _____ _____    ______ ____
ROOT
ATOM      1  C   UNL     1      -4.611  -3.032  -0.205  0.00  0.00    +0.037 A 
ATOM      2  C   UNL     1      -5.862  -2.412  -0.201  0.00  0.00    +0.015 A 
ATOM      3  C   UNL     1      -7.006  -3.175  -0.304  0.00  0.00    +0.029 A 
ATOM      4  C   UNL     1      -6.917  -4.552  -0.410  0.00  0.00    +0.110 A 
ATOM      5  C   UNL     1      -5.680  -5.173  -0.414  0.00  0.00    +0.029 A 
ATOM      6  C   UNL     1      -4.527  -4.421  -0.318  0.00  0.00    +0.015 A 
ENDROOT
BRANCH   1  14
ATOM      7  C   UNL     1      -0.017   1.376   0.010  0.00  0.00    +0.021 A 
ATOM      8  C   UNL     1      -1.236   2.040  -0.021  0.00  0.00    +0.056 A 
ATOM      9  C   UNL     1      -2.400   1.285  -0.020  0.00  0.00    +0.217 A 
ATOM     10  C   UNL     1      -2.303  -0.107   0.012  0.00  0.00    +0.151 A 
ATOM     11  N   UNL     1      -1.121  -0.698   0.041  0.00  0.00    -0.346 N 
ATOM     12  C   UNL     1       0.002  -0.004   0.040  0.00  0.00    +0.084 A 
ATOM     13  N   UNL     1      -3.464  -0.880   0.014  0.00  0.00    -0.265 N 
ATOM     14  C   UNL     1      -3.380  -2.221  -0.095  0.00  0.00    +0.249 C 
ATOM     15  O   UNL     1      -2.292  -2.763  -0.104  0.00  0.00    -0.270 OA
ATOM     16  O   UNL     1      -3.616   1.892  -0.049  0.00  0.00    -0.284 OA
ATOM     17  H   UNL     1      -4.331  -0.454   0.094  0.00  0.00    +0.157 HD
ATOM     18  H   UNL     1      -1.077  -1.667   0.063  0.00  0.00    +0.167 HD
ENDBRANCH   1  14
BRANCH   4  19
ATOM     19  S   UNL     1      -8.384  -5.518  -0.541  0.00  0.00    +0.092 S 
ATOM     20  O   UNL     1      -8.054  -6.821  -0.080  0.00  0.00    -0.148 OA
ATOM     21  O   UNL     1      -9.430  -4.748   0.035  0.00  0.00    -0.148 OA
BRANCH  19  22
ATOM     22  N   UNL     1      -8.735  -5.661  -2.153  0.00  0.00    -0.098 NA
BRANCH  22  23
ATOM     23  C   UNL     1      -9.858  -6.385  -2.562  0.00  0.00    +0.074 A 
ATOM     24  C   UNL     1     -10.685  -6.979  -1.618  0.00  0.00    +0.028 A 
ATOM     25  C   UNL     1     -11.795  -7.692  -2.025  0.00  0.00    +0.022 A 
ATOM     26  C   UNL     1     -12.083  -7.816  -3.373  0.00  0.00    +0.041 A 
ATOM     27  C   UNL     1     -11.261  -7.225  -4.316  0.00  0.00    +0.022 A 
ATOM     28  C   UNL     1     -10.153  -6.505  -3.914  0.00  0.00    +0.028 A 
ATOM     29 CL   UNL     1     -13.479  -8.715  -3.882  0.00  0.00    -0.084 Cl
ENDBRANCH  22  23
ENDBRANCH  19  22
ENDBRANCH   4  19
TORSDOF 4
