REMARK  Name = ZINC66248301
REMARK  5 active torsions:
REMARK  status: ('A' for Active; 'I' for Inactive)
REMARK    1  A    between atoms: N_4  and  C_23
REMARK    2  A    between atoms: C_5  and  N_6
REMARK    3  A    between atoms: N_6  and  S_7
REMARK    4  A    between atoms: S_7  and  C_10
REMARK    5  A    between atoms: C_12  and  C_16
REMARK                            x       y       z     vdW  Elec       q    Type
REMARK                         _______ _______ _______ _____ _____    ______ ____
ROOT
ATOM      1  S   UNL     1      -2.634  -0.195   0.026  0.00  0.00    +0.075 S 
ATOM      2  O   UNL     1      -3.540  -1.289   0.003  0.00  0.00    -0.150 OA
ATOM      3  O   UNL     1      -2.648   0.783   1.057  0.00  0.00    -0.150 OA
ENDROOT
BRANCH   1   4
ATOM      4  C   UNL     1      -2.850   0.671  -1.493  0.00  0.00    +0.126 A 
ATOM      5  C   UNL     1      -2.541   2.015  -1.726  0.00  0.00    +0.061 A 
ATOM      6  C   UNL     1      -2.864   2.283  -3.039  0.00  0.00    +0.104 A 
ATOM      7  N   UNL     1      -3.359   1.123  -3.590  0.00  0.00    -0.355 N 
ATOM      8  H   UNL     1      -3.666   1.016  -4.503  0.00  0.00    +0.166 HD
ATOM      9  C   UNL     1      -3.340   0.152  -2.644  0.00  0.00    +0.112 A 
BRANCH   6  10
ATOM     10  C   UNL     1      -2.709   3.571  -3.724  0.00  0.00    +0.263 C 
ATOM     11  O   UNL     1      -2.257   4.529  -3.125  0.00  0.00    -0.268 OA
ATOM     12  N   UNL     1      -3.067   3.693  -5.018  0.00  0.00    -0.296 N 
ATOM     13  C   UNL     1      -3.629   2.624  -5.856  0.00  0.00    +0.108 C 
ATOM     14  C   UNL     1      -3.857   3.217  -7.262  0.00  0.00    +0.020 C 
ATOM     15  C   UNL     1      -2.885   4.425  -7.292  0.00  0.00    +0.020 C 
ATOM     16  C   UNL     1      -2.965   4.922  -5.825  0.00  0.00    +0.108 C 
ENDBRANCH   6  10
ENDBRANCH   1   4
BRANCH   1  17
ATOM     17  N   UNL     1      -1.110  -0.842   0.009  0.00  0.00    -0.200 N 
ATOM     18  H   UNL     1      -0.992  -1.805   0.003  0.00  0.00    +0.175 HD
BRANCH  17  23
ATOM     19  C   UNL     1      -0.016   1.357   0.009  0.00  0.00    +0.066 A 
ATOM     20  C   UNL     1       1.308   1.803  -0.001  0.00  0.00    +0.136 A 
ATOM     21  N   UNL     1       2.094   0.757  -0.014  0.00  0.00    -0.178 NA
ATOM     22  N   UNL     1       1.297  -0.395  -0.012  0.00  0.00    -0.246 N 
ATOM     23  C   UNL     1       0.002  -0.004   0.002  0.00  0.00    +0.136 A 
BRANCH  22  24
ATOM     24  C   UNL     1       1.780  -1.777  -0.025  0.00  0.00    +0.109 C 
ATOM     25  C   UNL     1       2.641  -2.028   1.215  0.00  0.00    +0.027 C 
ATOM     26  C   UNL     1       3.146  -3.472   1.202  0.00  0.00    +0.002 C 
ATOM     27  C   UNL     1       3.983  -3.709  -0.057  0.00  0.00    +0.000 C 
ATOM     28  C   UNL     1       3.122  -3.458  -1.296  0.00  0.00    +0.002 C 
ATOM     29  C   UNL     1       2.617  -2.014  -1.284  0.00  0.00    +0.027 C 
ENDBRANCH  22  24
ENDBRANCH  17  23
ENDBRANCH   1  17
TORSDOF 5
