REMARK  Name = ZINC02452980
REMARK  7 active torsions:
REMARK  status: ('A' for Active; 'I' for Inactive)
REMARK    1  A    between atoms: C_1  and  C_2
REMARK    2  A    between atoms: C_5  and  N_8
REMARK    3  A    between atoms: C_9  and  C_27
REMARK    4  A    between atoms: C_12  and  S_13
REMARK    5  A    between atoms: S_13  and  C_14
REMARK    6  A    between atoms: C_14  and  C_15
REMARK    7  A    between atoms: N_17  and  C_18
REMARK                            x       y       z     vdW  Elec       q    Type
REMARK                         _______ _______ _______ _____ _____    ______ ____
ROOT
ATOM      1  N   UNL     1      -1.655  -1.979   3.370  0.00  0.00    -0.268 N 
ATOM      2  C   UNL     1      -2.080  -0.884   2.647  0.00  0.00    +0.205 A 
ATOM      3  N   UNL     1      -2.006  -1.212   1.375  0.00  0.00    -0.125 NA
ATOM      4  N   UNL     1      -1.576  -2.417   1.256  0.00  0.00    -0.122 NA
ATOM      5  C   UNL     1      -1.348  -2.937   2.441  0.00  0.00    +0.197 A 
ENDROOT
BRANCH   1  10
ATOM      6  C   UNL     1      -1.266  -2.425   9.015  0.00  0.00    +0.044 C 
ATOM      7  C   UNL     1      -1.370  -2.306   7.516  0.00  0.00    -0.050 A 
ATOM      8  C   UNL     1      -2.268  -3.096   6.822  0.00  0.00    +0.005 A 
ATOM      9  C   UNL     1      -2.365  -2.990   5.448  0.00  0.00    +0.026 A 
ATOM     10  C   UNL     1      -1.559  -2.089   4.764  0.00  0.00    +0.051 A 
ATOM     11  C   UNL     1      -0.654  -1.302   5.464  0.00  0.00    +0.026 A 
ATOM     12  C   UNL     1      -0.566  -1.409   6.838  0.00  0.00    +0.005 A 
ENDBRANCH   1  10
BRANCH   2  13
ATOM     13  C   UNL     1      -2.525   0.407   3.193  0.00  0.00    +0.172 A 
ATOM     14  C   UNL     1      -3.195   1.377   2.510  0.00  0.00    +0.053 A 
ATOM     15  C   UNL     1      -3.419   2.430   3.417  0.00  0.00    +0.042 A 
ATOM     16  C   UNL     1      -2.875   2.062   4.594  0.00  0.00    +0.196 A 
ATOM     17  O   UNL     1      -2.335   0.839   4.456  0.00  0.00    -0.460 OA
ENDBRANCH   2  13
BRANCH   5  18
ATOM     18  S   UNL     1      -0.752  -4.562   2.772  0.00  0.00    -0.076 S 
BRANCH  18  19
ATOM     19  C   UNL     1      -0.587  -5.186   1.082  0.00  0.00    +0.173 C 
BRANCH  19  20
ATOM     20  C   UNL     1      -0.076  -6.604   1.118  0.00  0.00    +0.228 C 
ATOM     21  O   UNL     1       0.154  -7.139   2.182  0.00  0.00    -0.275 OA
ATOM     22  N   UNL     1       0.126  -7.277  -0.032  0.00  0.00    -0.282 N 
ATOM     23  H   UNL     1      -0.161  -6.823  -0.993  0.00  0.00    +0.155 HD
BRANCH  22  24
ATOM     24  C   UNL     1       0.701  -8.555  -0.005  0.00  0.00    +0.083 A 
ATOM     25  C   UNL     1       2.084  -8.696   0.022  0.00  0.00    +0.148 A 
ATOM     26  C   UNL     1       2.648  -9.958   0.054  0.00  0.00    +0.078 A 
ATOM     27  C   UNL     1       1.836 -11.081   0.048  0.00  0.00    +0.127 A 
ATOM     28  C   UNL     1       0.459 -10.942   0.016  0.00  0.00    +0.055 A 
ATOM     29  C   UNL     1      -0.110  -9.682  -0.010  0.00  0.00    +0.045 A 
ATOM     30 BR   UNL     1      -1.991  -9.495  -0.055  0.00  0.00    -0.048 Br
ATOM     31  F   UNL     1       2.390 -12.313   0.073  0.00  0.00    -0.205 F 
ATOM     32  F   UNL     1       2.875  -7.601   0.023  0.00  0.00    -0.203 F 
ENDBRANCH  22  24
ENDBRANCH  19  20
ENDBRANCH  18  19
ENDBRANCH   5  18
TORSDOF 6
