REMARK  Name = ZINC14911479
REMARK  5 active torsions:
REMARK  status: ('A' for Active; 'I' for Inactive)
REMARK    1  A    between atoms: C_1  and  C_2
REMARK    2  A    between atoms: C_3  and  C_25
REMARK    3  A    between atoms: C_8  and  C_10
REMARK    4  A    between atoms: C_10  and  N_11
REMARK    5  A    between atoms: C_19  and  C_21
REMARK                            x       y       z     vdW  Elec       q    Type
REMARK                         _______ _______ _______ _____ _____    ______ ____
ROOT
ATOM      1  C   UNL     1      -3.303  -7.691   0.330  0.00  0.00    +0.054 C 
ATOM      2  C   UNL     1      -3.752  -6.437   1.036  0.00  0.00    +0.016 A 
ATOM      3  C   UNL     1      -4.867  -6.215   1.794  0.00  0.00    +0.083 A 
ATOM      4  N   UNL     1      -5.060  -5.019   2.331  0.00  0.00    -0.224 NA
ATOM      5  C   UNL     1      -4.201  -4.035   2.140  0.00  0.00    +0.165 A 
ATOM      6  S   UNL     1      -2.972  -4.830   1.115  0.00  0.00    -0.057 S 
ATOM      7  N   UNL     1      -4.239  -2.730   2.615  0.00  0.00    -0.263 N 
ATOM      8  C   UNL     1      -3.248  -1.871   2.306  0.00  0.00    +0.237 C 
ATOM      9  O   UNL     1      -2.322  -2.238   1.613  0.00  0.00    -0.274 OA
ATOM     10  H   UNL     1      -4.980  -2.437   3.168  0.00  0.00    +0.157 HD
ENDROOT
BRANCH   3  11
ATOM     11  C   UNL     1      -5.850  -7.303   2.019  0.00  0.00    +0.001 A 
ATOM     12  C   UNL     1      -7.216  -7.038   1.947  0.00  0.00    +0.011 A 
ATOM     13  C   UNL     1      -8.126  -8.055   2.151  0.00  0.00    +0.016 A 
ATOM     14  C   UNL     1      -7.683  -9.335   2.438  0.00  0.00    +0.018 A 
ATOM     15  C   UNL     1      -6.327  -9.603   2.516  0.00  0.00    +0.016 A 
ATOM     16  C   UNL     1      -5.409  -8.594   2.308  0.00  0.00    +0.011 A 
ATOM     17 BR   UNL     1      -8.935 -10.723   2.724  0.00  0.00    -0.050 Br
ENDBRANCH   3  11
BRANCH   8  18
ATOM     18  C   UNL     1      -3.289  -0.456   2.821  0.00  0.00    +0.214 C 
BRANCH  18  19
ATOM     19  N   UNL     1      -2.107   0.270   2.350  0.00  0.00    -0.215 N 
ATOM     20  C   UNL     1      -2.053   0.962   1.192  0.00  0.00    +0.247 C 
ATOM     21  O   UNL     1      -2.938   1.096   0.376  0.00  0.00    -0.273 OA
ATOM     22  C   UNL     1      -0.655   1.534   1.129  0.00  0.00    +0.115 C 
ATOM     23  C   UNL     1       0.084   0.997  -0.091  0.00  0.00    +0.035 C 
ATOM     24  C   UNL     1      -0.621   1.471  -1.365  0.00  0.00    +0.003 C 
ATOM     25  C   UNL     1      -0.645   3.001  -1.394  0.00  0.00    +0.000 C 
ATOM     26  C   UNL     1      -1.407   3.524  -0.175  0.00  0.00    +0.006 C 
ATOM     27  C   UNL     1      -0.706   3.058   1.103  0.00  0.00    +0.018 C 
ATOM     28  C   UNL     1      -1.479   3.563   2.323  0.00  0.00    +0.010 C 
ATOM     29  N   UNL     1      -0.020   1.061   2.366  0.00  0.00    -0.285 N 
ATOM     30  C   UNL     1      -0.946   0.330   3.014  0.00  0.00    +0.310 C 
ATOM     31  O   UNL     1      -0.750  -0.215   4.083  0.00  0.00    -0.252 OA
ATOM     32  H   UNL     1       0.888   1.240   2.657  0.00  0.00    +0.151 HD
ENDBRANCH  18  19
ENDBRANCH   8  18
TORSDOF 3
