REMARK  Name = ZINC40115549
REMARK  10 active torsions:
REMARK  status: ('A' for Active; 'I' for Inactive)
REMARK    1  A    between atoms: C_1  and  C_2
REMARK    2  A    between atoms: C_2  and  O_3
REMARK    3  A    between atoms: O_3  and  C_4
REMARK    4  A    between atoms: C_4  and  C_5
REMARK    5  A    between atoms: C_5  and  C_6
REMARK    6  A    between atoms: C_6  and  N_7
REMARK    7  A    between atoms: C_8  and  C_10
REMARK    8  A    between atoms: C_14  and  N_15
REMARK    9  A    between atoms: C_16  and  C_18
REMARK   10  A    between atoms: C_19  and  C_28
REMARK                            x       y       z     vdW  Elec       q    Type
REMARK                         _______ _______ _______ _____ _____    ______ ____
ROOT
ATOM      1  C   UNL     1      -6.159  -5.966   0.029  0.00  0.00    +0.069 A 
ATOM      2  C   UNL     1      -6.901  -6.171  -1.214  0.00  0.00    -0.023 A 
ATOM      3  C   UNL     1      -8.185  -6.531  -1.032  0.00  0.00    -0.004 A 
ATOM      4  S   UNL     1      -8.387  -6.596   0.730  0.00  0.00    -0.077 S 
ATOM      5  C   UNL     1      -6.840  -6.168   1.215  0.00  0.00    +0.085 A 
ATOM      6  C   UNL     1      -8.903  -6.725  -2.340  0.00  0.00    +0.043 C 
ATOM      7  C   UNL     1      -8.010  -6.019  -3.384  0.00  0.00    +0.010 C 
ATOM      8  C   UNL     1      -6.623  -6.092  -2.713  0.00  0.00    +0.037 C 
ENDROOT
BRANCH   1  10
ATOM      9  N   UNL     1      -4.415  -4.263   0.021  0.00  0.00    -0.311 N 
ATOM     10  C   UNL     1      -4.747  -5.569   0.018  0.00  0.00    +0.247 C 
ATOM     11  O   UNL     1      -3.876  -6.419   0.005  0.00  0.00    -0.270 OA
ATOM     12  H   UNL     1      -5.109  -3.586   0.032  0.00  0.00    +0.149 HD
BRANCH   9  13
ATOM     13  C   UNL     1      -3.005  -3.866   0.010  0.00  0.00    +0.107 C 
BRANCH  13  14
ATOM     14  C   UNL     1      -2.905  -2.339   0.017  0.00  0.00    +0.047 C 
BRANCH  14  15
ATOM     15  C   UNL     1      -1.432  -1.925   0.005  0.00  0.00    +0.161 C 
BRANCH  15  16
ATOM     16  O   UNL     1      -1.339  -0.499   0.012  0.00  0.00    -0.380 OA
BRANCH  16  18
ATOM     17  C   UNL     1      -0.019   1.526   0.010  0.00  0.00    +0.034 C 
ATOM     18  C   UNL     1       0.002  -0.004   0.002  0.00  0.00    +0.156 C 
ENDBRANCH  16  18
ENDBRANCH  15  16
ENDBRANCH  14  15
ENDBRANCH  13  14
ENDBRANCH   9  13
ENDBRANCH   1  10
BRANCH   5  19
ATOM     19  N   UNL     1      -6.357  -6.044   2.507  0.00  0.00    -0.273 N 
ATOM     20  C   UNL     1      -7.169  -6.281   3.556  0.00  0.00    +0.284 C 
ATOM     21  O   UNL     1      -8.326  -6.605   3.369  0.00  0.00    -0.266 OA
ATOM     22  H   UNL     1      -5.434  -5.786   2.657  0.00  0.00    +0.156 HD
BRANCH  20  23
ATOM     23  C   UNL     1      -6.656  -6.149   4.926  0.00  0.00    +0.194 A 
ATOM     24  C   UNL     1      -7.378  -6.368   6.056  0.00  0.00    +0.008 A 
ATOM     25  C   UNL     1      -6.468  -6.120   7.173  0.00  0.00    +0.024 A 
ATOM     26  C   UNL     1      -6.596  -6.172   8.564  0.00  0.00    +0.013 A 
ATOM     27  C   UNL     1      -5.523  -5.874   9.354  0.00  0.00    +0.016 A 
ATOM     28  C   UNL     1      -4.306  -5.520   8.785  0.00  0.00    +0.021 A 
ATOM     29  C   UNL     1      -4.159  -5.464   7.415  0.00  0.00    +0.062 A 
ATOM     30  C   UNL     1      -5.237  -5.763   6.591  0.00  0.00    +0.137 A 
ATOM     31  O   UNL     1      -5.394  -5.798   5.253  0.00  0.00    -0.450 OA
ATOM     32 BR   UNL     1      -2.835  -5.112   9.901  0.00  0.00    -0.050 Br
ATOM     33  C   UNL     1      -8.825  -6.780   6.141  0.00  0.00    +0.048 C 
ENDBRANCH  20  23
ENDBRANCH   5  19
TORSDOF 8
