REMARK  Name = ZINC11815649
REMARK  7 active torsions:
REMARK  status: ('A' for Active; 'I' for Inactive)
REMARK    1  A    between atoms: C_1  and  C_2
REMARK    2  A    between atoms: C_10  and  S_11
REMARK    3  A    between atoms: S_11  and  N_14
REMARK    4  A    between atoms: N_14  and  C_15
REMARK    5  A    between atoms: C_18  and  N_21
REMARK    6  A    between atoms: C_23  and  C_26
REMARK    7  A    between atoms: N_28  and  C_29
REMARK                            x       y       z     vdW  Elec       q    Type
REMARK                         _______ _______ _______ _____ _____    ______ ____
ROOT
ATOM      1  C   UNL     1      -1.991   5.607  -2.389  0.00  0.00    +0.077 C 
ATOM      2  C   UNL     1      -1.365   4.457  -3.181  0.00  0.00    +0.022 C 
ATOM      3  C   UNL     1      -0.230   4.998  -4.053  0.00  0.00    +0.028 C 
ATOM      4  C   UNL     1      -0.785   6.044  -5.023  0.00  0.00    +0.109 C 
ATOM      5  C   UNL     1      -1.411   7.193  -4.230  0.00  0.00    +0.028 C 
ATOM      6  C   UNL     1      -2.546   6.652  -3.358  0.00  0.00    +0.022 C 
ENDROOT
BRANCH   4   7
ATOM      7  N   UNL     1       0.302   6.561  -5.857  0.00  0.00    -0.248 N 
ATOM      8  C   UNL     1       1.580   6.764  -5.478  0.00  0.00    +0.143 A 
ATOM      9  C   UNL     1       2.243   7.251  -6.569  0.00  0.00    +0.167 A 
ATOM     10  N   UNL     1       1.373   7.347  -7.588  0.00  0.00    -0.125 NA
ATOM     11  N   UNL     1       0.212   6.947  -7.203  0.00  0.00    -0.065 NA
BRANCH   9  12
ATOM     12  C   UNL     1       3.672   7.614  -6.617  0.00  0.00    +0.266 C 
ATOM     13  O   UNL     1       4.367   7.484  -5.628  0.00  0.00    -0.268 OA
ATOM     14  N   UNL     1       4.208   8.091  -7.758  0.00  0.00    -0.307 N 
ATOM     15  H   UNL     1       3.654   8.194  -8.548  0.00  0.00    +0.149 HD
BRANCH  14  16
ATOM     16  C   UNL     1       5.627   8.451  -7.806  0.00  0.00    +0.073 C 
ATOM     17  C   UNL     1       6.000   9.760  -8.505  0.00  0.00    +0.024 C 
ATOM     18  C   UNL     1       6.318   8.419  -9.171  0.00  0.00    +0.024 C 
ENDBRANCH  14  16
ENDBRANCH   9  12
ENDBRANCH   4   7
BRANCH   1  19
ATOM     19  N   UNL     1      -0.972   6.224  -1.536  0.00  0.00    -0.186 NA
ATOM     20  H   UNL     1      -0.390   6.912  -1.896  0.00  0.00    +0.148 HD
BRANCH  19  21
ATOM     21  S   UNL     1      -0.812   5.747   0.042  0.00  0.00    +0.065 S 
ATOM     22  O   UNL     1      -2.117   5.763   0.605  0.00  0.00    -0.153 OA
ATOM     23  O   UNL     1       0.263   6.499   0.587  0.00  0.00    -0.153 OA
BRANCH  21  33
ATOM     24  C   UNL     1       2.137   4.522   0.006  0.00  0.00    +0.047 C 
ATOM     25  C   UNL     1       0.959   3.582   0.012  0.00  0.00    -0.009 A 
ATOM     26  C   UNL     1       1.169   2.141   0.002  0.00  0.00    -0.005 A 
ATOM     27  C   UNL     1       2.388   1.423  -0.013  0.00  0.00    +0.029 A 
ATOM     28  C   UNL     1       2.394   0.063  -0.021  0.00  0.00    +0.042 A 
ATOM     29  C   UNL     1       1.212  -0.668  -0.013  0.00  0.00    +0.021 A 
ATOM     30  C   UNL     1       0.002  -0.004   0.002  0.00  0.00    +0.017 A 
ATOM     31  C   UNL     1      -0.017   1.374   0.010  0.00  0.00    +0.022 A 
ATOM     32  S   UNL     1      -1.304   2.595   0.021  0.00  0.00    -0.068 S 
ATOM     33  C   UNL     1      -0.292   4.063   0.027  0.00  0.00    +0.146 A 
ATOM     34 CL   UNL     1       3.912  -0.779  -0.039  0.00  0.00    -0.084 Cl
ENDBRANCH  21  33
ENDBRANCH  19  21
ENDBRANCH   1  19
TORSDOF 6
