REMARK  Name = ZINC11096072
REMARK  9 active torsions:
REMARK  status: ('A' for Active; 'I' for Inactive)
REMARK    1  A    between atoms: C_1  and  O_2
REMARK    2  A    between atoms: O_2  and  C_3
REMARK    3  A    between atoms: C_5  and  N_20
REMARK    4  A    between atoms: C_6  and  O_18
REMARK    5  A    between atoms: C_8  and  N_9
REMARK    6  A    between atoms: C_10  and  C_12
REMARK    7  A    between atoms: O_18  and  C_19
REMARK    8  A    between atoms: C_21  and  C_23
REMARK    9  A    between atoms: C_29  and  C_31
REMARK                            x       y       z     vdW  Elec       q    Type
REMARK                         _______ _______ _______ _____ _____    ______ ____
ROOT
ATOM      1  C   UNL     1       2.308  -6.223  -1.625  0.00  0.00    +0.143 A 
ATOM      2  C   UNL     1       2.147  -4.852  -1.513  0.00  0.00    +0.074 A 
ATOM      3  C   UNL     1       2.696  -4.010  -2.469  0.00  0.00    +0.079 A 
ATOM      4  C   UNL     1       3.405  -4.542  -3.542  0.00  0.00    +0.143 A 
ATOM      5  C   UNL     1       3.571  -5.913  -3.651  0.00  0.00    +0.074 A 
ATOM      6  C   UNL     1       3.021  -6.756  -2.695  0.00  0.00    +0.079 A 
ENDROOT
BRANCH   6   7
ATOM      7  N   UNL     1       3.185  -8.144  -2.808  0.00  0.00    -0.278 N 
ATOM      8  C   UNL     1       4.321  -8.649  -3.328  0.00  0.00    +0.248 C 
ATOM      9  O   UNL     1       5.242  -7.907  -3.611  0.00  0.00    -0.270 OA
ATOM     10  H   UNL     1       2.480  -8.741  -2.511  0.00  0.00    +0.155 HD
BRANCH   8  11
ATOM     11  C   UNL     1       4.447 -10.104  -3.555  0.00  0.00    +0.037 A 
ATOM     12  C   UNL     1       3.393 -10.958  -3.227  0.00  0.00    +0.013 A 
ATOM     13  C   UNL     1       3.515 -12.315  -3.447  0.00  0.00    +0.001 A 
ATOM     14  C   UNL     1       4.683 -12.830  -3.981  0.00  0.00    +0.000 A 
ATOM     15  C   UNL     1       5.734 -11.989  -4.304  0.00  0.00    +0.001 A 
ATOM     16  C   UNL     1       5.622 -10.630  -4.094  0.00  0.00    +0.013 A 
ENDBRANCH   8  11
ENDBRANCH   6   7
BRANCH   3  17
ATOM     17  N   UNL     1       2.532  -2.621  -2.356  0.00  0.00    -0.282 N 
ATOM     18  C   UNL     1       2.303  -2.065  -1.150  0.00  0.00    +0.220 C 
ATOM     19  O   UNL     1       2.335  -2.751  -0.150  0.00  0.00    -0.275 OA
ATOM     20  H   UNL     1       2.584  -2.061  -3.147  0.00  0.00    +0.155 HD
BRANCH  18  21
ATOM     21  C   UNL     1       2.008  -0.591  -1.044  0.00  0.00    +0.078 C 
ATOM     22  C   UNL     1       1.788  -0.220   0.424  0.00  0.00    +0.032 C 
ATOM     23  C   UNL     1       1.455   1.272   0.525  0.00  0.00    +0.109 C 
ATOM     24  N   UNL     1       2.517   2.040  -0.139  0.00  0.00    -0.297 N 
ATOM     25  C   UNL     1       2.871   1.703  -1.525  0.00  0.00    +0.109 C 
ATOM     26  C   UNL     1       3.189   0.207  -1.603  0.00  0.00    +0.032 C 
ATOM     27  C   UNL     1       3.154   3.034   0.510  0.00  0.00    +0.247 C 
ATOM     28  O   UNL     1       4.096   3.596  -0.013  0.00  0.00    -0.270 OA
BRANCH  27  29
ATOM     29  C   UNL     1       2.708   3.441   1.859  0.00  0.00    +0.037 A 
ATOM     30  C   UNL     1       1.355   3.377   2.199  0.00  0.00    +0.014 A 
ATOM     31  C   UNL     1       0.945   3.752   3.461  0.00  0.00    +0.021 A 
ATOM     32  C   UNL     1       1.871   4.203   4.387  0.00  0.00    +0.041 A 
ATOM     33  C   UNL     1       3.213   4.275   4.054  0.00  0.00    +0.021 A 
ATOM     34  C   UNL     1       3.636   3.897   2.797  0.00  0.00    +0.014 A 
ATOM     35 CL   UNL     1       1.347   4.680   5.972  0.00  0.00    -0.084 Cl
ENDBRANCH  27  29
ENDBRANCH  18  21
ENDBRANCH   3  17
BRANCH   1  37
ATOM     36  C   UNL     1       1.051  -6.435   0.384  0.00  0.00    +0.277 C 
ATOM     37  O   UNL     1       1.769  -7.050  -0.688  0.00  0.00    -0.493 OA
ENDBRANCH   1  37
BRANCH   4  38
ATOM     38  O   UNL     1       3.939  -3.716  -4.482  0.00  0.00    -0.493 OA
ATOM     39  C   UNL     1       4.653  -4.331  -5.556  0.00  0.00    +0.277 C 
ENDBRANCH   4  38
TORSDOF 7
