REMARK  Name = ZINC36311773
REMARK  8 active torsions:
REMARK  status: ('A' for Active; 'I' for Inactive)
REMARK    1  A    between atoms: C_1  and  C_2
REMARK    2  A    between atoms: C_2  and  C_3
REMARK    3  A    between atoms: C_2  and  C_4
REMARK    4  A    between atoms: C_7  and  N_10
REMARK    5  A    between atoms: C_11  and  C_13
REMARK    6  A    between atoms: C_13  and  C_15
REMARK    7  A    between atoms: C_13  and  N_20
REMARK    8  A    between atoms: C_26  and  C_28
REMARK                            x       y       z     vdW  Elec       q    Type
REMARK                         _______ _______ _______ _____ _____    ______ ____
ROOT
ATOM      1  C   UNL     1       2.483  -2.852   6.269  0.00  0.00    +0.023 C 
ENDROOT
BRANCH   1   2
ATOM      2  N   UNL     1       1.760  -3.603   7.304  0.00  0.00    +0.390 N 
ATOM      3  C   UNL     1       1.451  -4.948   6.803  0.00  0.00    -0.058 C 
ATOM      4  C   UNL     1       0.799  -5.771   7.920  0.00  0.00    +0.089 C 
ATOM      5  N   UNL     1      -0.366  -5.029   8.426  0.00  0.00    -0.301 N 
ATOM      6  C   UNL     1      -0.181  -3.618   8.799  0.00  0.00    +0.089 C 
ATOM      7  C   UNL     1       0.517  -2.897   7.641  0.00  0.00    -0.058 C 
ATOM      8  C   UNL     1      -1.569  -5.625   8.545  0.00  0.00    +0.247 C 
ATOM      9  O   UNL     1      -2.536  -4.977   8.894  0.00  0.00    -0.270 OA
ATOM     10  H   UNL     1       2.337  -3.678   8.129  0.00  0.00    -0.081 HD
BRANCH   8  11
ATOM     11  C   UNL     1      -1.712  -7.066   8.250  0.00  0.00    +0.038 A 
ATOM     12  C   UNL     1      -0.750  -7.973   8.700  0.00  0.00    +0.013 A 
ATOM     13  C   UNL     1      -0.889  -9.316   8.422  0.00  0.00    +0.002 A 
ATOM     14  C   UNL     1      -1.979  -9.768   7.699  0.00  0.00    +0.015 A 
ATOM     15  C   UNL     1      -2.936  -8.875   7.249  0.00  0.00    +0.019 A 
ATOM     16  C   UNL     1      -2.812  -7.528   7.527  0.00  0.00    +0.028 A 
ATOM     17 BR   UNL     1      -4.421  -9.502   6.260  0.00  0.00    -0.050 Br
ENDBRANCH   8  11
ENDBRANCH   1   2
BRANCH   1  18
ATOM     18  C   UNL     1       3.731  -3.632   5.851  0.00  0.00    -0.016 C 
ATOM     19  C   UNL     1       4.662  -3.829   7.064  0.00  0.00    +0.002 C 
ATOM     20  C   UNL     1       6.088  -3.694   6.475  0.00  0.00    +0.000 C 
ATOM     21  C   UNL     1       5.919  -2.567   5.427  0.00  0.00    +0.000 C 
ATOM     22  C   UNL     1       4.530  -2.829   4.810  0.00  0.00    +0.002 C 
ENDBRANCH   1  18
BRANCH   1  24
ATOM     23  N   UNL     1       1.726  -1.560   4.301  0.00  0.00    -0.287 N 
ATOM     24  C   UNL     1       1.588  -2.656   5.073  0.00  0.00    +0.204 C 
ATOM     25  O   UNL     1       0.744  -3.485   4.805  0.00  0.00    -0.277 OA
ATOM     26  H   UNL     1       2.440  -0.928   4.478  0.00  0.00    +0.155 HD
BRANCH  23  30
ATOM     27  C   UNL     1      -0.918  -0.884   1.153  0.00  0.00    -0.045 A 
ATOM     28  C   UNL     1      -0.506   0.171   1.946  0.00  0.00    +0.006 A 
ATOM     29  C   UNL     1       0.370  -0.050   2.991  0.00  0.00    +0.023 A 
ATOM     30  C   UNL     1       0.837  -1.333   3.244  0.00  0.00    +0.033 A 
ATOM     31  C   UNL     1       0.422  -2.390   2.445  0.00  0.00    +0.023 A 
ATOM     32  C   UNL     1      -0.459  -2.163   1.405  0.00  0.00    +0.006 A 
BRANCH  27  34
ATOM     33  C   UNL     1      -3.176  -0.049   0.559  0.00  0.00    +0.012 C 
ATOM     34  C   UNL     1      -1.874  -0.639   0.014  0.00  0.00    +0.013 C 
ATOM     35  C   UNL     1      -1.246   0.341  -0.978  0.00  0.00    +0.012 C 
ENDBRANCH  27  34
ENDBRANCH  23  30
ENDBRANCH   1  24
TORSDOF 6
