REMARK  Name = ZINC36736446
REMARK  7 active torsions:
REMARK  status: ('A' for Active; 'I' for Inactive)
REMARK    1  A    between atoms: C_1  and  C_2
REMARK    2  A    between atoms: C_4  and  S_10
REMARK    3  A    between atoms: C_6  and  C_7
REMARK    4  A    between atoms: S_10  and  N_13
REMARK    5  A    between atoms: N_13  and  C_14
REMARK    6  A    between atoms: C_15  and  C_21
REMARK    7  A    between atoms: C_19  and  C_20
REMARK                            x       y       z     vdW  Elec       q    Type
REMARK                         _______ _______ _______ _____ _____    ______ ____
ROOT
ATOM      1  S   UNL     1      -0.114  -3.218  -1.746  0.00  0.00    +0.079 S 
ATOM      2  O   UNL     1      -0.463  -4.526  -1.315  0.00  0.00    -0.149 OA
ATOM      3  O   UNL     1      -0.944  -2.453  -2.609  0.00  0.00    -0.149 OA
ENDROOT
BRANCH   1   7
ATOM      4  C   UNL     1       0.346   1.157   1.261  0.00  0.00    +0.045 C 
ATOM      5  C   UNL     1       0.328  -0.336   1.057  0.00  0.00    -0.027 A 
ATOM      6  C   UNL     1       0.126  -0.902  -0.176  0.00  0.00    +0.040 A 
ATOM      7  C   UNL     1       0.122  -2.255  -0.290  0.00  0.00    +0.147 A 
ATOM      8  S   UNL     1       0.391  -2.800   1.276  0.00  0.00    -0.061 S 
ATOM      9  C   UNL     1       0.520  -1.228   2.106  0.00  0.00    +0.105 A 
BRANCH   9  10
ATOM     10  C   UNL     1       0.754  -0.957   3.477  0.00  0.00    +0.393 C 
ATOM     11  O   UNL     1       0.810   0.201   3.873  0.00  0.00    -0.240 OA
ATOM     12  O   UNL     1       0.902  -1.882   4.267  0.00  0.00    -0.240 OA
ENDBRANCH   9  10
ENDBRANCH   1   7
BRANCH   1  13
ATOM     13  N   UNL     1       1.359  -3.344  -2.493  0.00  0.00    -0.212 N 
ATOM     14  H   UNL     1       1.503  -2.920  -3.354  0.00  0.00    +0.174 HD
BRANCH  13  15
ATOM     15  C   UNL     1       2.401  -4.064  -1.879  0.00  0.00    +0.091 A 
ATOM     16  C   UNL     1       3.528  -3.536  -1.340  0.00  0.00    +0.056 A 
ATOM     17  N   UNL     1       4.271  -4.565  -0.852  0.00  0.00    -0.280 N 
ATOM     18  H   UNL     1       5.130  -4.489  -0.409  0.00  0.00    +0.189 HD
ATOM     19  N   UNL     1       3.574  -5.754  -1.103  0.00  0.00    -0.177 NA
ATOM     20  C   UNL     1       2.455  -5.455  -1.711  0.00  0.00    +0.082 A 
ATOM     21  C   UNL     1       1.405  -6.439  -2.159  0.00  0.00    +0.069 C 
ATOM     22  C   UNL     1       3.891  -2.074  -1.291  0.00  0.00    +0.067 C 
ENDBRANCH  13  15
ENDBRANCH   1  13
TORSDOF 4
