REMARK  Name = ZINC40814981
REMARK  6 active torsions:
REMARK  status: ('A' for Active; 'I' for Inactive)
REMARK    1  A    between atoms: C_1  and  C_2
REMARK    2  A    between atoms: C_6  and  C_7
REMARK    3  A    between atoms: N_9  and  C_10
REMARK    4  A    between atoms: N_21  and  N_22
REMARK    5  A    between atoms: N_22  and  S_23
REMARK    6  A    between atoms: S_23  and  C_26
REMARK                            x       y       z     vdW  Elec       q    Type
REMARK                         _______ _______ _______ _____ _____    ______ ____
ROOT
ATOM      1  C   UNL     1      -0.004   1.502   0.009  0.00  0.00    +0.048 C 
ATOM      2  C   UNL     1       0.022  -0.005   0.002  0.00  0.00    +0.009 A 
ATOM      3  C   UNL     1       0.040  -0.839  -1.123  0.00  0.00    +0.042 A 
ATOM      4  C   UNL     1       0.059  -2.137  -0.673  0.00  0.00    +0.115 A 
ATOM      5  O   UNL     1       0.058  -2.112   0.658  0.00  0.00    -0.454 OA
ATOM      6  C   UNL     1       0.040  -0.831   1.091  0.00  0.00    +0.193 A 
ATOM      7  C   UNL     1       0.077  -3.326  -1.600  0.00  0.00    +0.075 C 
ATOM      8  C   UNL     1      -0.439  -2.904  -2.979  0.00  0.00    +0.014 C 
ATOM      9  C   UNL     1       0.331  -1.683  -3.494  0.00  0.00    +0.058 C 
ATOM     10  C   UNL     1       0.042  -0.512  -2.567  0.00  0.00    +0.071 C 
ATOM     11  N   UNL     1      -0.186   0.685  -3.010  0.00  0.00    -0.170 NA
ENDROOT
BRANCH   6  12
ATOM     12  C   UNL     1       0.036  -0.400   2.493  0.00  0.00    +0.284 C 
ATOM     13  O   UNL     1       0.016   0.786   2.765  0.00  0.00    -0.266 OA
ATOM     14  N   UNL     1       0.054  -1.318   3.480  0.00  0.00    -0.277 N 
ATOM     15  H   UNL     1      -0.011  -2.262   3.266  0.00  0.00    +0.155 HD
BRANCH  14  16
ATOM     16  C   UNL     1       0.168  -0.909   4.814  0.00  0.00    +0.069 A 
ATOM     17  C   UNL     1       0.760   0.309   5.120  0.00  0.00    +0.026 A 
ATOM     18  C   UNL     1       0.870   0.710   6.438  0.00  0.00    +0.002 A 
ATOM     19  C   UNL     1       0.392  -0.100   7.452  0.00  0.00    +0.003 A 
ATOM     20  C   UNL     1      -0.199  -1.313   7.152  0.00  0.00    +0.040 A 
ATOM     21  C   UNL     1      -0.318  -1.719   5.835  0.00  0.00    +0.144 A 
ATOM     22  F   UNL     1      -0.900  -2.902   5.541  0.00  0.00    -0.204 F 
ENDBRANCH  14  16
ENDBRANCH   6  12
BRANCH  11  23
ATOM     23  N   UNL     1      -0.172   0.937  -4.388  0.00  0.00    -0.136 N 
ATOM     24  H   UNL     1       0.008   0.216  -5.011  0.00  0.00    +0.197 HD
BRANCH  23  25
ATOM     25  S   UNL     1      -0.464   2.466  -4.953  0.00  0.00    +0.086 S 
ATOM     26  O   UNL     1      -0.240   2.430  -6.356  0.00  0.00    -0.149 OA
ATOM     27  O   UNL     1      -1.701   2.879  -4.390  0.00  0.00    -0.149 OA
BRANCH  25  28
ATOM     28  C   UNL     1       0.775   3.518  -4.272  0.00  0.00    +0.110 A 
ATOM     29  C   UNL     1       0.560   4.142  -3.057  0.00  0.00    +0.029 A 
ATOM     30  C   UNL     1       1.532   4.967  -2.523  0.00  0.00    +0.002 A 
ATOM     31  C   UNL     1       2.719   5.169  -3.203  0.00  0.00    +0.000 A 
ATOM     32  C   UNL     1       2.933   4.544  -4.418  0.00  0.00    +0.002 A 
ATOM     33  C   UNL     1       1.963   3.715  -4.950  0.00  0.00    +0.029 A 
ENDBRANCH  25  28
ENDBRANCH  23  25
ENDBRANCH  11  23
TORSDOF 5
