REMARK  Name = ZINC00058554
REMARK  5 active torsions:
REMARK  status: ('A' for Active; 'I' for Inactive)
REMARK    1  A    between atoms: C_4  and  C_7
REMARK    2  A    between atoms: C_10  and  C_13
REMARK    3  A    between atoms: C_15  and  C_25
REMARK    4  A    between atoms: C_20  and  N_24
REMARK    5  A    between atoms: C_21  and  C_22
REMARK                            x       y       z     vdW  Elec       q    Type
REMARK                         _______ _______ _______ _____ _____    ______ ____
ROOT
ATOM      1  C   UNL     1       7.434  -2.768  -0.085  0.00  0.00    +0.085 C 
ATOM      2  C   UNL     1       7.540  -3.604   1.183  0.00  0.00    +0.159 C 
ATOM      3  C   UNL     1       8.796  -4.455   1.105  0.00  0.00    +0.089 C 
ATOM      4  N   UNL     1       9.774  -4.315   1.940  0.00  0.00    -0.296 NA
ATOM      5  S   UNL     1       8.836  -5.652  -0.202  0.00  0.00    -0.058 S 
ATOM      6  C   UNL     1       8.098  -4.757  -1.533  0.00  0.00    +0.079 C 
ATOM      7  C   UNL     1       7.519  -3.561  -1.340  0.00  0.00    +0.066 C 
ATOM      8  H   UNL     1       9.720  -3.650   2.643  0.00  0.00    +0.187 HD
ENDROOT
BRANCH   1  12
ATOM      9  C   UNL     1       3.699  -0.689  -0.037  0.00  0.00    -0.018 A 
ATOM     10  C   UNL     1       4.896   0.024  -0.040  0.00  0.00    +0.009 A 
ATOM     11  C   UNL     1       6.099  -0.652  -0.055  0.00  0.00    +0.005 A 
ATOM     12  C   UNL     1       6.118  -2.035  -0.068  0.00  0.00    -0.038 A 
ATOM     13  C   UNL     1       4.932  -2.748  -0.066  0.00  0.00    +0.005 A 
ATOM     14  C   UNL     1       3.724  -2.082  -0.045  0.00  0.00    +0.009 A 
BRANCH   9  18
ATOM     15  C   UNL     1      -0.017   1.379   0.010  0.00  0.00    +0.000 A 
ATOM     16  C   UNL     1       1.169   2.092   0.002  0.00  0.00    +0.001 A 
ATOM     17  C   UNL     1       2.377   1.426  -0.013  0.00  0.00    +0.008 A 
ATOM     18  C   UNL     1       2.402   0.033  -0.021  0.00  0.00    -0.018 A 
ATOM     19  C   UNL     1       1.205  -0.680  -0.013  0.00  0.00    +0.008 A 
ATOM     20  C   UNL     1       0.002  -0.004   0.002  0.00  0.00    +0.001 A 
ENDBRANCH   9  18
ENDBRANCH   1  12
BRANCH   6  21
ATOM     21  N   UNL     1       8.114  -5.300  -2.796  0.00  0.00    -0.352 N 
ATOM     22  H   UNL     1       8.528  -6.164  -2.948  0.00  0.00    +0.143 HD
ATOM     23  H   UNL     1       7.712  -4.818  -3.536  0.00  0.00    +0.143 HD
ENDBRANCH   6  21
BRANCH   7  24
ATOM     24  C   UNL     1       6.907  -2.972  -2.493  0.00  0.00    +0.098 C 
ATOM     25  N   UNL     1       6.422  -2.505  -3.408  0.00  0.00    -0.191 NA
ENDBRANCH   7  24
BRANCH   2  26
ATOM     26  C   UNL     1       6.358  -4.474   1.301  0.00  0.00    +0.074 C 
ATOM     27  N   UNL     1       5.446  -5.145   1.392  0.00  0.00    -0.196 NA
ENDBRANCH   2  26
TORSDOF 5
