REMARK  Name = ZINC09155191
REMARK  7 active torsions:
REMARK  status: ('A' for Active; 'I' for Inactive)
REMARK    1  A    between atoms: C_1  and  C_2
REMARK    2  A    between atoms: C_2  and  C_3
REMARK    3  A    between atoms: C_3  and  C_28
REMARK    4  A    between atoms: N_6  and  N_10
REMARK    5  A    between atoms: C_11  and  C_13
REMARK    6  A    between atoms: C_13  and  N_57
REMARK    7  A    between atoms: C_21  and  C_23
REMARK                            x       y       z     vdW  Elec       q    Type
REMARK                         _______ _______ _______ _____ _____    ______ ____
ROOT
ATOM      1  N   UNL     1      -0.208  -0.008   0.081  0.00  0.00    -0.225 N 
ATOM      2  C   UNL     1       0.136  -0.696   1.188  0.00  0.00    +0.213 C 
ATOM      3  O   UNL     1       0.277  -0.115   2.244  0.00  0.00    -0.276 OA
ATOM      4  H   UNL     1      -0.321  -0.472  -0.763  0.00  0.00    +0.173 HD
ENDROOT
BRANCH   1   8
ATOM      5  C   UNL     1      -1.332   3.463   0.224  0.00  0.00    +0.139 C 
ATOM      6  C   UNL     1      -1.609   1.976   0.126  0.00  0.00    +0.268 C 
ATOM      7  O   UNL     1      -2.692   1.436   0.044  0.00  0.00    -0.271 OA
ATOM      8  N   UNL     1      -0.402   1.378   0.150  0.00  0.00    -0.137 N 
ATOM      9  C   UNL     1       0.590   2.272   0.241  0.00  0.00    +0.327 C 
ATOM     10  O   UNL     1       1.767   1.973   0.276  0.00  0.00    -0.251 OA
ATOM     11  N   UNL     1       0.137   3.538   0.291  0.00  0.00    -0.280 N 
ATOM     12  H   UNL     1       0.674   4.343   0.359  0.00  0.00    +0.152 HD
BRANCH   5  13
ATOM     13  C   UNL     1      -1.950   4.040   1.472  0.00  0.00    -0.015 A 
ATOM     14  C   UNL     1      -3.199   4.631   1.415  0.00  0.00    +0.006 A 
ATOM     15  C   UNL     1      -3.768   5.156   2.560  0.00  0.00    +0.000 A 
ATOM     16  C   UNL     1      -3.084   5.099   3.760  0.00  0.00    +0.000 A 
ATOM     17  C   UNL     1      -1.833   4.512   3.816  0.00  0.00    +0.000 A 
ATOM     18  C   UNL     1      -1.267   3.983   2.672  0.00  0.00    +0.006 A 
ENDBRANCH   5  13
BRANCH   5  20
ATOM     19  C   UNL     1      -1.251   3.551  -2.272  0.00  0.00    +0.007 C 
ATOM     20  C   UNL     1      -1.852   4.189  -1.018  0.00  0.00    +0.037 C 
ENDBRANCH   5  20
ENDBRANCH   1   8
BRANCH   2  21
ATOM     21  C   UNL     1       0.344  -2.187   1.115  0.00  0.00    +0.021 C 
BRANCH  21  30
ATOM     22  C   UNL     1       2.093  -2.012   2.781  0.00  0.00    -0.072 C 
ATOM     23  C   UNL     1       2.772  -2.824   3.896  0.00  0.00    +0.024 C 
ATOM     24  C   UNL     1       1.733  -3.151   4.919  0.00  0.00    -0.010 A 
ATOM     25  C   UNL     1       0.383  -3.039   4.771  0.00  0.00    -0.046 A 
ATOM     26  C   UNL     1      -0.394  -3.401   5.868  0.00  0.00    +0.010 A 
ATOM     27  C   UNL     1       0.199  -3.838   7.004  0.00  0.00    +0.045 A 
ATOM     28  S   UNL     1       1.931  -3.757   6.570  0.00  0.00    -0.101 S 
ATOM     29  C   UNL     1      -0.191  -2.537   3.450  0.00  0.00    +0.002 C 
ATOM     30  N   UNL     1       0.842  -2.711   2.401  0.00  0.00    +0.393 N 
ATOM     31  H   UNL     1       1.042  -3.713   2.297  0.00  0.00    -0.080 HD
BRANCH  29  32
ATOM     32  C   UNL     1      -1.400  -3.357   3.080  0.00  0.00    -0.019 A 
ATOM     33  C   UNL     1      -2.713  -3.052   3.220  0.00  0.00    +0.010 A 
ATOM     34  C   UNL     1      -3.662  -3.968   2.805  0.00  0.00    +0.008 A 
ATOM     35  C   UNL     1      -3.251  -5.144   2.271  0.00  0.00    +0.045 A 
ATOM     36  S   UNL     1      -1.475  -4.979   2.337  0.00  0.00    -0.103 S 
ENDBRANCH  29  32
ENDBRANCH  21  30
ENDBRANCH   2  21
TORSDOF 6
