REMARK  Name = ZINC40973220
REMARK  7 active torsions:
REMARK  status: ('A' for Active; 'I' for Inactive)
REMARK    1  A    between atoms: C_1  and  C_2
REMARK    2  A    between atoms: C_2  and  N_3
REMARK    3  A    between atoms: N_3  and  C_4
REMARK    4  A    between atoms: C_4  and  C_33
REMARK    5  A    between atoms: C_13  and  C_23
REMARK    6  A    between atoms: C_14  and  C_16
REMARK    7  A    between atoms: C_26  and  C_29
REMARK                            x       y       z     vdW  Elec       q    Type
REMARK                         _______ _______ _______ _____ _____    ______ ____
ROOT
ATOM      1  C   UNL     1      -0.513  -2.506  -1.001  0.00  0.00    +0.013 C 
ATOM      2  C   UNL     1      -0.365  -2.657   0.514  0.00  0.00    +0.016 C 
ATOM      3  C   UNL     1      -0.393  -4.144   0.881  0.00  0.00    +0.105 C 
ATOM      4  N   UNL     1      -1.616  -4.744   0.331  0.00  0.00    -0.314 N 
ATOM      5  C   UNL     1      -1.901  -4.580  -1.101  0.00  0.00    +0.105 C 
ATOM      6  C   UNL     1      -1.857  -3.088  -1.445  0.00  0.00    +0.016 C 
ATOM      7  C   UNL     1      -2.486  -5.453   1.149  0.00  0.00    +0.140 A 
ATOM      8  C   UNL     1      -2.184  -5.628   2.500  0.00  0.00    +0.155 A 
ATOM      9  N   UNL     1      -3.005  -6.300   3.282  0.00  0.00    -0.249 NA
ATOM     10  C   UNL     1      -4.127  -6.815   2.786  0.00  0.00    +0.097 A 
ATOM     11  C   UNL     1      -4.433  -6.641   1.428  0.00  0.00    +0.099 A 
ATOM     12  N   UNL     1      -3.603  -5.958   0.646  0.00  0.00    -0.228 NA
ENDROOT
BRANCH  11  13
ATOM     13  C   UNL     1      -5.681  -7.213   0.868  0.00  0.00    +0.007 A 
ATOM     14  C   UNL     1      -6.495  -6.462   0.014  0.00  0.00    +0.030 A 
ATOM     15  C   UNL     1      -7.648  -7.032  -0.485  0.00  0.00    +0.113 A 
ATOM     16  N   UNL     1      -7.986  -8.268  -0.167  0.00  0.00    -0.244 NA
ATOM     17  C   UNL     1      -7.247  -9.010   0.636  0.00  0.00    +0.130 A 
ATOM     18  C   UNL     1      -6.073  -8.519   1.175  0.00  0.00    +0.050 A 
ATOM     19 CL   UNL     1      -7.752 -10.628   1.014  0.00  0.00    -0.062 Cl
ENDBRANCH  11  13
BRANCH  10  20
ATOM     20  C   UNL     1      -5.049  -7.571   3.665  0.00  0.00    +0.002 A 
ATOM     21  C   UNL     1      -6.422  -7.336   3.606  0.00  0.00    +0.010 A 
ATOM     22  C   UNL     1      -7.277  -8.043   4.426  0.00  0.00    +0.013 A 
ATOM     23  C   UNL     1      -6.774  -8.984   5.306  0.00  0.00    +0.055 A 
ATOM     24  C   UNL     1      -5.412  -9.222   5.370  0.00  0.00    +0.013 A 
ATOM     25  C   UNL     1      -4.548  -8.524   4.550  0.00  0.00    +0.010 A 
BRANCH  23  26
ATOM     26  C   UNL     1      -7.712  -9.753   6.200  0.00  0.00    +0.417 C 
ATOM     27  F   UNL     1      -8.122 -10.922   5.550  0.00  0.00    -0.166 F 
ATOM     28  F   UNL     1      -7.055 -10.087   7.389  0.00  0.00    -0.166 F 
ATOM     29  F   UNL     1      -8.830  -8.964   6.491  0.00  0.00    -0.166 F 
ENDBRANCH  23  26
ENDBRANCH  10  20
BRANCH   1  30
ATOM     30  C   UNL     1       0.606  -3.244  -1.690  0.00  0.00    +0.200 C 
ATOM     31  O   UNL     1       1.212  -4.114  -1.101  0.00  0.00    -0.278 OA
ATOM     32  N   UNL     1       0.935  -2.936  -2.961  0.00  0.00    -0.330 N 
ATOM     33  H   UNL     1       0.503  -2.191  -3.406  0.00  0.00    +0.145 HD
ATOM     34  H   UNL     1       1.603  -3.461  -3.429  0.00  0.00    +0.145 HD
ENDBRANCH   1  30
BRANCH   1  35
ATOM     35  N   UNL     1      -0.454  -1.083  -1.360  0.00  0.00    +0.388 N 
ATOM     36  H   UNL     1      -1.190  -0.585  -0.882  0.00  0.00    -0.084 HD
ATOM     37  H   UNL     1      -0.571  -0.982  -2.357  0.00  0.00    -0.084 HD
BRANCH  35  39
ATOM     38  C   UNL     1       0.961   0.915  -1.449  0.00  0.00    -0.017 C 
ATOM     39  C   UNL     1       0.848  -0.531  -0.961  0.00  0.00    -0.085 C 
ENDBRANCH  35  39
ENDBRANCH   1  35
TORSDOF 6
