REMARK  Name = ZINC00995183
REMARK  7 active torsions:
REMARK  status: ('A' for Active; 'I' for Inactive)
REMARK    1  A    between atoms: C_1  and  C_2
REMARK    2  A    between atoms: C_2  and  C_3
REMARK    3  A    between atoms: C_10  and  N_15
REMARK    4  A    between atoms: C_11  and  C_12
REMARK    5  A    between atoms: C_16  and  C_18
REMARK    6  A    between atoms: C_19  and  C_29
REMARK    7  A    between atoms: C_22  and  C_23
REMARK                            x       y       z     vdW  Elec       q    Type
REMARK                         _______ _______ _______ _____ _____    ______ ____
ROOT
ATOM      1  C   UNL     1      -0.702   7.898  -6.438  0.00  0.00    -0.006 C 
ATOM      2  C   UNL     1      -0.769   6.554  -7.169  0.00  0.00    +0.008 C 
ATOM      3  C   UNL     1       0.558   5.809  -7.012  0.00  0.00    +0.037 C 
ATOM      4  C   UNL     1       0.911   5.742  -5.532  0.00  0.00    -0.023 A 
ATOM      5  C   UNL     1       0.331   6.575  -4.640  0.00  0.00    -0.004 A 
ATOM      6  S   UNL     1       1.040   6.131  -3.079  0.00  0.00    -0.077 S 
ATOM      7  C   UNL     1       2.092   4.858  -3.602  0.00  0.00    +0.085 A 
ATOM      8  C   UNL     1       1.874   4.810  -4.972  0.00  0.00    +0.068 A 
ATOM      9  C   UNL     1      -0.685   7.637  -4.925  0.00  0.00    +0.046 C 
ENDROOT
BRANCH   8  10
ATOM     10  C   UNL     1       2.587   3.852  -5.822  0.00  0.00    +0.244 C 
ATOM     11  O   UNL     1       2.112   2.750  -6.028  0.00  0.00    -0.270 OA
ATOM     12  N   UNL     1       3.769   4.190  -6.375  0.00  0.00    -0.325 N 
ATOM     13  H   UNL     1       4.148   5.068  -6.210  0.00  0.00    +0.145 HD
ATOM     14  H   UNL     1       4.241   3.556  -6.937  0.00  0.00    +0.145 HD
ENDBRANCH   8  10
BRANCH   7  15
ATOM     15  N   UNL     1       2.947   4.080  -2.838  0.00  0.00    -0.275 N 
ATOM     16  C   UNL     1       3.029   4.276  -1.507  0.00  0.00    +0.254 C 
ATOM     17  O   UNL     1       2.353   5.136  -0.977  0.00  0.00    -0.270 OA
ATOM     18  H   UNL     1       3.486   3.393  -3.261  0.00  0.00    +0.156 HD
BRANCH  16  19
ATOM     19  C   UNL     1       3.938   3.450  -0.696  0.00  0.00    +0.106 A 
ATOM     20  C   UNL     1       5.252   3.684  -0.376  0.00  0.00    +0.147 A 
ATOM     21  O   UNL     1       5.650   2.653   0.373  0.00  0.00    -0.359 OA
ATOM     22  N   UNL     1       4.784   1.834   0.561  0.00  0.00    -0.077 NA
ATOM     23  C   UNL     1       3.660   2.164  -0.022  0.00  0.00    +0.126 A 
ATOM     24  C   UNL     1       6.083   4.869  -0.793  0.00  0.00    +0.090 C 
BRANCH  23  25
ATOM     25  C   UNL     1       2.384   1.407  -0.013  0.00  0.00    +0.004 A 
ATOM     26  C   UNL     1       1.167   2.088   0.002  0.00  0.00    +0.010 A 
ATOM     27  C   UNL     1      -0.017   1.379   0.010  0.00  0.00    +0.001 A 
ATOM     28  C   UNL     1       0.002  -0.004   0.002  0.00  0.00    +0.000 A 
ATOM     29  C   UNL     1       1.206  -0.685  -0.013  0.00  0.00    +0.001 A 
ATOM     30  C   UNL     1       2.397   0.014  -0.021  0.00  0.00    +0.010 A 
ENDBRANCH  23  25
ENDBRANCH  16  19
ENDBRANCH   7  15
BRANCH   1  32
ATOM     31  C   UNL     1      -1.796  10.128  -6.168  0.00  0.00    +0.004 C 
ATOM     32  C   UNL     1      -1.927   8.740  -6.800  0.00  0.00    +0.000 C 
ENDBRANCH   1  32
TORSDOF 5
