REMARK  Name = ZINC09045213
REMARK  12 active torsions:
REMARK  status: ('A' for Active; 'I' for Inactive)
REMARK    1  A    between atoms: C_1  and  C_2
REMARK    2  A    between atoms: C_2  and  C_4
REMARK    3  A    between atoms: C_10  and  C_42
REMARK    4  A    between atoms: N_22  and  O_23
REMARK    5  A    between atoms: O_23  and  C_24
REMARK    6  A    between atoms: C_24  and  C_25
REMARK    7  A    between atoms: N_27  and  C_28
REMARK    8  A    between atoms: C_28  and  C_29
REMARK    9  A    between atoms: C_29  and  C_30
REMARK   10  A    between atoms: C_33  and  O_37
REMARK   11  A    between atoms: C_34  and  O_36
REMARK   12  A    between atoms: C_40  and  C_41
REMARK                            x       y       z     vdW  Elec       q    Type
REMARK                         _______ _______ _______ _____ _____    ______ ____
ROOT
ATOM      1  C   UNL     1      -6.759   1.723   1.897  0.00  0.00    +0.061 C 
ATOM      2  C   UNL     1      -6.386   0.235   1.683  0.00  0.00    +0.012 C 
ATOM      3  C   UNL     1      -6.088  -0.351   3.091  0.00  0.00    +0.005 C 
ATOM      4  C   UNL     1      -6.651   0.717   4.042  0.00  0.00    -0.001 C 
ATOM      5  C   UNL     1      -6.259   2.026   3.327  0.00  0.00    -0.019 C 
ATOM      6  C   UNL     1      -6.924   3.218   3.970  0.00  0.00    +0.008 C 
ATOM      7  C   UNL     1      -7.069   3.010   5.483  0.00  0.00    +0.005 C 
ATOM      8  C   UNL     1      -5.989   2.080   6.021  0.00  0.00    +0.002 C 
ATOM      9  C   UNL     1      -6.189   0.669   5.467  0.00  0.00    -0.003 C 
ATOM     10  C   UNL     1      -4.958  -0.192   5.694  0.00  0.00    +0.008 C 
ATOM     11  C   UNL     1      -4.382   0.065   7.089  0.00  0.00    +0.031 C 
ATOM     12  C   UNL     1      -5.438   0.691   7.969  0.00  0.00    -0.062 C 
ATOM     13  C   UNL     1      -5.822   0.085   9.082  0.00  0.00    +0.026 C 
ATOM     14  C   UNL     1      -6.851   0.665   9.951  0.00  0.00    +0.080 C 
ATOM     15  N   UNL     1      -7.159   0.081  11.067  0.00  0.00    -0.089 NA
ATOM     16  C   UNL     1      -7.553   1.938   9.553  0.00  0.00    +0.059 C 
ATOM     17  C   UNL     1      -7.482   2.110   8.034  0.00  0.00    +0.017 C 
ATOM     18  C   UNL     1      -6.039   2.014   7.554  0.00  0.00    -0.007 C 
ATOM     19  C   UNL     1      -5.206   3.159   8.134  0.00  0.00    +0.016 C 
ATOM     20  C   UNL     1      -4.744   2.220   3.245  0.00  0.00    +0.012 C 
ENDROOT
BRANCH   1  22
ATOM     21  C   UNL     1      -6.511   4.011   0.673  0.00  0.00    +0.086 C 
ATOM     22  C   UNL     1      -6.042   2.598   0.907  0.00  0.00    +0.134 C 
ATOM     23  O   UNL     1      -5.091   2.168   0.300  0.00  0.00    -0.297 OA
ENDBRANCH   1  22
BRANCH  15  24
ATOM     24  O   UNL     1      -6.501  -1.115  11.445  0.00  0.00    -0.384 OA
BRANCH  24  25
ATOM     25  C   UNL     1      -6.938  -1.648  12.697  0.00  0.00    +0.358 C 
BRANCH  25  26
ATOM     26  C   UNL     1      -6.176  -2.913  12.998  0.00  0.00    +0.253 C 
ATOM     27  O   UNL     1      -5.340  -3.317  12.218  0.00  0.00    -0.272 OA
ATOM     28  N   UNL     1      -6.422  -3.594  14.134  0.00  0.00    -0.312 N 
ATOM     29  H   UNL     1      -7.091  -3.271  14.758  0.00  0.00    +0.149 HD
BRANCH  28  30
ATOM     30  C   UNL     1      -5.681  -4.823  14.427  0.00  0.00    +0.109 C 
BRANCH  30  31
ATOM     31  C   UNL     1      -6.149  -5.394  15.767  0.00  0.00    +0.054 C 
BRANCH  31  32
ATOM     32  C   UNL     1      -5.386  -6.659  16.068  0.00  0.00    -0.042 A 
ATOM     33  C   UNL     1      -4.198  -6.596  16.772  0.00  0.00    +0.007 A 
ATOM     34  C   UNL     1      -3.495  -7.753  17.051  0.00  0.00    +0.049 A 
ATOM     35  C   UNL     1      -3.981  -8.979  16.625  0.00  0.00    +0.158 A 
ATOM     36  C   UNL     1      -5.177  -9.042  15.916  0.00  0.00    +0.158 A 
ATOM     37  C   UNL     1      -5.879  -7.879  15.645  0.00  0.00    +0.052 A 
BRANCH  36  38
ATOM     38  O   UNL     1      -5.657 -10.242  15.496  0.00  0.00    -0.503 OA
ATOM     39  H   UNL     1      -6.241 -10.677  16.133  0.00  0.00    +0.292 HD
ENDBRANCH  36  38
BRANCH  35  40
ATOM     40  O   UNL     1      -3.290 -10.118  16.899  0.00  0.00    -0.503 OA
ATOM     41  H   UNL     1      -3.535 -10.535  17.736  0.00  0.00    +0.292 HD
ENDBRANCH  35  40
ENDBRANCH  31  32
ENDBRANCH  30  31
ENDBRANCH  28  30
ENDBRANCH  25  26
ENDBRANCH  24  25
ENDBRANCH  15  24
TORSDOF 9
