REMARK  Name = ZINC19909684
REMARK  5 active torsions:
REMARK  status: ('A' for Active; 'I' for Inactive)
REMARK    1  A    between atoms: C_1  and  C_2
REMARK    2  A    between atoms: C_2  and  C_15
REMARK    3  A    between atoms: N_3  and  N_4
REMARK    4  A    between atoms: N_6  and  C_14
REMARK    5  A    between atoms: C_19  and  N_21
REMARK                            x       y       z     vdW  Elec       q    Type
REMARK                         _______ _______ _______ _____ _____    ______ ____
ROOT
ATOM      1  C   UNL     1      -0.222   0.868   0.011  0.00  0.00    +0.068 C 
ATOM      2  C   UNL     1      -0.718   1.572   1.248  0.00  0.00    +0.068 C 
ATOM      3  N   UNL     1       0.077   1.732   2.272  0.00  0.00    -0.151 NA
ENDROOT
BRANCH   3   4
ATOM      4  N   UNL     1      -0.381   2.221   3.374  0.00  0.00    -0.124 NA
ATOM      5  C   UNL     1       0.424   2.384   4.410  0.00  0.00    +0.195 A 
ATOM      6  N   UNL     1       0.135   2.885   5.651  0.00  0.00    -0.321 N 
ATOM      7  C   UNL     1       1.126   2.972   6.613  0.00  0.00    +0.057 A 
ATOM      8  C   UNL     1       1.002   3.454   7.928  0.00  0.00    +0.027 A 
ATOM      9  C   UNL     1       2.085   3.485   8.773  0.00  0.00    +0.002 A 
ATOM     10  C   UNL     1       3.331   3.044   8.361  0.00  0.00    +0.001 A 
ATOM     11  C   UNL     1       3.483   2.564   7.072  0.00  0.00    +0.017 A 
ATOM     12  C   UNL     1       2.400   2.533   6.226  0.00  0.00    +0.039 A 
ATOM     13  S   UNL     1       2.165   2.012   4.544  0.00  0.00    -0.048 S 
ATOM     14  C   UNL     1      -1.227   3.327   5.962  0.00  0.00    +0.151 C 
ENDBRANCH   3   4
BRANCH   2  15
ATOM     15  C   UNL     1      -2.098   2.078   1.302  0.00  0.00    -0.001 A 
ATOM     16  C   UNL     1      -3.130   1.373   0.673  0.00  0.00    +0.010 A 
ATOM     17  C   UNL     1      -4.424   1.848   0.730  0.00  0.00    +0.002 A 
ATOM     18  C   UNL     1      -4.705   3.025   1.399  0.00  0.00    +0.023 A 
ATOM     19  C   UNL     1      -3.687   3.736   2.024  0.00  0.00    +0.025 A 
ATOM     20  C   UNL     1      -2.384   3.267   1.978  0.00  0.00    +0.032 A 
BRANCH  19  21
ATOM     21  N   UNL     1      -3.978   4.925   2.698  0.00  0.00    -0.358 N 
ATOM     22  H   UNL     1      -3.172   5.488   3.193  0.00  0.00    +0.142 HD
ATOM     23  H   UNL     1      -5.012   5.298   2.735  0.00  0.00    +0.142 HD
ENDBRANCH  19  21
ENDBRANCH   2  15
TORSDOF 3
