REMARK  Name = ZINC20616199
REMARK  9 active torsions:
REMARK  status: ('A' for Active; 'I' for Inactive)
REMARK    1  A    between atoms: C_1  and  C_2
REMARK    2  A    between atoms: C_2  and  O_3
REMARK    3  A    between atoms: O_3  and  C_4
REMARK    4  A    between atoms: C_7  and  C_27
REMARK    5  A    between atoms: C_9  and  C_10
REMARK    6  A    between atoms: C_10  and  N_11
REMARK    7  A    between atoms: N_28  and  N_29
REMARK    8  A    between atoms: C_30  and  C_32
REMARK    9  A    between atoms: C_37  and  N_38
REMARK                            x       y       z     vdW  Elec       q    Type
REMARK                         _______ _______ _______ _____ _____    ______ ____
ROOT
ATOM      1  C   UNL     1      -7.048  -1.155   1.867  0.00  0.00    +0.122 A 
ATOM      2  C   UNL     1      -6.619  -2.474   1.955  0.00  0.00    +0.046 A 
ATOM      3  C   UNL     1      -6.565  -3.260   0.825  0.00  0.00    +0.013 A 
ATOM      4  C   UNL     1      -6.942  -2.728  -0.412  0.00  0.00    -0.005 A 
ATOM      5  C   UNL     1      -7.377  -1.403  -0.494  0.00  0.00    +0.014 A 
ATOM      6  C   UNL     1      -7.424  -0.623   0.641  0.00  0.00    -0.022 A 
ENDROOT
BRANCH   4   7
ATOM      7  C   UNL     1      -6.886  -3.566  -1.624  0.00  0.00    +0.138 C 
ATOM      8  N   UNL     1      -6.486  -4.798  -1.544  0.00  0.00    -0.187 NA
BRANCH   8   9
ATOM      9  N   UNL     1      -6.433  -5.593  -2.696  0.00  0.00    -0.203 N 
ATOM     10  C   UNL     1      -6.017  -6.873  -2.612  0.00  0.00    +0.265 C 
ATOM     11  O   UNL     1      -5.689  -7.337  -1.538  0.00  0.00    -0.268 OA
ATOM     12  H   UNL     1      -6.730  -5.174  -3.668  0.00  0.00    +0.178 HD
BRANCH  10  13
ATOM     13  C   UNL     1      -5.961  -7.712  -3.828  0.00  0.00    +0.068 A 
ATOM     14  C   UNL     1      -6.202  -7.147  -5.082  0.00  0.00    +0.015 A 
ATOM     15  C   UNL     1      -6.143  -7.935  -6.212  0.00  0.00    +0.001 A 
ATOM     16  C   UNL     1      -5.856  -9.284  -6.105  0.00  0.00    +0.002 A 
ATOM     17  C   UNL     1      -5.622  -9.852  -4.865  0.00  0.00    +0.033 A 
ATOM     18  C   UNL     1      -5.672  -9.074  -3.727  0.00  0.00    +0.138 A 
BRANCH  18  19
ATOM     19  N   UNL     1      -5.422  -9.682  -2.401  0.00  0.00    +0.057 N 
ATOM     20  O   UNL     1      -4.425 -10.359  -2.220  0.00  0.00    -0.126 OA
ATOM     21  O   UNL     1      -6.212  -9.507  -1.491  0.00  0.00    -0.126 OA
ENDBRANCH  18  19
ENDBRANCH  10  13
ENDBRANCH   8   9
ENDBRANCH   4   7
BRANCH   1  22
ATOM     22  O   UNL     1      -7.101  -0.384   2.985  0.00  0.00    -0.492 OA
BRANCH  22  24
ATOM     23  C   UNL     1      -6.826   0.021   5.351  0.00  0.00    +0.048 C 
ATOM     24  C   UNL     1      -6.700  -0.994   4.213  0.00  0.00    +0.225 C 
ENDBRANCH  22  24
ENDBRANCH   1  22
BRANCH   6  25
ATOM     25  C   UNL     1      -7.888   0.807   0.552  0.00  0.00    -0.039 C 
BRANCH  25  26
ATOM     26  N   UNL     1      -6.723   1.701   0.542  0.00  0.00    +0.383 N 
ATOM     27  C   UNL     1      -5.902   1.508   1.742  0.00  0.00    -0.073 C 
ATOM     28  C   UNL     1      -4.724   2.472   1.764  0.00  0.00    -0.007 C 
ATOM     29  C   UNL     1      -3.894   2.345   0.483  0.00  0.00    +0.011 C 
ATOM     30  C   UNL     1      -4.833   2.597  -0.703  0.00  0.00    +0.020 C 
ATOM     31  C   UNL     1      -5.926   1.516  -0.681  0.00  0.00    -0.069 C 
ATOM     32  C   UNL     1      -5.514   3.935  -0.523  0.00  0.00    +0.023 A 
ATOM     33  C   UNL     1      -5.923   4.583  -1.646  0.00  0.00    +0.022 A 
ATOM     34  C   UNL     1      -6.615   5.795  -1.555  0.00  0.00    +0.007 A 
ATOM     35  C   UNL     1      -6.891   6.305  -0.320  0.00  0.00    +0.070 A 
ATOM     36  C   UNL     1      -6.453   5.613   0.818  0.00  0.00    +0.251 A 
ATOM     37  O   UNL     1      -6.733   6.037   1.928  0.00  0.00    -0.268 OA
ATOM     38  N   UNL     1      -5.720   4.478   0.700  0.00  0.00    -0.312 N 
ATOM     39  C   UNL     1      -5.172   3.913   1.934  0.00  0.00    +0.126 C 
ATOM     40  H   UNL     1      -7.090   2.738   0.553  0.00  0.00    -0.081 HD
ENDBRANCH  25  26
ENDBRANCH   6  25
TORSDOF 8
