REMARK  Name = ZINC35397540
REMARK  7 active torsions:
REMARK  status: ('A' for Active; 'I' for Inactive)
REMARK    1  A    between atoms: C_1  and  C_2
REMARK    2  A    between atoms: C_5  and  C_33
REMARK    3  A    between atoms: C_6  and  S_8
REMARK    4  A    between atoms: S_8  and  N_11
REMARK    5  A    between atoms: N_11  and  C_12
REMARK    6  A    between atoms: C_14  and  C_30
REMARK    7  A    between atoms: C_21  and  N_24
REMARK                            x       y       z     vdW  Elec       q    Type
REMARK                         _______ _______ _______ _____ _____    ______ ____
ROOT
ATOM      1  C   UNL     1      -1.807  -4.686   3.852  0.00  0.00    +0.091 A 
ATOM      2  C   UNL     1      -2.908  -5.496   4.096  0.00  0.00    +0.046 A 
ATOM      3  C   UNL     1      -2.946  -6.221   5.295  0.00  0.00    +0.103 A 
ATOM      4  C   UNL     1      -1.873  -6.099   6.196  0.00  0.00    +0.113 A 
ATOM      5  N   UNL     1      -0.847  -5.312   5.914  0.00  0.00    -0.347 N 
ATOM      6  C   UNL     1      -0.784  -4.624   4.791  0.00  0.00    +0.110 A 
ATOM      7  N   UNL     1      -1.891  -6.806   7.385  0.00  0.00    -0.316 N 
ATOM      8  C   UNL     1      -2.571  -6.262   8.569  0.00  0.00    +0.105 C 
ATOM      9  C   UNL     1      -1.587  -6.254   9.743  0.00  0.00    +0.004 C 
ATOM     10  C   UNL     1      -1.018  -7.661   9.936  0.00  0.00    -0.066 C 
ATOM     11  C   UNL     1      -0.262  -8.085   8.674  0.00  0.00    +0.004 C 
ATOM     12  C   UNL     1      -1.236  -8.117   7.487  0.00  0.00    +0.105 C 
ATOM     13  H   UNL     1      -0.118  -5.243   6.550  0.00  0.00    +0.167 HD
ENDROOT
BRANCH  10  14
ATOM     14  N   UNL     1      -0.098  -7.664  11.082  0.00  0.00    +0.382 N 
ATOM     15  C   UNL     1       0.454  -9.012  11.260  0.00  0.00    -0.078 C 
ATOM     16  C   UNL     1       1.473  -9.003  12.402  0.00  0.00    -0.019 C 
ATOM     17  C   UNL     1       0.781  -8.558  13.693  0.00  0.00    -0.004 C 
ATOM     18  C   UNL     1       0.145  -7.182  13.472  0.00  0.00    -0.019 C 
ATOM     19  C   UNL     1      -0.825  -7.259  12.291  0.00  0.00    -0.078 C 
ATOM     20  H   UNL     1       0.654  -7.015  10.909  0.00  0.00    -0.081 HD
ENDBRANCH  10  14
BRANCH   3  21
ATOM     21  C   UNL     1      -4.088  -7.094   5.605  0.00  0.00    +0.390 C 
ATOM     22  O   UNL     1      -5.064  -7.112   4.866  0.00  0.00    -0.240 OA
ATOM     23  O   UNL     1      -4.063  -7.803   6.602  0.00  0.00    -0.240 OA
ENDBRANCH   3  21
BRANCH   1  24
ATOM     24  N   UNL     1      -1.725  -3.943   2.667  0.00  0.00    -0.096 NA
BRANCH  24  25
ATOM     25  S   UNL     1      -0.405  -2.984   2.381  0.00  0.00    +0.092 S 
ATOM     26  O   UNL     1       0.706  -3.857   2.234  0.00  0.00    -0.148 OA
ATOM     27  O   UNL     1      -0.437  -1.948   3.353  0.00  0.00    -0.148 OA
BRANCH  25  33
ATOM     28  C   UNL     1      -1.161   1.258  -0.577  0.00  0.00    +0.044 C 
ATOM     29  C   UNL     1      -0.996  -0.238  -0.491  0.00  0.00    -0.049 A 
ATOM     30  C   UNL     1      -1.037  -1.005  -1.641  0.00  0.00    +0.004 A 
ATOM     31  C   UNL     1      -0.886  -2.377  -1.562  0.00  0.00    +0.005 A 
ATOM     32  C   UNL     1      -0.693  -2.981  -0.333  0.00  0.00    -0.024 A 
ATOM     33  C   UNL     1      -0.651  -2.214   0.816  0.00  0.00    +0.114 A 
ATOM     34  C   UNL     1      -0.798  -0.841   0.736  0.00  0.00    +0.032 A 
ATOM     35  C   UNL     1      -0.529  -4.477  -0.247  0.00  0.00    +0.046 C 
ENDBRANCH  25  33
ENDBRANCH  24  25
ENDBRANCH   1  24
TORSDOF 5
