REMARK  Name = ZINC51097582
REMARK  9 active torsions:
REMARK  status: ('A' for Active; 'I' for Inactive)
REMARK    1  A    between atoms: C_1  and  C_2
REMARK    2  A    between atoms: C_5  and  C_7
REMARK    3  A    between atoms: N_9  and  C_10
REMARK    4  A    between atoms: N_13  and  C_16
REMARK    5  A    between atoms: C_16  and  C_17
REMARK    6  A    between atoms: N_19  and  C_20
REMARK    7  A    between atoms: C_21  and  C_28
REMARK    8  A    between atoms: C_23  and  C_27
REMARK    9  A    between atoms: C_25  and  C_26
REMARK                            x       y       z     vdW  Elec       q    Type
REMARK                         _______ _______ _______ _____ _____    ______ ____
ROOT
ATOM      1  C   UNL     1       4.975  -3.632   3.201  0.00  0.00    +0.070 C 
ATOM      2  C   UNL     1       5.233  -4.951   3.936  0.00  0.00    +0.004 C 
ATOM      3  C   UNL     1       5.827  -5.966   2.957  0.00  0.00    -0.076 C 
ATOM      4  N   UNL     1       7.090  -5.450   2.418  0.00  0.00    +0.386 N 
ATOM      5  C   UNL     1       6.841  -4.224   1.651  0.00  0.00    -0.076 C 
ATOM      6  C   UNL     1       6.286  -3.141   2.579  0.00  0.00    +0.004 C 
ATOM      7  H   UNL     1       7.722  -5.247   3.178  0.00  0.00    -0.081 HD
ENDROOT
BRANCH   1  10
ATOM      8  C   UNL     1       3.162  -2.571   4.435  0.00  0.00    +0.280 C 
ATOM      9  O   UNL     1       2.387  -3.346   3.905  0.00  0.00    -0.267 OA
ATOM     10  N   UNL     1       4.478  -2.632   4.149  0.00  0.00    -0.306 N 
ATOM     11  H   UNL     1       5.095  -2.014   4.570  0.00  0.00    +0.149 HD
BRANCH   8  16
ATOM     12  C   UNL     1       3.074   1.217   7.709  0.00  0.00    +0.086 C 
ATOM     13  C   UNL     1       2.619   0.089   6.819  0.00  0.00    +0.103 A 
ATOM     14  C   UNL     1       1.344  -0.337   6.678  0.00  0.00    +0.045 A 
ATOM     15  C   UNL     1       1.363  -1.399   5.761  0.00  0.00    +0.055 A 
ATOM     16  C   UNL     1       2.664  -1.569   5.384  0.00  0.00    +0.189 A 
ATOM     17  O   UNL     1       3.410  -0.653   6.034  0.00  0.00    -0.455 OA
ENDBRANCH   8  16
ENDBRANCH   1  10
BRANCH   4  18
ATOM     18  C   UNL     1       7.695  -6.460   1.539  0.00  0.00    +0.019 C 
BRANCH  18  19
ATOM     19  C   UNL     1       9.050  -5.983   1.082  0.00  0.00    +0.201 C 
ATOM     20  O   UNL     1       9.470  -4.907   1.452  0.00  0.00    -0.278 OA
ATOM     21  N   UNL     1       9.794  -6.751   0.263  0.00  0.00    -0.287 N 
ATOM     22  H   UNL     1       9.483  -7.635   0.011  0.00  0.00    +0.155 HD
BRANCH  21  23
ATOM     23  C   UNL     1      11.016  -6.275  -0.224  0.00  0.00    +0.039 A 
ATOM     24  C   UNL     1      11.079  -5.040  -0.857  0.00  0.00    -0.029 A 
ATOM     25  C   UNL     1      12.287  -4.573  -1.337  0.00  0.00    +0.008 A 
ATOM     26  C   UNL     1      13.433  -5.333  -1.188  0.00  0.00    -0.050 A 
ATOM     27  C   UNL     1      13.373  -6.563  -0.558  0.00  0.00    +0.008 A 
ATOM     28  C   UNL     1      12.170  -7.033  -0.070  0.00  0.00    -0.029 A 
ATOM     29  C   UNL     1      12.107  -8.370   0.622  0.00  0.00    +0.045 C 
ATOM     30  C   UNL     1      14.749  -4.820  -1.712  0.00  0.00    +0.044 C 
ATOM     31  C   UNL     1       9.831  -4.212  -1.021  0.00  0.00    +0.045 C 
ENDBRANCH  21  23
ENDBRANCH  18  19
ENDBRANCH   4  18
TORSDOF 5
