REMARK  Name = ZINC36065902
REMARK  13 active torsions:
REMARK  status: ('A' for Active; 'I' for Inactive)
REMARK    1  A    between atoms: C_1  and  C_2
REMARK    2  A    between atoms: C_2  and  O_3
REMARK    3  A    between atoms: O_3  and  C_4
REMARK    4  A    between atoms: C_4  and  C_6
REMARK    5  A    between atoms: C_13  and  C_15
REMARK    6  A    between atoms: C_18  and  C_20
REMARK    7  A    between atoms: C_20  and  N_21
REMARK    8  A    between atoms: N_21  and  C_22
REMARK    9  A    between atoms: N_21  and  C_32
REMARK   10  A    between atoms: C_22  and  C_23
REMARK   11  A    between atoms: C_32  and  C_33
REMARK   12  A    between atoms: C_35  and  C_40
REMARK   13  A    between atoms: C_38  and  C_39
REMARK                            x       y       z     vdW  Elec       q    Type
REMARK                         _______ _______ _______ _____ _____    ______ ____
ROOT
ATOM      1  N   UNL     1       2.519  -6.072  -9.640  0.00  0.00    +0.391 N 
ATOM      2  H   UNL     1       2.050  -5.623 -10.412  0.00  0.00    -0.080 HD
ENDROOT
BRANCH   1   3
ATOM      3  C   UNL     1       3.540  -5.166  -9.096  0.00  0.00    +0.020 C 
BRANCH   3   7
ATOM      4  C   UNL     1       5.352  -3.584 -11.804  0.00  0.00    +0.164 A 
ATOM      5  C   UNL     1       6.112  -4.698 -11.619  0.00  0.00    +0.230 A 
ATOM      6  O   UNL     1       5.547  -5.396 -10.621  0.00  0.00    -0.449 OA
ATOM      7  C   UNL     1       4.463  -4.727 -10.203  0.00  0.00    +0.179 A 
ATOM      8  N   UNL     1       4.338  -3.637 -10.899  0.00  0.00    -0.210 NA
BRANCH   4  15
ATOM      9  C   UNL     1       5.260   0.996 -12.887  0.00  0.00    +0.115 C 
ATOM     10  C   UNL     1       4.014   1.197 -12.022  0.00  0.00    +0.018 C 
ATOM     11  C   UNL     1       3.874   0.026 -11.047  0.00  0.00    +0.020 C 
ATOM     12  C   UNL     1       3.707  -1.275 -11.839  0.00  0.00    +0.108 C 
ATOM     13  N   UNL     1       4.829  -1.403 -12.778  0.00  0.00    -0.295 N 
ATOM     14  C   UNL     1       5.110  -0.294 -13.700  0.00  0.00    +0.122 C 
ATOM     15  C   UNL     1       5.587  -2.518 -12.795  0.00  0.00    +0.268 C 
ATOM     16  O   UNL     1       6.465  -2.644 -13.627  0.00  0.00    -0.268 OA
BRANCH   9  17
ATOM     17  C   UNL     1       5.416   2.166 -13.825  0.00  0.00    +0.312 C 
ATOM     18  O   UNL     1       4.613   3.069 -13.802  0.00  0.00    -0.250 OA
BRANCH  17  19
ATOM     19  O   UNL     1       6.446   2.204 -14.684  0.00  0.00    -0.465 OA
BRANCH  19  21
ATOM     20  C   UNL     1       7.760   3.211 -16.445  0.00  0.00    +0.048 C 
ATOM     21  C   UNL     1       6.531   3.343 -15.543  0.00  0.00    +0.229 C 
ENDBRANCH  19  21
ENDBRANCH  17  19
ENDBRANCH   9  17
ENDBRANCH   4  15
ENDBRANCH   3   7
ENDBRANCH   1   3
BRANCH   1  22
ATOM     22  C   UNL     1       3.161  -7.308 -10.108  0.00  0.00    -0.042 C 
BRANCH  22  23
ATOM     23  C   UNL     1       2.134  -8.184 -10.777  0.00  0.00    -0.060 A 
ATOM     24  C   UNL     1       1.420  -9.104 -10.030  0.00  0.00    +0.005 A 
ATOM     25  C   UNL     1       0.476  -9.910 -10.640  0.00  0.00    +0.050 A 
ATOM     26  C   UNL     1       0.244  -9.798 -12.001  0.00  0.00    +0.166 A 
ATOM     27  C   UNL     1       0.963  -8.872 -12.753  0.00  0.00    +0.166 A 
ATOM     28  C   UNL     1       1.903  -8.063 -12.134  0.00  0.00    +0.051 A 
ATOM     29  O   UNL     1       0.555  -8.955 -14.053  0.00  0.00    -0.453 OA
ATOM     30  C   UNL     1      -0.125 -10.219 -14.162  0.00  0.00    +0.466 C 
ATOM     31  O   UNL     1      -0.614 -10.461 -12.830  0.00  0.00    -0.453 OA
ENDBRANCH  22  23
ENDBRANCH   1  22
BRANCH   1  32
ATOM     32  C   UNL     1       1.541  -6.394  -8.592  0.00  0.00    -0.042 C 
BRANCH  32  33
ATOM     33  C   UNL     1       0.802  -5.142  -8.194  0.00  0.00    -0.061 A 
ATOM     34  C   UNL     1       1.159  -4.466  -7.042  0.00  0.00    +0.005 A 
ATOM     35  C   UNL     1       0.480  -3.318  -6.677  0.00  0.00    -0.050 A 
ATOM     36  C   UNL     1      -0.554  -2.847  -7.463  0.00  0.00    +0.003 A 
ATOM     37  C   UNL     1      -0.911  -3.523  -8.615  0.00  0.00    +0.004 A 
ATOM     38  C   UNL     1      -0.229  -4.668  -8.983  0.00  0.00    -0.049 A 
ATOM     39  C   UNL     1      -0.614  -5.402 -10.241  0.00  0.00    +0.044 C 
ATOM     40  C   UNL     1       0.869  -2.581  -5.421  0.00  0.00    +0.044 C 
ENDBRANCH  32  33
ENDBRANCH   1  32
TORSDOF 10
