REMARK  Name = ZINC09490775
REMARK  6 active torsions:
REMARK  status: ('A' for Active; 'I' for Inactive)
REMARK    1  A    between atoms: N_15  and  C_17
REMARK    2  A    between atoms: C_20  and  C_31
REMARK    3  A    between atoms: C_22  and  N_23
REMARK    4  A    between atoms: C_24  and  C_26
REMARK    5  A    between atoms: N_33  and  C_34
REMARK    6  A    between atoms: C_34  and  C_35
REMARK                            x       y       z     vdW  Elec       q    Type
REMARK                         _______ _______ _______ _____ _____    ______ ____
ROOT
ATOM      1  C   UNL     1      -0.077  -0.020  -0.034  0.00  0.00    +0.051 A 
ATOM      2  C   UNL     1       0.427  -0.709  -1.131  0.00  0.00    +0.026 A 
ATOM      3  C   UNL     1       0.495  -2.084  -1.113  0.00  0.00    +0.015 A 
ATOM      4  C   UNL     1       0.046  -2.793   0.005  0.00  0.00    +0.039 A 
ATOM      5  C   UNL     1      -0.467  -2.103   1.107  0.00  0.00    +0.038 A 
ATOM      6  C   UNL     1      -0.528  -0.722   1.087  0.00  0.00    +0.056 A 
ENDROOT
BRANCH   1  19
ATOM      7  C   UNL     1       0.302   4.072   3.666  0.00  0.00    +0.007 A 
ATOM      8  C   UNL     1       0.974   3.897   2.451  0.00  0.00    +0.022 A 
ATOM      9  C   UNL     1       0.278   3.737   1.294  0.00  0.00    +0.027 A 
ATOM     10  N   UNL     1      -1.074   3.805   1.290  0.00  0.00    -0.312 N 
ATOM     11  C   UNL     1      -1.749   3.884   2.463  0.00  0.00    +0.251 A 
ATOM     12  O   UNL     1      -2.967   3.806   2.466  0.00  0.00    -0.268 OA
ATOM     13  C   UNL     1      -1.062   4.054   3.673  0.00  0.00    +0.070 A 
ATOM     14  C   UNL     1      -1.869   3.858   0.063  0.00  0.00    +0.130 C 
ATOM     15  C   UNL     1      -1.098   3.360  -1.148  0.00  0.00    +0.027 C 
ATOM     16  C   UNL     1       0.287   4.013  -1.173  0.00  0.00    +0.018 C 
ATOM     17  C   UNL     1       1.071   3.481   0.032  0.00  0.00    +0.053 C 
ATOM     18  C   UNL     1       1.208   1.957  -0.125  0.00  0.00    +0.114 C 
ATOM     19  N   UNL     1      -0.139   1.371  -0.055  0.00  0.00    -0.328 N 
ATOM     20  C   UNL     1      -0.981   1.843  -1.158  0.00  0.00    +0.110 C 
ENDBRANCH   1  19
BRANCH   6  21
ATOM     21  N   UNL     1      -1.041  -0.027   2.190  0.00  0.00    -0.280 N 
ATOM     22  C   UNL     1      -1.066  -0.613   3.404  0.00  0.00    +0.255 C 
ATOM     23  O   UNL     1      -0.546  -1.702   3.565  0.00  0.00    -0.269 OA
ATOM     24  H   UNL     1      -1.377   0.876   2.081  0.00  0.00    +0.155 HD
BRANCH  22  25
ATOM     25  C   UNL     1      -1.719   0.060   4.529  0.00  0.00    +0.074 A 
ATOM     26  C   UNL     1      -1.855  -0.364   5.842  0.00  0.00    +0.021 A 
ATOM     27  C   UNL     1      -2.520   0.472   6.704  0.00  0.00    +0.008 A 
ATOM     28  C   UNL     1      -3.005   1.654   6.239  0.00  0.00    +0.046 A 
ATOM     29  S   UNL     1      -2.540   1.644   4.569  0.00  0.00    -0.092 S 
ENDBRANCH  22  25
ENDBRANCH   6  21
BRANCH   4  30
ATOM     30  C   UNL     1       0.113  -4.266   0.021  0.00  0.00    +0.244 C 
ATOM     31  O   UNL     1      -0.279  -4.882   0.994  0.00  0.00    -0.270 OA
ATOM     32  N   UNL     1       0.607  -4.930  -1.042  0.00  0.00    -0.304 N 
ATOM     33  H   UNL     1       0.919  -4.439  -1.819  0.00  0.00    +0.149 HD
BRANCH  32  34
ATOM     34  C   UNL     1       0.673  -6.394  -1.026  0.00  0.00    +0.179 C 
BRANCH  34  35
ATOM     35  C   UNL     1       1.261  -6.885  -2.324  0.00  0.00    +0.122 A 
ATOM     36  C   UNL     1       2.568  -7.091  -2.568  0.00  0.00    +0.046 A 
ATOM     37  C   UNL     1       2.668  -7.547  -3.902  0.00  0.00    +0.041 A 
ATOM     38  C   UNL     1       1.417  -7.593  -4.394  0.00  0.00    +0.195 A 
ATOM     39  O   UNL     1       0.568  -7.196  -3.432  0.00  0.00    -0.466 OA
ENDBRANCH  34  35
ENDBRANCH  32  34
ENDBRANCH   4  30
TORSDOF 6
