REMARK  Name = ZINC10435196
REMARK  12 active torsions:
REMARK  status: ('A' for Active; 'I' for Inactive)
REMARK    1  A    between atoms: C_1  and  C_2
REMARK    2  A    between atoms: C_5  and  C_8
REMARK    3  A    between atoms: C_9  and  C_19
REMARK    4  A    between atoms: N_11  and  C_13
REMARK    5  A    between atoms: C_22  and  C_31
REMARK    6  A    between atoms: C_25  and  C_27
REMARK    7  A    between atoms: C_27  and  N_68
REMARK    8  A    between atoms: C_28  and  C_29
REMARK    9  A    between atoms: C_28  and  N_68
REMARK   10  A    between atoms: C_29  and  O_30
REMARK   11  A    between atoms: C_34  and  O_37
REMARK   12  A    between atoms: O_37  and  C_38
REMARK                            x       y       z     vdW  Elec       q    Type
REMARK                         _______ _______ _______ _____ _____    ______ ____
ROOT
ATOM      1  C   UNL     1       4.821   0.544  -0.042  0.00  0.00    +0.140 C 
ATOM      2  C   UNL     1       3.838   1.731  -0.026  0.00  0.00    +0.087 C 
ATOM      3  C   UNL     1       2.476   1.076  -0.016  0.00  0.00    +0.069 C 
ATOM      4  N   UNL     1       2.614  -0.205  -0.019  0.00  0.00    -0.181 NA
ATOM      5  N   UNL     1       3.940  -0.634  -0.041  0.00  0.00    -0.187 N 
ATOM      6  C   UNL     1       4.348  -1.919  -0.052  0.00  0.00    +0.218 C 
ATOM      7  O   UNL     1       5.533  -2.179  -0.065  0.00  0.00    -0.276 OA
ENDROOT
BRANCH   3   8
ATOM      8  C   UNL     1       1.187   1.792   0.000  0.00  0.00    -0.002 A 
ATOM      9  C   UNL     1      -0.013   1.076   0.008  0.00  0.00    +0.013 A 
ATOM     10  C   UNL     1      -1.215   1.750   0.017  0.00  0.00    +0.046 A 
ATOM     11  C   UNL     1      -1.235   3.138   0.031  0.00  0.00    +0.120 A 
ATOM     12  C   UNL     1      -0.044   3.854   0.023  0.00  0.00    +0.046 A 
ATOM     13  C   UNL     1       1.162   3.189   0.008  0.00  0.00    +0.013 A 
BRANCH  11  14
ATOM     14  O   UNL     1      -2.422   3.798   0.046  0.00  0.00    -0.495 OA
ATOM     15  C   UNL     1      -3.607   3.001   0.053  0.00  0.00    +0.277 C 
ENDBRANCH  11  14
ENDBRANCH   3   8
BRANCH   1  17
ATOM     16  C   UNL     1       6.857   1.310  -1.464  0.00  0.00    +0.098 A 
ATOM     17  C   UNL     1       5.669   0.574  -1.288  0.00  0.00    +0.021 A 
ATOM     18  C   UNL     1       5.420  -0.094  -2.435  0.00  0.00    +0.120 A 
ATOM     19  N   UNL     1       6.416   0.198  -3.312  0.00  0.00    -0.239 N 
ATOM     20  N   UNL     1       7.306   1.076  -2.680  0.00  0.00    -0.166 NA
BRANCH  16  25
ATOM     21  C   UNL     1       9.332   4.731   2.453  0.00  0.00    +0.044 C 
ATOM     22  C   UNL     1       8.684   3.835   1.428  0.00  0.00    -0.050 A 
ATOM     23  C   UNL     1       9.471   3.102   0.558  0.00  0.00    +0.004 A 
ATOM     24  C   UNL     1       8.884   2.281  -0.383  0.00  0.00    +0.010 A 
ATOM     25  C   UNL     1       7.495   2.191  -0.455  0.00  0.00    +0.002 A 
ATOM     26  C   UNL     1       6.707   2.935   0.420  0.00  0.00    +0.010 A 
ATOM     27  C   UNL     1       7.305   3.749   1.361  0.00  0.00    +0.004 A 
ENDBRANCH  16  25
BRANCH  19  28
ATOM     28  C   UNL     1       6.532  -0.293  -4.619  0.00  0.00    +0.065 A 
ATOM     29  C   UNL     1       5.577  -1.166  -5.122  0.00  0.00    +0.028 A 
ATOM     30  C   UNL     1       5.692  -1.645  -6.413  0.00  0.00    +0.002 A 
ATOM     31  C   UNL     1       6.763  -1.263  -7.200  0.00  0.00    +0.000 A 
ATOM     32  C   UNL     1       7.718  -0.397  -6.700  0.00  0.00    +0.002 A 
ATOM     33  C   UNL     1       7.606   0.088  -5.413  0.00  0.00    +0.028 A 
ENDBRANCH  19  28
ENDBRANCH   1  17
BRANCH   6  34
ATOM     34  C   UNL     1       3.332  -3.032  -0.048  0.00  0.00    +0.017 C 
BRANCH  34  35
ATOM     35  N   UNL     1       4.036  -4.329  -0.063  0.00  0.00    +0.386 N 
ATOM     36  H   UNL     1       4.633  -4.399   0.770  0.00  0.00    -0.085 HD
ATOM     37  H   UNL     1       4.617  -4.389  -0.907  0.00  0.00    -0.085 HD
BRANCH  35  38
ATOM     38  C   UNL     1       3.064  -5.439  -0.059  0.00  0.00    -0.054 C 
BRANCH  38  39
ATOM     39  C   UNL     1       3.822  -6.768  -0.074  0.00  0.00    +0.137 C 
BRANCH  39  40
ATOM     40  O   UNL     1       4.564  -6.907   1.139  0.00  0.00    -0.397 OA
ATOM     41  H   UNL     1       5.070  -7.729   1.198  0.00  0.00    +0.209 HD
ENDBRANCH  39  40
ENDBRANCH  38  39
ENDBRANCH  35  38
ENDBRANCH  34  35
ENDBRANCH   6  34
TORSDOF 10
