REMARK  Name = ZINC02699225
REMARK  8 active torsions:
REMARK  status: ('A' for Active; 'I' for Inactive)
REMARK    1  A    between atoms: C_1  and  C_2
REMARK    2  A    between atoms: C_7  and  N_8
REMARK    3  A    between atoms: N_8  and  C_9
REMARK    4  A    between atoms: C_10  and  S_23
REMARK    5  A    between atoms: C_11  and  N_22
REMARK    6  A    between atoms: C_12  and  C_14
REMARK    7  A    between atoms: C_14  and  C_16
REMARK    8  A    between atoms: S_23  and  C_26
REMARK                            x       y       z     vdW  Elec       q    Type
REMARK                         _______ _______ _______ _____ _____    ______ ____
ROOT
ATOM      1  C   UNL     1       1.063  -0.913   0.219  0.00  0.00    +0.098 A 
ATOM      2  C   UNL     1       1.444  -2.146  -0.275  0.00  0.00    +0.143 A 
ATOM      3  C   UNL     1       2.781  -2.436  -0.374  0.00  0.00    +0.070 A 
ATOM      4  C   UNL     1       3.702  -1.462   0.034  0.00  0.00    +0.084 A 
ATOM      5  S   UNL     1       2.632  -0.130   0.551  0.00  0.00    -0.066 S 
ENDROOT
BRANCH   3   6
ATOM      6  N   UNL     1       3.211  -3.663  -0.866  0.00  0.00    -0.355 N 
ATOM      7  H   UNL     1       2.606  -4.217  -1.384  0.00  0.00    +0.142 HD
ATOM      8  H   UNL     1       4.115  -3.966  -0.691  0.00  0.00    +0.142 HD
ENDBRANCH   3   6
BRANCH   2   9
ATOM      9  S   UNL     1       0.232  -3.325  -0.769  0.00  0.00    +0.029 S 
ATOM     10  O   UNL     1       0.815  -4.608  -0.585  0.00  0.00    -0.164 OA
ATOM     11  O   UNL     1      -0.985  -2.945  -0.141  0.00  0.00    -0.164 OA
BRANCH   9  12
ATOM     12  C   UNL     1      -0.012  -3.127  -2.503  0.00  0.00    +0.094 A 
ATOM     13  C   UNL     1      -0.977  -2.253  -2.969  0.00  0.00    +0.029 A 
ATOM     14  C   UNL     1      -1.165  -2.093  -4.329  0.00  0.00    +0.022 A 
ATOM     15  C   UNL     1      -0.395  -2.815  -5.223  0.00  0.00    +0.041 A 
ATOM     16  C   UNL     1       0.567  -3.693  -4.756  0.00  0.00    +0.022 A 
ATOM     17  C   UNL     1       0.758  -3.848  -3.396  0.00  0.00    +0.029 A 
ATOM     18 CL   UNL     1      -0.634  -2.618  -6.931  0.00  0.00    -0.084 Cl
ENDBRANCH   9  12
ENDBRANCH   2   9
BRANCH   1  19
ATOM     19  N   UNL     1      -0.212  -0.410   0.405  0.00  0.00    -0.307 N 
ATOM     20  H   UNL     1      -0.982  -0.913   0.094  0.00  0.00    +0.153 HD
BRANCH  19  27
ATOM     21  C   UNL     1      -2.367   1.239  -0.452  0.00  0.00    +0.045 C 
ATOM     22  C   UNL     1      -1.432   1.658   0.653  0.00  0.00    -0.029 A 
ATOM     23  C   UNL     1      -1.610   2.872   1.287  0.00  0.00    +0.005 A 
ATOM     24  C   UNL     1      -0.749   3.260   2.297  0.00  0.00    +0.000 A 
ATOM     25  C   UNL     1       0.290   2.432   2.680  0.00  0.00    +0.002 A 
ATOM     26  C   UNL     1       0.471   1.214   2.054  0.00  0.00    +0.023 A 
ATOM     27  C   UNL     1      -0.393   0.821   1.039  0.00  0.00    +0.035 A 
ENDBRANCH  19  27
ENDBRANCH   1  19
BRANCH   4  28
ATOM     28  C   UNL     1       5.106  -1.517   0.030  0.00  0.00    +0.202 C 
ATOM     29  O   UNL     1       5.675  -2.560  -0.247  0.00  0.00    -0.286 OA
BRANCH  28  30
ATOM     30  C   UNL     1       5.895  -0.310   0.363  0.00  0.00    +0.023 A 
ATOM     31  C   UNL     1       5.410   0.957   0.035  0.00  0.00    +0.012 A 
ATOM     32  C   UNL     1       6.147   2.079   0.353  0.00  0.00    +0.001 A 
ATOM     33  C   UNL     1       7.371   1.949   0.986  0.00  0.00    +0.000 A 
ATOM     34  C   UNL     1       7.860   0.696   1.309  0.00  0.00    +0.001 A 
ATOM     35  C   UNL     1       7.130  -0.433   1.001  0.00  0.00    +0.012 A 
ENDBRANCH  28  30
ENDBRANCH   4  28
TORSDOF 7
