REMARK  Name = ZINC16614614
REMARK  14 active torsions:
REMARK  status: ('A' for Active; 'I' for Inactive)
REMARK    1  A    between atoms: C_1  and  C_2
REMARK    2  A    between atoms: C_5  and  C_8
REMARK    3  A    between atoms: C_14  and  C_16
REMARK    4  A    between atoms: C_16  and  C_18
REMARK    5  A    between atoms: C_16  and  N_21
REMARK    6  A    between atoms: C_18  and  C_19
REMARK    7  A    between atoms: C_18  and  C_20
REMARK    8  A    between atoms: N_24  and  C_25
REMARK    9  A    between atoms: C_26  and  C_34
REMARK   10  A    between atoms: C_30  and  C_31
REMARK   11  A    between atoms: C_31  and  C_32
REMARK   12  A    between atoms: C_31  and  C_33
REMARK   13  A    between atoms: C_34  and  C_35
REMARK   14  A    between atoms: C_34  and  C_36
REMARK                            x       y       z     vdW  Elec       q    Type
REMARK                         _______ _______ _______ _____ _____    ______ ____
ROOT
ATOM      1  C   UNL     1      -3.285   0.908   1.249  0.00  0.00    +0.163 C 
ENDROOT
BRANCH   1   8
ATOM      2  C   UNL     1      -9.074  -1.258  -0.273  0.00  0.00    +0.134 A 
ATOM      3  N   UNL     1      -7.938  -1.517  -0.907  0.00  0.00    -0.140 NA
ATOM      4  N   UNL     1      -6.852  -1.016  -0.501  0.00  0.00    -0.125 NA
ATOM      5  C   UNL     1      -6.798  -0.233   0.564  0.00  0.00    +0.188 A 
ATOM      6  S   UNL     1      -8.472  -0.193   1.032  0.00  0.00    -0.030 S 
ATOM      7  N   UNL     1      -5.702   0.393   1.145  0.00  0.00    -0.262 N 
ATOM      8  C   UNL     1      -4.473   0.229   0.617  0.00  0.00    +0.239 C 
ATOM      9  O   UNL     1      -4.323  -0.465  -0.366  0.00  0.00    -0.273 OA
ATOM     10  H   UNL     1      -5.822   0.948   1.932  0.00  0.00    +0.157 HD
BRANCH   2  15
ATOM     11  C   UNL     1     -14.424  -3.054  -1.402  0.00  0.00    +0.044 C 
ATOM     12  C   UNL     1     -13.023  -2.584  -1.106  0.00  0.00    -0.050 A 
ATOM     13  C   UNL     1     -11.976  -2.987  -1.916  0.00  0.00    +0.004 A 
ATOM     14  C   UNL     1     -10.691  -2.560  -1.651  0.00  0.00    +0.011 A 
ATOM     15  C   UNL     1     -10.449  -1.720  -0.563  0.00  0.00    +0.009 A 
ATOM     16  C   UNL     1     -11.509  -1.321   0.252  0.00  0.00    +0.011 A 
ATOM     17  C   UNL     1     -12.790  -1.751  -0.027  0.00  0.00    +0.004 A 
ENDBRANCH   2  15
ENDBRANCH   1   8
BRANCH   1  18
ATOM     18  N   UNL     1      -2.074   0.574   0.494  0.00  0.00    -0.288 N 
ATOM     19  C   UNL     1      -1.013   1.405   0.521  0.00  0.00    +0.304 C 
ATOM     20  O   UNL     1      -1.060   2.431   1.171  0.00  0.00    -0.252 OA
ATOM     21  N   UNL     1       0.101   1.098  -0.173  0.00  0.00    -0.269 N 
ATOM     22  H   UNL     1      -2.036  -0.245  -0.025  0.00  0.00    +0.151 HD
ATOM     23  H   UNL     1       0.111   0.323  -0.757  0.00  0.00    +0.156 HD
BRANCH  21  24
ATOM     24  C   UNL     1       1.242   1.900  -0.056  0.00  0.00    +0.042 A 
ATOM     25  C   UNL     1       1.184   3.245  -0.396  0.00  0.00    -0.023 A 
ATOM     26  C   UNL     1       2.310   4.036  -0.274  0.00  0.00    +0.006 A 
ATOM     27  C   UNL     1       3.497   3.486   0.175  0.00  0.00    +0.001 A 
ATOM     28  C   UNL     1       3.559   2.146   0.509  0.00  0.00    +0.006 A 
ATOM     29  C   UNL     1       2.435   1.351   0.394  0.00  0.00    -0.023 A 
BRANCH  29  30
ATOM     30  C   UNL     1       2.504  -0.110   0.758  0.00  0.00    +0.015 C 
ATOM     31  C   UNL     1       3.540  -0.807  -0.126  0.00  0.00    +0.012 C 
ATOM     32  C   UNL     1       2.908  -0.252   2.227  0.00  0.00    +0.012 C 
ENDBRANCH  29  30
BRANCH  25  33
ATOM     33  C   UNL     1      -0.107   3.843  -0.891  0.00  0.00    +0.015 C 
ATOM     34  C   UNL     1      -0.450   5.080  -0.058  0.00  0.00    +0.012 C 
ATOM     35  C   UNL     1       0.047   4.245  -2.360  0.00  0.00    +0.012 C 
ENDBRANCH  25  33
ENDBRANCH  21  24
ENDBRANCH   1  18
BRANCH   1  36
ATOM     36  C   UNL     1      -3.133   0.430   2.694  0.00  0.00    +0.012 C 
ATOM     37  C   UNL     1      -2.799  -1.063   2.705  0.00  0.00    +0.009 C 
ATOM     38  C   UNL     1      -2.005   1.209   3.373  0.00  0.00    +0.009 C 
ENDBRANCH   1  36
TORSDOF 7
