REMARK  Name = ZINC20352483
REMARK  10 active torsions:
REMARK  status: ('A' for Active; 'I' for Inactive)
REMARK    1  A    between atoms: C_1  and  C_2
REMARK    2  A    between atoms: C_4  and  N_9
REMARK    3  A    between atoms: N_9  and  C_10
REMARK    4  A    between atoms: C_10  and  C_12
REMARK    5  A    between atoms: C_10  and  C_13
REMARK    6  A    between atoms: N_15  and  N_16
REMARK    7  A    between atoms: C_17  and  C_18
REMARK    8  A    between atoms: C_22  and  C_25
REMARK    9  A    between atoms: C_23  and  O_24
REMARK   10  A    between atoms: C_25  and  C_26
REMARK                            x       y       z     vdW  Elec       q    Type
REMARK                         _______ _______ _______ _____ _____    ______ ____
ROOT
ATOM      1  C   UNL     1      -0.552  -4.741  -3.709  0.00  0.00    +0.252 C 
ATOM      2  O   UNL     1      -0.957  -3.955  -4.540  0.00  0.00    -0.272 OA
ATOM      3  N   UNL     1      -0.640  -6.066  -3.937  0.00  0.00    -0.205 N 
ATOM      4  H   UNL     1      -0.316  -6.695  -3.273  0.00  0.00    +0.177 HD
ENDROOT
BRANCH   1   5
ATOM      5  C   UNL     1       0.048  -4.235  -2.423  0.00  0.00    +0.155 C 
ATOM      6  C   UNL     1       1.492  -4.726  -2.307  0.00  0.00    +0.038 C 
BRANCH   5   7
ATOM      7  N   UNL     1       0.028  -2.770  -2.418  0.00  0.00    -0.333 N 
ATOM      8  H   UNL     1       0.017  -2.282  -3.256  0.00  0.00    +0.147 HD
BRANCH   7  12
ATOM      9  C   UNL     1      -0.018   1.503   0.010  0.00  0.00    +0.045 C 
ATOM     10  C   UNL     1       0.002  -0.004   0.002  0.00  0.00    -0.036 A 
ATOM     11  C   UNL     1       0.006  -0.687  -1.198  0.00  0.00    +0.027 A 
ATOM     12  C   UNL     1       0.025  -2.076  -1.205  0.00  0.00    +0.028 A 
ATOM     13  C   UNL     1       0.040  -2.774  -0.004  0.00  0.00    +0.024 A 
ATOM     14  C   UNL     1       0.036  -2.085   1.193  0.00  0.00    +0.016 A 
ATOM     15  C   UNL     1       0.023  -0.701   1.196  0.00  0.00    +0.016 A 
ATOM     16  I   UNL     1       0.027   0.340   3.014  0.00  0.00    -0.044 I 
ENDBRANCH   7  12
ENDBRANCH   5   7
ENDBRANCH   1   5
BRANCH   3  17
ATOM     17  N   UNL     1      -1.198  -6.537  -5.133  0.00  0.00    -0.188 NA
ATOM     18  C   UNL     1      -1.282  -7.813  -5.352  0.00  0.00    +0.142 C 
BRANCH  18  19
ATOM     19  C   UNL     1      -1.869  -8.308  -6.610  0.00  0.00    +0.036 A 
ATOM     20  C   UNL     1      -1.966  -9.681  -6.848  0.00  0.00    +0.013 A 
ATOM     21  C   UNL     1      -2.517 -10.137  -8.027  0.00  0.00    +0.001 A 
ATOM     22  C   UNL     1      -2.974  -9.239  -8.977  0.00  0.00    +0.007 A 
ATOM     23  C   UNL     1      -2.883  -7.879  -8.754  0.00  0.00    -0.002 A 
ATOM     24  C   UNL     1      -2.337  -7.403  -7.573  0.00  0.00    +0.129 A 
BRANCH  24  25
ATOM     25  O   UNL     1      -2.252  -6.066  -7.351  0.00  0.00    -0.506 OA
ATOM     26  H   UNL     1      -1.429  -5.667  -7.664  0.00  0.00    +0.292 HD
ENDBRANCH  24  25
BRANCH  23  27
ATOM     27  C   UNL     1      -3.382  -6.910  -9.795  0.00  0.00    +0.065 C 
BRANCH  27  28
ATOM     28  C   UNL     1      -2.236  -6.480 -10.673  0.00  0.00    -0.030 C 
ATOM     29  C   UNL     1      -2.316  -6.624 -11.973  0.00  0.00    +0.004 C 
ENDBRANCH  27  28
ENDBRANCH  23  27
ENDBRANCH  18  19
ENDBRANCH   3  17
TORSDOF 8
