REMARK  Name = ZINC38008926
REMARK  6 active torsions:
REMARK  status: ('A' for Active; 'I' for Inactive)
REMARK    1  A    between atoms: C_1  and  C_2
REMARK    2  A    between atoms: C_7  and  N_12
REMARK    3  A    between atoms: C_9  and  C_11
REMARK    4  A    between atoms: N_12  and  S_13
REMARK    5  A    between atoms: S_13  and  C_16
REMARK    6  A    between atoms: N_22  and  N_23
REMARK                            x       y       z     vdW  Elec       q    Type
REMARK                         _______ _______ _______ _____ _____    ______ ____
ROOT
ATOM      1  S   UNL     1      -0.974  -3.941   2.062  0.00  0.00    +0.059 S 
ATOM      2  O   UNL     1      -2.371  -4.151   1.908  0.00  0.00    -0.153 OA
ATOM      3  O   UNL     1      -0.010  -4.907   1.666  0.00  0.00    -0.153 OA
ENDROOT
BRANCH   1   4
ATOM      4  C   UNL     1      -0.698  -3.626   3.774  0.00  0.00    +0.110 A 
ATOM      5  C   UNL     1       0.546  -3.856   4.346  0.00  0.00    +0.048 A 
ATOM      6  C   UNL     1       0.730  -3.599   5.690  0.00  0.00    +0.115 A 
ATOM      7  N   UNL     1      -0.260  -3.139   6.433  0.00  0.00    -0.239 NA
ATOM      8  C   UNL     1      -1.460  -2.907   5.924  0.00  0.00    +0.134 A 
ATOM      9  C   UNL     1      -1.714  -3.139   4.576  0.00  0.00    +0.073 A 
ATOM     10  N   UNL     1      -2.473  -2.423   6.743  0.00  0.00    -0.267 N 
ATOM     11  H   UNL     1      -3.354  -2.251   6.375  0.00  0.00    +0.167 HD
BRANCH  10  12
ATOM     12  N   UNL     1      -2.228  -2.188   8.066  0.00  0.00    -0.255 NA
ATOM     13  H   UNL     1      -3.054  -1.840   8.530  0.00  0.00    +0.140 HD
ATOM     14  H   UNL     1      -1.880  -3.018   8.522  0.00  0.00    +0.140 HD
ENDBRANCH  10  12
ENDBRANCH   1   4
BRANCH   1  15
ATOM     15  N   UNL     1      -0.612  -2.548   1.244  0.00  0.00    -0.187 NA
ATOM     16  H   UNL     1      -1.309  -2.067   0.771  0.00  0.00    +0.148 HD
BRANCH  15  22
ATOM     17  C   UNL     1      -0.019   1.526   0.010  0.00  0.00    +0.008 C 
ATOM     18  C   UNL     1       0.002  -0.004   0.002  0.00  0.00    -0.010 C 
ATOM     19  C   UNL     1       0.718  -0.497  -1.257  0.00  0.00    +0.003 C 
ATOM     20  C   UNL     1       0.739  -2.027  -1.265  0.00  0.00    +0.002 C 
ATOM     21  C   UNL     1       1.479  -2.534  -0.026  0.00  0.00    +0.020 C 
ATOM     22  C   UNL     1       0.763  -2.041   1.233  0.00  0.00    +0.080 C 
ATOM     23  C   UNL     1       0.742  -0.511   1.242  0.00  0.00    +0.007 C 
ATOM     24  C   UNL     1       0.026  -0.018   2.500  0.00  0.00    +0.009 C 
ENDBRANCH  15  22
ENDBRANCH   1  15
TORSDOF 4
