REMARK  Name = ZINC67568793
REMARK  7 active torsions:
REMARK  status: ('A' for Active; 'I' for Inactive)
REMARK    1  A    between atoms: C_1  and  N_2
REMARK    2  A    between atoms: N_2  and  C_3
REMARK    3  A    between atoms: C_3  and  C_4
REMARK    4  A    between atoms: C_8  and  C_10
REMARK    5  A    between atoms: N_15  and  C_16
REMARK    6  A    between atoms: C_19  and  C_21
REMARK    7  A    between atoms: C_25  and  C_27
REMARK                            x       y       z     vdW  Elec       q    Type
REMARK                         _______ _______ _______ _____ _____    ______ ____
ROOT
ATOM      1  C   UNL     1      -0.018   1.461   0.010  0.00  0.00    +0.134 C 
ATOM      2  N   UNL     1       0.002  -0.004   0.002  0.00  0.00    -0.284 N 
ATOM      3  C   UNL     1       0.000  -0.672  -1.169  0.00  0.00    +0.302 C 
ATOM      4  O   UNL     1       0.017  -1.887  -1.175  0.00  0.00    -0.253 OA
ATOM      5  N   UNL     1      -0.020   0.009  -2.332  0.00  0.00    -0.296 N 
ATOM      6  H   UNL     1      -0.033   0.978  -2.327  0.00  0.00    +0.151 HD
ENDROOT
BRANCH   5   7
ATOM      7  C   UNL     1      -0.022  -0.717  -3.605  0.00  0.00    +0.082 C 
ATOM      8  C   UNL     1      -0.978  -0.228  -4.695  0.00  0.00    +0.033 C 
ATOM      9  C   UNL     1       0.528   0.010  -4.834  0.00  0.00    +0.041 C 
BRANCH   9  10
ATOM     10  C   UNL     1       1.272  -0.813  -5.854  0.00  0.00    -0.042 A 
ATOM     11  C   UNL     1       0.633  -1.856  -6.499  0.00  0.00    +0.004 A 
ATOM     12  C   UNL     1       1.315  -2.611  -7.434  0.00  0.00    +0.001 A 
ATOM     13  C   UNL     1       2.636  -2.322  -7.726  0.00  0.00    +0.012 A 
ATOM     14  C   UNL     1       3.273  -1.278  -7.082  0.00  0.00    +0.055 A 
ATOM     15  C   UNL     1       2.590  -0.521  -6.149  0.00  0.00    +0.016 A 
BRANCH  14  16
ATOM     16  C   UNL     1       4.713  -0.964  -7.400  0.00  0.00    +0.417 C 
ATOM     17  F   UNL     1       5.182  -1.858  -8.368  0.00  0.00    -0.166 F 
ATOM     18  F   UNL     1       4.808   0.344  -7.887  0.00  0.00    -0.166 F 
ATOM     19  F   UNL     1       5.484  -1.086  -6.239  0.00  0.00    -0.166 F 
ENDBRANCH  14  16
ENDBRANCH   9  10
ENDBRANCH   5   7
BRANCH   2  20
ATOM     20  C   UNL     1       0.024  -0.743   1.267  0.00  0.00    +0.144 C 
BRANCH  20  21
ATOM     21  C   UNL     1      -1.389  -1.016   1.714  0.00  0.00    -0.029 A 
ATOM     22  C   UNL     1      -2.047  -0.103   2.519  0.00  0.00    +0.005 A 
ATOM     23  C   UNL     1      -3.344  -0.346   2.934  0.00  0.00    +0.001 A 
ATOM     24  C   UNL     1      -3.991  -1.501   2.546  0.00  0.00    +0.013 A 
ATOM     25  C   UNL     1      -3.333  -2.426   1.734  0.00  0.00    +0.037 A 
ATOM     26  C   UNL     1      -2.026  -2.173   1.315  0.00  0.00    +0.018 A 
BRANCH  25  27
ATOM     27  C   UNL     1      -4.019  -3.667   1.315  0.00  0.00    +0.242 C 
ATOM     28  O   UNL     1      -3.444  -4.471   0.608  0.00  0.00    -0.270 OA
ATOM     29  N   UNL     1      -5.283  -3.907   1.718  0.00  0.00    -0.325 N 
ATOM     30  H   UNL     1      -5.742  -3.265   2.283  0.00  0.00    +0.145 HD
ATOM     31  H   UNL     1      -5.734  -4.721   1.443  0.00  0.00    +0.145 HD
ENDBRANCH  25  27
ENDBRANCH  20  21
ENDBRANCH   2  20
TORSDOF 6
