REMARK  Name = ZINC64930587
REMARK  6 active torsions:
REMARK  status: ('A' for Active; 'I' for Inactive)
REMARK    1  A    between atoms: C_1  and  C_2
REMARK    2  A    between atoms: C_5  and  N_8
REMARK    3  A    between atoms: C_9  and  C_11
REMARK    4  A    between atoms: C_14  and  C_16
REMARK    5  A    between atoms: N_24  and  C_25
REMARK    6  A    between atoms: C_28  and  C_31
REMARK                            x       y       z     vdW  Elec       q    Type
REMARK                         _______ _______ _______ _____ _____    ______ ____
ROOT
ATOM      1  C   UNL     1       0.250  -6.273   0.244  0.00  0.00    +0.187 A 
ATOM      2  N   UNL     1       0.316  -7.262  -0.643  0.00  0.00    -0.136 NA
ATOM      3  N   UNL     1       0.438  -8.448  -0.222  0.00  0.00    -0.144 NA
ATOM      4  C   UNL     1       0.503  -8.730   1.064  0.00  0.00    +0.123 A 
ATOM      5  S   UNL     1       0.388  -7.201   1.765  0.00  0.00    -0.044 S 
ENDROOT
BRANCH   4   6
ATOM      6  C   UNL     1       0.647 -10.072   1.734  0.00  0.00    +0.135 C 
ATOM      7  C   UNL     1      -0.689 -10.840   1.665  0.00  0.00    +0.031 C 
ATOM      8  C   UNL     1      -0.237 -12.302   1.411  0.00  0.00    +0.021 C 
ATOM      9  C   UNL     1       0.999 -12.092   0.501  0.00  0.00    +0.110 C 
ATOM     10  N   UNL     1       1.655 -10.877   1.028  0.00  0.00    -0.276 N 
ATOM     11  C   UNL     1       2.956 -10.559   0.885  0.00  0.00    +0.307 C 
ATOM     12  O   UNL     1       3.385  -9.526   1.363  0.00  0.00    -0.252 OA
ATOM     13  N   UNL     1       3.782 -11.384   0.212  0.00  0.00    -0.269 N 
ATOM     14  H   UNL     1       3.426 -12.168  -0.234  0.00  0.00    +0.156 HD
BRANCH  13  15
ATOM     15  C   UNL     1       5.154 -11.110   0.158  0.00  0.00    +0.035 A 
ATOM     16  C   UNL     1       5.882 -11.429  -0.980  0.00  0.00    +0.023 A 
ATOM     17  C   UNL     1       7.235 -11.156  -1.031  0.00  0.00    +0.005 A 
ATOM     18  C   UNL     1       7.864 -10.567   0.050  0.00  0.00    -0.050 A 
ATOM     19  C   UNL     1       7.142 -10.249   1.185  0.00  0.00    +0.005 A 
ATOM     20  C   UNL     1       5.787 -10.513   1.240  0.00  0.00    +0.023 A 
ATOM     21  C   UNL     1       9.341 -10.271  -0.009  0.00  0.00    +0.044 C 
ENDBRANCH  13  15
ENDBRANCH   4   6
BRANCH   1  23
ATOM     22  N   UNL     1       0.019  -4.330  -1.220  0.00  0.00    -0.280 N 
ATOM     23  C   UNL     1       0.109  -4.822   0.032  0.00  0.00    +0.275 C 
ATOM     24  O   UNL     1       0.073  -4.069   0.986  0.00  0.00    -0.268 OA
ATOM     25  H   UNL     1      -0.025  -4.934  -1.977  0.00  0.00    +0.155 HD
BRANCH  22  30
ATOM     26  C   UNL     1      -0.099   1.279  -2.057  0.00  0.00    +0.044 C 
ATOM     27  C   UNL     1      -0.068  -0.211  -1.835  0.00  0.00    -0.050 A 
ATOM     28  C   UNL     1      -0.775  -1.049  -2.676  0.00  0.00    +0.005 A 
ATOM     29  C   UNL     1      -0.749  -2.416  -2.475  0.00  0.00    +0.023 A 
ATOM     30  C   UNL     1      -0.009  -2.947  -1.426  0.00  0.00    +0.034 A 
ATOM     31  C   UNL     1       0.700  -2.102  -0.583  0.00  0.00    +0.023 A 
ATOM     32  C   UNL     1       0.673  -0.737  -0.792  0.00  0.00    +0.005 A 
ENDBRANCH  22  30
ENDBRANCH   1  23
TORSDOF 4
