REMARK  Name = ZINC35668297
REMARK  10 active torsions:
REMARK  status: ('A' for Active; 'I' for Inactive)
REMARK    1  A    between atoms: C_1  and  C_2
REMARK    2  A    between atoms: C_2  and  C_4
REMARK    3  A    between atoms: C_4  and  O_5
REMARK    4  A    between atoms: O_5  and  C_6
REMARK    5  A    between atoms: C_7  and  O_27
REMARK    6  A    between atoms: C_9  and  C_13
REMARK    7  A    between atoms: CA_14  and  C_15
REMARK    8  A    between atoms: CA_14  and  N_18
REMARK    9  A    between atoms: C_19  and  C_21
REMARK   10  A    between atoms: O_27  and  C_28
REMARK                            x       y       z     vdW  Elec       q    Type
REMARK                         _______ _______ _______ _____ _____    ______ ____
ROOT
ATOM      1  C   UNL     1      -0.018  -5.496  -5.573  0.00  0.00    +0.038 C 
ATOM      2  CA  UNL     1       0.997  -5.420  -6.470  0.00  0.00    +0.123 C 
ENDROOT
BRANCH   1   6
ATOM      3  C   UNL     1      -0.077  -2.902  -2.215  0.00  0.00    +0.175 A 
ATOM      4  C   UNL     1      -1.266  -3.209  -2.875  0.00  0.00    +0.163 A 
ATOM      5  C   UNL     1      -1.251  -4.053  -3.968  0.00  0.00    +0.057 A 
ATOM      6  C   UNL     1      -0.040  -4.598  -4.411  0.00  0.00    -0.018 A 
ATOM      7  C   UNL     1       1.150  -4.285  -3.743  0.00  0.00    +0.026 A 
ATOM      8  C   UNL     1       1.126  -3.437  -2.656  0.00  0.00    +0.059 A 
ATOM      9  I   UNL     1       2.909  -2.962  -1.663  0.00  0.00    -0.040 I 
BRANCH   4  10
ATOM     10  O   UNL     1      -2.441  -2.678  -2.443  0.00  0.00    -0.491 OA
ATOM     11  C   UNL     1      -3.620  -3.035  -3.166  0.00  0.00    +0.277 C 
ENDBRANCH   4  10
BRANCH   3  12
ATOM     12  O   UNL     1      -0.094  -2.071  -1.140  0.00  0.00    -0.483 OA
BRANCH  12  13
ATOM     13  C   UNL     1       0.060  -0.674  -1.396  0.00  0.00    +0.259 C 
BRANCH  13  15
ATOM     14  C   UNL     1       0.157   1.584  -0.090  0.00  0.00    +0.042 C 
ATOM     15  C   UNL     1       0.016   0.083  -0.094  0.00  0.00    -0.043 C 
ATOM     16  C   UNL     1      -0.146  -0.562   1.034  0.00  0.00    +0.011 C 
ENDBRANCH  13  15
ENDBRANCH  12  13
ENDBRANCH   3  12
ENDBRANCH   1   6
BRANCH   2  17
ATOM     17  N   UNL     1       0.992  -6.241  -7.604  0.00  0.00    -0.276 N 
ATOM     18  C   UNL     1       1.937  -6.086  -8.553  0.00  0.00    +0.248 C 
ATOM     19  O   UNL     1       2.838  -5.287  -8.388  0.00  0.00    -0.270 OA
ATOM     20  H   UNL     1       0.309  -6.922  -7.707  0.00  0.00    +0.155 HD
BRANCH  18  21
ATOM     21  C   UNL     1       1.877  -6.887  -9.794  0.00  0.00    +0.037 A 
ATOM     22  C   UNL     1       0.840  -7.801  -9.989  0.00  0.00    +0.013 A 
ATOM     23  C   UNL     1       0.790  -8.545 -11.149  0.00  0.00    +0.001 A 
ATOM     24  C   UNL     1       1.764  -8.388 -12.118  0.00  0.00    +0.000 A 
ATOM     25  C   UNL     1       2.795  -7.484 -11.931  0.00  0.00    +0.001 A 
ATOM     26  C   UNL     1       2.853  -6.729 -10.778  0.00  0.00    +0.013 A 
ENDBRANCH  18  21
ENDBRANCH   2  17
BRANCH   2  27
ATOM     27  C   UNL     1       2.098  -4.480  -6.252  0.00  0.00    +0.400 C 
ATOM     28  O   UNL     1       3.154  -4.875  -5.774  0.00  0.00    -0.239 OA
ATOM     29  OXT UNL     1       1.962  -3.300  -6.548  0.00  0.00    -0.239 OA
ENDBRANCH   2  27
TORSDOF 8
