REMARK  Name = ZINC25143390
REMARK  7 active torsions:
REMARK  status: ('A' for Active; 'I' for Inactive)
REMARK    1  A    between atoms: C_4  and  N_7
REMARK    2  A    between atoms: C_8  and  C_10
REMARK    3  A    between atoms: C_10  and  N_11
REMARK    4  A    between atoms: C_14  and  N_17
REMARK    5  A    between atoms: N_17  and  S_18
REMARK    6  A    between atoms: S_18  and  C_21
REMARK    7  A    between atoms: C_24  and  C_27
REMARK                            x       y       z     vdW  Elec       q    Type
REMARK                         _______ _______ _______ _____ _____    ______ ____
ROOT
ATOM      1  N   UNL     1       2.138   0.021   1.175  0.00  0.00    +0.385 N 
ATOM      2  C   UNL     1       0.723  -0.290   1.414  0.00  0.00    -0.077 C 
ATOM      3  C   UNL     1      -0.115   0.191   0.227  0.00  0.00    +0.002 C 
ATOM      4  C   UNL     1       0.073   1.701   0.056  0.00  0.00    +0.073 C 
ATOM      5  C   UNL     1       1.561   2.003  -0.144  0.00  0.00    +0.002 C 
ATOM      6  C   UNL     1       2.350   1.468   1.054  0.00  0.00    -0.077 C 
ATOM      7  H   UNL     1       2.426  -0.442   0.219  0.00  0.00    -0.081 HD
ENDROOT
BRANCH   4   8
ATOM      8  N   UNL     1      -0.680   2.158  -1.115  0.00  0.00    -0.187 NA
ATOM      9  H   UNL     1      -0.635   1.588  -2.055  0.00  0.00    +0.148 HD
BRANCH   8  10
ATOM     10  S   UNL     1      -1.396   3.651  -1.107  0.00  0.00    +0.059 S 
ATOM     11  O   UNL     1      -2.017   3.810  -2.375  0.00  0.00    -0.153 OA
ATOM     12  O   UNL     1      -2.117   3.750   0.113  0.00  0.00    -0.153 OA
BRANCH  10  13
ATOM     13  C   UNL     1      -0.104   4.847  -1.027  0.00  0.00    +0.105 A 
ATOM     14  C   UNL     1       0.350   5.292   0.201  0.00  0.00    +0.029 A 
ATOM     15  C   UNL     1       1.367   6.227   0.264  0.00  0.00    +0.006 A 
ATOM     16  C   UNL     1       1.921   6.725  -0.900  0.00  0.00    -0.044 A 
ATOM     17  C   UNL     1       1.464   6.284  -2.127  0.00  0.00    +0.006 A 
ATOM     18  C   UNL     1       0.451   5.345  -2.191  0.00  0.00    +0.029 A 
BRANCH  16  19
ATOM     19  C   UNL     1       3.026   7.747  -0.831  0.00  0.00    +0.019 C 
ATOM     20  C   UNL     1       4.219   7.160  -0.074  0.00  0.00    +0.008 C 
ATOM     21  C   UNL     1       5.340   8.198  -0.004  0.00  0.00    +0.001 C 
ATOM     22  C   UNL     1       4.836   9.444   0.727  0.00  0.00    +0.000 C 
ATOM     23  C   UNL     1       3.644  10.032  -0.029  0.00  0.00    +0.001 C 
ATOM     24  C   UNL     1       2.522   8.993  -0.100  0.00  0.00    +0.008 C 
ENDBRANCH  16  19
ENDBRANCH  10  13
ENDBRANCH   8  10
ENDBRANCH   4   8
BRANCH   1  25
ATOM     25  C   UNL     1       2.988  -0.550   2.229  0.00  0.00    +0.019 C 
BRANCH  25  27
ATOM     26  N   UNL     1       3.550  -2.797   3.097  0.00  0.00    -0.287 N 
ATOM     27  C   UNL     1       2.947  -2.054   2.147  0.00  0.00    +0.201 C 
ATOM     28  O   UNL     1       2.373  -2.596   1.227  0.00  0.00    -0.278 OA
ATOM     29  H   UNL     1       4.006  -2.308   3.971  0.00  0.00    +0.155 HD
BRANCH  26  33
ATOM     30  C   UNL     1       3.687  -6.944   2.724  0.00  0.00    +0.000 A 
ATOM     31  C   UNL     1       4.750  -6.267   3.292  0.00  0.00    +0.002 A 
ATOM     32  C   UNL     1       4.708  -4.892   3.417  0.00  0.00    +0.023 A 
ATOM     33  C   UNL     1       3.596  -4.189   2.972  0.00  0.00    +0.033 A 
ATOM     34  C   UNL     1       2.527  -4.873   2.407  0.00  0.00    +0.023 A 
ATOM     35  C   UNL     1       2.578  -6.247   2.280  0.00  0.00    +0.002 A 
ENDBRANCH  26  33
ENDBRANCH  25  27
ENDBRANCH   1  25
TORSDOF 7
