REMARK  Name = ZINC00646959
REMARK  5 active torsions:
REMARK  status: ('A' for Active; 'I' for Inactive)
REMARK    1  A    between atoms: C_3  and  C_6
REMARK    2  A    between atoms: C_9  and  C_32
REMARK    3  A    between atoms: C_14  and  C_16
REMARK    4  A    between atoms: N_18  and  C_19
REMARK    5  A    between atoms: C_20  and  C_28
REMARK                            x       y       z     vdW  Elec       q    Type
REMARK                         _______ _______ _______ _____ _____    ______ ____
ROOT
ATOM      1  C   UNL     1      -5.182   7.740  -0.356  0.00  0.00    +0.140 C 
ATOM      2  C   UNL     1      -6.022   6.750   0.457  0.00  0.00    +0.066 C 
ATOM      3  C   UNL     1      -5.630   5.320   0.059  0.00  0.00    +0.215 C 
ATOM      4  N   UNL     1      -4.164   5.242   0.051  0.00  0.00    -0.237 N 
ATOM      5  C   UNL     1      -3.341   6.329   0.053  0.00  0.00    +0.133 A 
ATOM      6  C   UNL     1      -2.064   5.879   0.044  0.00  0.00    +0.089 A 
ATOM      7  C   UNL     1      -2.105   4.467   0.037  0.00  0.00    +0.163 A 
ATOM      8  N   UNL     1      -3.372   4.094   0.035  0.00  0.00    -0.163 NA
ATOM      9 BR   UNL     1      -0.504   6.948   0.042  0.00  0.00    -0.044 Br
ATOM     10  N   UNL     1      -3.774   7.654   0.062  0.00  0.00    -0.318 N 
ATOM     11  H   UNL     1      -3.188   8.230  -0.523  0.00  0.00    +0.148 HD
ENDROOT
BRANCH   1  14
ATOM     12  C   UNL     1      -6.721  11.088  -0.340  0.00  0.00    +0.041 A 
ATOM     13  C   UNL     1      -6.496   9.832  -0.947  0.00  0.00    +0.046 A 
ATOM     14  C   UNL     1      -5.690   9.139  -0.122  0.00  0.00    +0.125 A 
ATOM     15  O   UNL     1      -5.409   9.909   0.942  0.00  0.00    -0.466 OA
ATOM     16  C   UNL     1      -6.032  11.092   0.816  0.00  0.00    +0.195 A 
ENDBRANCH   1  14
BRANCH   7  17
ATOM     17  C   UNL     1      -0.936   3.566   0.026  0.00  0.00    +0.270 C 
ATOM     18  O   UNL     1       0.188   4.028   0.023  0.00  0.00    -0.268 OA
ATOM     19  N   UNL     1      -1.115   2.230   0.020  0.00  0.00    -0.274 N 
ATOM     20  H   UNL     1      -2.012   1.861   0.022  0.00  0.00    +0.156 HD
BRANCH  19  21
ATOM     21  C   UNL     1      -0.017   1.383   0.010  0.00  0.00    +0.090 A 
ATOM     22  C   UNL     1       0.002  -0.004   0.002  0.00  0.00    +0.084 A 
ATOM     23  C   UNL     1       1.299  -0.658  -0.014  0.00  0.00    -0.018 A 
ATOM     24  C   UNL     1       2.363   0.174  -0.019  0.00  0.00    -0.004 A 
ATOM     25  S   UNL     1       1.665   1.801  -0.004  0.00  0.00    -0.077 S 
ATOM     26  C   UNL     1       3.811  -0.210  -0.035  0.00  0.00    +0.043 C 
ATOM     27  C   UNL     1       3.920  -1.697   0.334  0.00  0.00    +0.005 C 
ATOM     28  C   UNL     1       2.905  -2.487  -0.498  0.00  0.00    +0.005 C 
ATOM     29  C   UNL     1       1.485  -2.171  -0.025  0.00  0.00    +0.037 C 
BRANCH  22  30
ATOM     30  C   UNL     1      -1.212  -0.763   0.010  0.00  0.00    +0.102 C 
ATOM     31  N   UNL     1      -2.176  -1.365   0.016  0.00  0.00    -0.191 NA
ENDBRANCH  22  30
ENDBRANCH  19  21
ENDBRANCH   7  17
BRANCH   3  32
ATOM     32  C   UNL     1      -6.196   4.326   1.076  0.00  0.00    +0.412 C 
ATOM     33  F   UNL     1      -7.590   4.432   1.106  0.00  0.00    -0.168 F 
ATOM     34  F   UNL     1      -5.835   3.026   0.708  0.00  0.00    -0.168 F 
ATOM     35  F   UNL     1      -5.679   4.612   2.344  0.00  0.00    -0.168 F 
ENDBRANCH   3  32
TORSDOF 5
