REMARK  Name = ZINC02936370
REMARK  6 active torsions:
REMARK  status: ('A' for Active; 'I' for Inactive)
REMARK    1  A    between atoms: C_1  and  C_2
REMARK    2  A    between atoms: C_5  and  C_8
REMARK    3  A    between atoms: C_10  and  C_25
REMARK    4  A    between atoms: C_12  and  C_15
REMARK    5  A    between atoms: C_19  and  N_21
REMARK    6  A    between atoms: C_30  and  O_31
REMARK                            x       y       z     vdW  Elec       q    Type
REMARK                         _______ _______ _______ _____ _____    ______ ____
ROOT
ATOM      1  C   UNL     1      -2.409   3.337   1.889  0.00  0.00    +0.040 C 
ATOM      2  C   UNL     1      -1.827   2.236   1.434  0.00  0.00    +0.044 C 
ATOM      3  C   UNL     1      -1.338   2.116   0.018  0.00  0.00    -0.028 C 
ATOM      4  C   UNL     1      -2.362   4.266  -0.392  0.00  0.00    +0.081 C 
ATOM      5  N   UNL     1      -2.576   4.445   1.052  0.00  0.00    -0.299 NA
ATOM      6  N   UNL     1      -1.146   3.451  -0.575  0.00  0.00    +0.401 N 
ATOM      7  H   UNL     1      -0.950   3.352  -1.578  0.00  0.00    -0.081 HD
ATOM      8  H   UNL     1      -0.355   3.916  -0.115  0.00  0.00    -0.081 HD
ENDROOT
BRANCH   1  13
ATOM      9  C   UNL     1      -4.261   3.562   7.335  0.00  0.00    +0.044 C 
ATOM     10  C   UNL     1      -3.776   3.503   5.910  0.00  0.00    -0.050 A 
ATOM     11  C   UNL     1      -3.940   4.599   5.081  0.00  0.00    +0.004 A 
ATOM     12  C   UNL     1      -3.499   4.551   3.774  0.00  0.00    +0.010 A 
ATOM     13  C   UNL     1      -2.885   3.395   3.290  0.00  0.00    -0.004 A 
ATOM     14  C   UNL     1      -2.727   2.293   4.129  0.00  0.00    +0.010 A 
ATOM     15  C   UNL     1      -3.168   2.355   5.436  0.00  0.00    +0.004 A 
ENDBRANCH   1  13
BRANCH   4  16
ATOM     16  C   UNL     1      -2.177   5.608  -1.052  0.00  0.00    -0.038 A 
ATOM     17  C   UNL     1      -1.354   5.727  -2.158  0.00  0.00    +0.005 A 
ATOM     18  C   UNL     1      -1.189   6.957  -2.767  0.00  0.00    +0.022 A 
ATOM     19  C   UNL     1      -1.837   8.071  -2.264  0.00  0.00    +0.071 A 
ATOM     20  C   UNL     1      -2.655   7.952  -1.155  0.00  0.00    +0.145 A 
ATOM     21  C   UNL     1      -2.825   6.721  -0.549  0.00  0.00    +0.038 A 
ATOM     22 CL   UNL     1      -1.623   9.617  -3.024  0.00  0.00    -0.081 Cl
BRANCH  20  23
ATOM     23  N   UNL     1      -3.349   9.143  -0.616  0.00  0.00    +0.058 N 
ATOM     24  O   UNL     1      -4.070   9.038   0.360  0.00  0.00    -0.126 OA
ATOM     25  O   UNL     1      -3.200  10.228  -1.149  0.00  0.00    -0.126 OA
ENDBRANCH  20  23
ENDBRANCH   4  16
BRANCH   3  26
ATOM     26  C   UNL     1      -0.025   1.378   0.005  0.00  0.00    -0.018 A 
ATOM     27  C   UNL     1       1.164   2.082  -0.006  0.00  0.00    +0.020 A 
ATOM     28  C   UNL     1       2.370   1.405  -0.023  0.00  0.00    +0.018 A 
ATOM     29  C   UNL     1       2.389   0.021  -0.031  0.00  0.00    +0.019 A 
ATOM     30  C   UNL     1       1.202  -0.686  -0.020  0.00  0.00    +0.047 A 
ATOM     31  C   UNL     1      -0.008  -0.009  -0.003  0.00  0.00    +0.119 A 
ATOM     32 BR   UNL     1       3.996   2.371  -0.038  0.00  0.00    -0.050 Br
BRANCH  31  33
ATOM     33  O   UNL     1      -1.177  -0.703   0.007  0.00  0.00    -0.507 OA
ATOM     34  H   UNL     1      -1.525  -0.900  -0.873  0.00  0.00    +0.292 HD
ENDBRANCH  31  33
ENDBRANCH   3  26
TORSDOF 5
