REMARK  Name = ZINC39665456
REMARK  9 active torsions:
REMARK  status: ('A' for Active; 'I' for Inactive)
REMARK    1  A    between atoms: C_1  and  C_2
REMARK    2  A    between atoms: C_5  and  C_8
REMARK    3  A    between atoms: C_8  and  C_9
REMARK    4  A    between atoms: C_13  and  C_22
REMARK    5  A    between atoms: N_24  and  C_25
REMARK    6  A    between atoms: C_25  and  C_26
REMARK    7  A    between atoms: C_26  and  C_28
REMARK    8  A    between atoms: C_26  and  O_29
REMARK    9  A    between atoms: O_29  and  C_30
REMARK                            x       y       z     vdW  Elec       q    Type
REMARK                         _______ _______ _______ _____ _____    ______ ____
ROOT
ATOM      1  C   UNL     1      -0.581  -4.498  -0.041  0.00  0.00    +0.220 C 
ATOM      2  O   UNL     1       0.177  -3.576   0.178  0.00  0.00    -0.275 OA
ATOM      3  N   UNL     1      -0.154  -5.769   0.095  0.00  0.00    -0.300 N 
ATOM      4  C   UNL     1      -0.923  -7.015  -0.132  0.00  0.00    +0.121 C 
ATOM      5  C   UNL     1       0.079  -7.974  -0.812  0.00  0.00    +0.100 C 
ATOM      6  C   UNL     1       1.465  -7.459  -0.389  0.00  0.00    -0.004 C 
ATOM      7  C   UNL     1       1.194  -6.236   0.499  0.00  0.00    +0.115 C 
ATOM      8  C   UNL     1       2.272  -7.043  -1.616  0.00  0.00    -0.010 C 
ATOM      9  C   UNL     1       3.666  -6.589  -1.174  0.00  0.00    -0.082 C 
ATOM     10  N   UNL     1       4.339  -7.686  -0.468  0.00  0.00    +0.379 N 
ATOM     11  C   UNL     1       3.606  -8.017   0.759  0.00  0.00    -0.082 C 
ATOM     12  C   UNL     1       2.209  -8.531   0.400  0.00  0.00    -0.010 C 
ATOM     13  H   UNL     1       4.374  -8.497  -1.067  0.00  0.00    -0.086 HD
ATOM     14  H   UNL     1       5.279  -7.405  -0.232  0.00  0.00    -0.086 HD
ENDROOT
BRANCH   5  15
ATOM     15  C   UNL     1      -0.071  -7.912  -2.311  0.00  0.00    +0.218 C 
ATOM     16  O   UNL     1      -0.451  -6.889  -2.841  0.00  0.00    -0.275 OA
ATOM     17  N   UNL     1       0.217  -8.993  -3.062  0.00  0.00    -0.312 N 
ATOM     18  H   UNL     1       0.522  -9.811  -2.638  0.00  0.00    +0.149 HD
BRANCH  17  19
ATOM     19  C   UNL     1       0.071  -8.933  -4.518  0.00  0.00    +0.148 C 
BRANCH  19  20
ATOM     20  C   UNL     1       0.460 -10.283  -5.126  0.00  0.00    +0.187 C 
ATOM     21  C   UNL     1       0.428 -10.183  -6.652  0.00  0.00    +0.053 C 
BRANCH  20  22
ATOM     22  O   UNL     1      -0.464 -11.283  -4.694  0.00  0.00    -0.488 OA
BRANCH  22  23
ATOM     23  C   UNL     1      -0.021 -12.568  -4.681  0.00  0.00    +0.121 A 
ATOM     24  C   UNL     1       1.240 -12.873  -5.171  0.00  0.00    +0.045 A 
ATOM     25  C   UNL     1       1.689 -14.180  -5.157  0.00  0.00    +0.004 A 
ATOM     26  C   UNL     1       0.881 -15.183  -4.654  0.00  0.00    +0.000 A 
ATOM     27  C   UNL     1      -0.377 -14.882  -4.165  0.00  0.00    +0.004 A 
ATOM     28  C   UNL     1      -0.827 -13.576  -4.172  0.00  0.00    +0.045 A 
ENDBRANCH  22  23
ENDBRANCH  20  22
ENDBRANCH  19  20
ENDBRANCH  17  19
ENDBRANCH   5  15
BRANCH   1  29
ATOM     29  C   UNL     1      -2.000  -4.221  -0.465  0.00  0.00    +0.131 C 
BRANCH  29  34
ATOM     30  C   UNL     1      -2.849   1.487  -0.757  0.00  0.00    +0.044 C 
ATOM     31  C   UNL     1      -2.628  -0.001  -0.681  0.00  0.00    -0.050 A 
ATOM     32  C   UNL     1      -2.184  -0.692  -1.793  0.00  0.00    +0.003 A 
ATOM     33  C   UNL     1      -1.981  -2.058  -1.723  0.00  0.00    +0.004 A 
ATOM     34  C   UNL     1      -2.221  -2.732  -0.541  0.00  0.00    -0.039 A 
ATOM     35  C   UNL     1      -2.664  -2.042   0.572  0.00  0.00    +0.004 A 
ATOM     36  C   UNL     1      -2.863  -0.675   0.503  0.00  0.00    +0.003 A 
ENDBRANCH  29  34
ENDBRANCH   1  29
TORSDOF 7
