REMARK  Name = ZINC66644341
REMARK  5 active torsions:
REMARK  status: ('A' for Active; 'I' for Inactive)
REMARK    1  A    between atoms: C_1  and  O_2
REMARK    2  A    between atoms: O_2  and  C_3
REMARK    3  A    between atoms: C_9  and  C_11
REMARK    4  A    between atoms: N_13  and  C_14
REMARK    5  A    between atoms: C_17  and  N_20
REMARK                            x       y       z     vdW  Elec       q    Type
REMARK                         _______ _______ _______ _____ _____    ______ ____
ROOT
ATOM      1  C   UNL     1       0.635  -2.381  -5.912  0.00  0.00    +0.034 A 
ATOM      2  C   UNL     1      -0.595  -1.737  -5.953  0.00  0.00    +0.025 A 
ATOM      3  C   UNL     1      -1.164  -1.413  -7.168  0.00  0.00    +0.025 A 
ATOM      4  C   UNL     1      -0.508  -1.731  -8.349  0.00  0.00    +0.035 A 
ATOM      5  C   UNL     1       0.722  -2.375  -8.309  0.00  0.00    +0.025 A 
ATOM      6  C   UNL     1       1.294  -2.693  -7.093  0.00  0.00    +0.025 A 
ENDROOT
BRANCH   4   7
ATOM      7  N   UNL     1      -1.086  -1.402  -9.582  0.00  0.00    -0.269 N 
ATOM      8  C   UNL     1      -0.933  -2.225 -10.639  0.00  0.00    +0.306 C 
ATOM      9  O   UNL     1      -0.225  -3.209 -10.546  0.00  0.00    -0.252 OA
ATOM     10  N   UNL     1      -1.564  -1.956 -11.799  0.00  0.00    -0.285 N 
ATOM     11  C   UNL     1      -2.393  -0.775 -11.880  0.00  0.00    +0.109 C 
ATOM     12  C   UNL     1      -3.838  -1.124 -11.445  0.00  0.00    +0.019 C 
ATOM     13  C   UNL     1      -4.493  -1.954 -12.468  0.00  0.00    +0.002 C 
ATOM     14  C   UNL     1      -3.829  -3.308 -12.697  0.00  0.00    +0.002 C 
ATOM     15  C   UNL     1      -2.698  -3.151 -13.682  0.00  0.00    +0.019 C 
ATOM     16  C   UNL     1      -1.375  -2.877 -12.937  0.00  0.00    +0.109 C 
ATOM     17  H   UNL     1      -1.597  -0.583  -9.676  0.00  0.00    +0.156 HD
ENDBRANCH   4   7
BRANCH   1  20
ATOM     18  C   UNL     1       1.960  -3.825  -4.561  0.00  0.00    +0.238 C 
ATOM     19  O   UNL     1       2.058  -4.591  -5.496  0.00  0.00    -0.273 OA
ATOM     20  N   UNL     1       1.213  -2.710  -4.679  0.00  0.00    -0.284 N 
ATOM     21  H   UNL     1       1.075  -2.135  -3.910  0.00  0.00    +0.155 HD
BRANCH  18  28
ATOM     22  C   UNL     1       2.178  -6.577  -3.229  0.00  0.00    +0.403 C 
ATOM     23  O   UNL     1       0.982  -6.369  -3.296  0.00  0.00    -0.226 OA
ATOM     24  N   UNL     1       3.042  -5.542  -3.212  0.00  0.00    -0.256 N 
ATOM     25  C   UNL     1       4.510  -5.651  -3.140  0.00  0.00    +0.112 C 
ATOM     26  C   UNL     1       4.978  -4.303  -2.537  0.00  0.00    +0.021 C 
ATOM     27  C   UNL     1       3.986  -3.307  -3.193  0.00  0.00    +0.033 C 
ATOM     28  C   UNL     1       2.676  -4.119  -3.268  0.00  0.00    +0.165 C 
BRANCH  22  30
ATOM     29  C   UNL     1       1.667  -8.887  -3.194  0.00  0.00    +0.282 C 
ATOM     30  O   UNL     1       2.639  -7.840  -3.172  0.00  0.00    -0.454 OA
ENDBRANCH  22  30
ENDBRANCH  18  28
ENDBRANCH   1  20
TORSDOF 4
