REMARK  Name = ZINC39691976
REMARK  7 active torsions:
REMARK  status: ('A' for Active; 'I' for Inactive)
REMARK    1  A    between atoms: C_1  and  C_2
REMARK    2  A    between atoms: C_2  and  N_3
REMARK    3  A    between atoms: C_11  and  S_12
REMARK    4  A    between atoms: S_12  and  C_13
REMARK    5  A    between atoms: C_13  and  C_14
REMARK    6  A    between atoms: C_20  and  C_28
REMARK    7  A    between atoms: C_21  and  C_25
REMARK                            x       y       z     vdW  Elec       q    Type
REMARK                         _______ _______ _______ _____ _____    ______ ____
ROOT
ATOM      1  S   UNL     1      -1.471   0.045  -2.647  0.00  0.00    -0.083 S 
ENDROOT
BRANCH   1   8
ATOM      2  N   UNL     1      -1.372  -0.511   0.012  0.00  0.00    -0.251 N 
ATOM      3  C   UNL     1      -1.998  -0.746   1.182  0.00  0.00    +0.231 C 
ATOM      4  O   UNL     1      -1.440  -0.483   2.226  0.00  0.00    -0.274 OA
ATOM      5  C   UNL     1      -3.379  -1.331   1.203  0.00  0.00    +0.137 C 
ATOM      6  C   UNL     1      -3.600  -2.211  -0.054  0.00  0.00    +0.185 C 
ATOM      7  N   UNL     1      -3.038  -1.548  -1.227  0.00  0.00    -0.247 NA
ATOM      8  C   UNL     1      -2.034  -0.745  -1.176  0.00  0.00    +0.160 C 
ATOM      9  S   UNL     1      -5.442  -2.062  -0.121  0.00  0.00    -0.102 S 
ATOM     10  C   UNL     1      -5.573  -0.462   0.649  0.00  0.00    -0.012 C 
ATOM     11  C   UNL     1      -4.421  -0.241   1.263  0.00  0.00    -0.045 C 
ATOM     12  C   UNL     1      -4.178   1.066   2.011  0.00  0.00    +0.032 C 
ATOM     13  C   UNL     1      -5.181   2.112   1.526  0.00  0.00    +0.005 C 
ATOM     14  C   UNL     1      -6.601   1.544   1.621  0.00  0.00    +0.005 C 
ATOM     15  C   UNL     1      -6.761   0.454   0.590  0.00  0.00    +0.042 C 
BRANCH   2  17
ATOM     16  C   UNL     1      -0.019   1.526   0.010  0.00  0.00    +0.025 C 
ATOM     17  C   UNL     1       0.002  -0.004   0.002  0.00  0.00    +0.112 C 
ENDBRANCH   2  17
ENDBRANCH   1   8
BRANCH   1  18
ATOM     18  C   UNL     1      -2.614  -0.543  -3.927  0.00  0.00    +0.151 C 
BRANCH  18  19
ATOM     19  C   UNL     1      -2.240   0.066  -5.253  0.00  0.00    +0.121 A 
ATOM     20  N   UNL     1      -2.976  -0.241  -6.349  0.00  0.00    -0.310 N 
ATOM     21  H   UNL     1      -3.729  -0.846  -6.261  0.00  0.00    +0.170 HD
ATOM     22  C   UNL     1      -2.684   0.277  -7.558  0.00  0.00    +0.260 A 
ATOM     23  O   UNL     1      -3.352  -0.005  -8.537  0.00  0.00    -0.267 OA
ATOM     24  C   UNL     1      -1.528   1.198  -7.666  0.00  0.00    +0.076 A 
ATOM     25  C   UNL     1      -1.030   1.855  -8.791  0.00  0.00    -0.015 A 
ATOM     26  C   UNL     1       0.068   2.676  -8.667  0.00  0.00    +0.106 A 
ATOM     27  S   UNL     1       0.454   2.555  -6.929  0.00  0.00    -0.062 S 
ATOM     28  C   UNL     1      -0.841   1.438  -6.454  0.00  0.00    +0.116 A 
ATOM     29  N   UNL     1      -1.219   0.877  -5.312  0.00  0.00    -0.226 NA
ATOM     30  C   UNL     1      -1.689   1.667 -10.133  0.00  0.00    +0.046 C 
BRANCH  26  31
ATOM     31  C   UNL     1       0.729   3.429  -9.671  0.00  0.00    +0.393 C 
ATOM     32  O   UNL     1       0.326   3.395 -10.827  0.00  0.00    -0.240 OA
ATOM     33  O   UNL     1       1.703   4.114  -9.382  0.00  0.00    -0.240 OA
ENDBRANCH  26  31
ENDBRANCH  18  19
ENDBRANCH   1  18
TORSDOF 5
