REMARK  Name = ZINC03770997
REMARK  5 active torsions:
REMARK  status: ('A' for Active; 'I' for Inactive)
REMARK    1  A    between atoms: C_4  and  S_11
REMARK    2  A    between atoms: C_6  and  C_7
REMARK    3  A    between atoms: S_11  and  N_14
REMARK    4  A    between atoms: N_20  and  C_23
REMARK    5  A    between atoms: C_26  and  C_29
REMARK                            x       y       z     vdW  Elec       q    Type
REMARK                         _______ _______ _______ _____ _____    ______ ____
ROOT
ATOM      1  N   UNL     1      -6.078  -0.319  -2.575  0.00  0.00    -0.169 N 
ATOM      2  C   UNL     1      -5.869   0.605  -1.616  0.00  0.00    +0.322 C 
ATOM      3  O   UNL     1      -6.753   1.387  -1.323  0.00  0.00    -0.251 OA
ATOM      4  N   UNL     1      -4.681   0.662  -0.982  0.00  0.00    -0.281 N 
ATOM      5  C   UNL     1      -4.470   1.585   0.144  0.00  0.00    +0.128 C 
ATOM      6  C   UNL     1      -3.196   2.394  -0.123  0.00  0.00    +0.125 C 
ATOM      7  N   UNL     1      -2.082   1.474  -0.390  0.00  0.00    -0.312 N 
ATOM      8  C   UNL     1      -2.324   0.683  -1.603  0.00  0.00    +0.125 C 
ATOM      9  C   UNL     1      -3.562  -0.197  -1.397  0.00  0.00    +0.128 C 
ATOM     10  H   UNL     1      -5.402  -0.991  -2.756  0.00  0.00    +0.178 HD
ENDROOT
BRANCH   7  11
ATOM     11  C   UNL     1      -0.881   2.161  -0.476  0.00  0.00    +0.120 A 
ATOM     12  C   UNL     1       0.112   1.929   0.474  0.00  0.00    +0.098 A 
ATOM     13  C   UNL     1       1.310   2.611   0.380  0.00  0.00    +0.083 A 
ATOM     14  C   UNL     1       1.476   3.524  -0.676  0.00  0.00    +0.106 A 
ATOM     15  C   UNL     1       0.431   3.706  -1.585  0.00  0.00    +0.127 A 
ATOM     16 CL   UNL     1       0.617   4.829  -2.895  0.00  0.00    -0.063 Cl
ATOM     17 CL   UNL     1       2.577   2.348   1.536  0.00  0.00    -0.080 Cl
ATOM     18 CL   UNL     1      -0.149   0.789   1.757  0.00  0.00    -0.078 Cl
ATOM     19  N   UNL     1      -0.754   3.045  -1.510  0.00  0.00    -0.332 N 
ATOM     20  H   UNL     1      -1.508   3.200  -2.189  0.00  0.00    +0.168 HD
BRANCH  14  21
ATOM     21  C   UNL     1       2.698   4.256  -0.817  0.00  0.00    +0.104 C 
ATOM     22  N   UNL     1       3.668   4.838  -0.929  0.00  0.00    -0.191 NA
ENDBRANCH  14  21
ENDBRANCH   7  11
BRANCH   1  23
ATOM     23  S   UNL     1      -7.488  -0.308  -3.442  0.00  0.00    +0.077 S 
ATOM     24  O   UNL     1      -7.372  -1.334  -4.419  0.00  0.00    -0.150 OA
ATOM     25  O   UNL     1      -8.547  -0.274  -2.496  0.00  0.00    -0.150 OA
BRANCH  23  29
ATOM     26  C   UNL     1      -7.642   3.615  -5.698  0.00  0.00    +0.014 A 
ATOM     27  C   UNL     1      -6.653   2.692  -5.984  0.00  0.00    +0.022 A 
ATOM     28  C   UNL     1      -6.605   1.493  -5.295  0.00  0.00    +0.068 A 
ATOM     29  C   UNL     1      -7.547   1.219  -4.320  0.00  0.00    +0.127 A 
ATOM     30  C   UNL     1      -8.539   2.139  -4.039  0.00  0.00    +0.042 A 
ATOM     31  C   UNL     1      -8.583   3.339  -4.724  0.00  0.00    +0.057 A 
ATOM     32 CL   UNL     1      -5.363   0.335  -5.654  0.00  0.00    -0.082 Cl
BRANCH  31  33
ATOM     33  C   UNL     1      -9.662   4.345  -4.414  0.00  0.00    +0.417 C 
ATOM     34  F   UNL     1      -9.503   5.467  -5.234  0.00  0.00    -0.166 F 
ATOM     35  F   UNL     1     -10.916   3.771  -4.647  0.00  0.00    -0.166 F 
ATOM     36  F   UNL     1      -9.567   4.730  -3.072  0.00  0.00    -0.166 F 
ENDBRANCH  31  33
ENDBRANCH  23  29
ENDBRANCH   1  23
TORSDOF 5
