REMARK  Name = ZINC20532302
REMARK  8 active torsions:
REMARK  status: ('A' for Active; 'I' for Inactive)
REMARK    1  A    between atoms: C_1  and  C_2
REMARK    2  A    between atoms: C_5  and  C_7
REMARK    3  A    between atoms: C_7  and  N_8
REMARK    4  A    between atoms: N_8  and  C_9
REMARK    5  A    between atoms: N_12  and  C_15
REMARK    6  A    between atoms: C_15  and  C_16
REMARK    7  A    between atoms: N_24  and  C_25
REMARK    8  A    between atoms: C_29  and  C_31
REMARK                            x       y       z     vdW  Elec       q    Type
REMARK                         _______ _______ _______ _____ _____    ______ ____
ROOT
ATOM      1  N   UNL     1       0.982  -1.960   1.265  0.00  0.00    -0.275 N 
ATOM      2  C   UNL     1       1.590  -2.595   0.243  0.00  0.00    +0.307 C 
ATOM      3  O   UNL     1       2.211  -1.957  -0.585  0.00  0.00    -0.252 OA
ATOM      4  N   UNL     1       1.509  -3.936   0.139  0.00  0.00    -0.269 N 
ATOM      5  H   UNL     1       1.022  -4.521   0.933  0.00  0.00    +0.156 HD
ENDROOT
BRANCH   1   6
ATOM      6  C   UNL     1       1.070  -0.502   1.378  0.00  0.00    +0.075 C 
ATOM      7  C   UNL     1       0.465   0.146   0.130  0.00  0.00    +0.004 C 
ATOM      8  C   UNL     1       0.615   1.666   0.226  0.00  0.00    -0.077 C 
ATOM      9  N   UNL     1       2.038   2.012   0.339  0.00  0.00    +0.382 N 
ATOM     10  C   UNL     1       2.628   1.441   1.556  0.00  0.00    -0.077 C 
ATOM     11  C   UNL     1       2.539  -0.086   1.499  0.00  0.00    +0.004 C 
ATOM     12  H   UNL     1       2.559   1.574  -0.525  0.00  0.00    -0.081 HD
BRANCH   9  13
ATOM     13  C   UNL     1       2.230   3.468   0.294  0.00  0.00    -0.043 C 
BRANCH  13  14
ATOM     14  C   UNL     1       3.655   3.798   0.656  0.00  0.00    -0.064 A 
ATOM     15  C   UNL     1       3.997   4.031   1.975  0.00  0.00    +0.002 A 
ATOM     16  C   UNL     1       5.305   4.329   2.308  0.00  0.00    +0.000 A 
ATOM     17  C   UNL     1       6.270   4.403   1.320  0.00  0.00    +0.000 A 
ATOM     18  C   UNL     1       5.927   4.176   0.000  0.00  0.00    +0.000 A 
ATOM     19  C   UNL     1       4.620   3.873  -0.332  0.00  0.00    +0.002 A 
ENDBRANCH  13  14
ENDBRANCH   9  13
ENDBRANCH   1   6
BRANCH   4  20
ATOM     20  C   UNL     1       2.044  -4.585  -0.979  0.00  0.00    +0.035 A 
ATOM     21  C   UNL     1       2.595  -5.853  -0.851  0.00  0.00    +0.023 A 
ATOM     22  C   UNL     1       3.122  -6.490  -1.956  0.00  0.00    +0.002 A 
ATOM     23  C   UNL     1       3.102  -5.867  -3.191  0.00  0.00    +0.012 A 
ATOM     24  C   UNL     1       2.554  -4.605  -3.322  0.00  0.00    +0.057 A 
ATOM     25  C   UNL     1       2.021  -3.964  -2.221  0.00  0.00    +0.035 A 
BRANCH  24  26
ATOM     26  C   UNL     1       2.534  -3.929  -4.670  0.00  0.00    +0.417 C 
ATOM     27  F   UNL     1       3.120  -4.770  -5.622  0.00  0.00    -0.166 F 
ATOM     28  F   UNL     1       1.210  -3.661  -5.036  0.00  0.00    -0.166 F 
ATOM     29  F   UNL     1       3.251  -2.730  -4.601  0.00  0.00    -0.166 F 
ENDBRANCH  24  26
ENDBRANCH   4  20
BRANCH   1  30
ATOM     30  C   UNL     1       0.233  -2.728   2.263  0.00  0.00    +0.183 C 
BRANCH  30  35
ATOM     31  C   UNL     1      -4.680  -1.758   1.657  0.00  0.00    +0.086 C 
ATOM     32  C   UNL     1      -3.338  -2.437   1.558  0.00  0.00    +0.102 A 
ATOM     33  C   UNL     1      -3.082  -3.579   0.895  0.00  0.00    +0.045 A 
ATOM     34  C   UNL     1      -1.705  -3.852   1.065  0.00  0.00    +0.046 A 
ATOM     35  C   UNL     1      -1.202  -2.860   1.822  0.00  0.00    +0.122 A 
ATOM     36  O   UNL     1      -2.197  -2.009   2.122  0.00  0.00    -0.463 OA
ENDBRANCH  30  35
ENDBRANCH   1  30
TORSDOF 7
