REMARK  Name = ZINC26641855
REMARK  5 active torsions:
REMARK  status: ('A' for Active; 'I' for Inactive)
REMARK    1  A    between atoms: C_1  and  C_2
REMARK    2  A    between atoms: C_4  and  C_15
REMARK    3  A    between atoms: C_5  and  C_14
REMARK    4  A    between atoms: N_6  and  C_7
REMARK    5  A    between atoms: C_25  and  C_27
REMARK                            x       y       z     vdW  Elec       q    Type
REMARK                         _______ _______ _______ _____ _____    ______ ____
ROOT
ATOM      1  C   UNL     1       0.137  -3.385  -1.466  0.00  0.00    +0.026 C 
ATOM      2  C   UNL     1      -0.026  -3.256  -2.831  0.00  0.00    +0.081 C 
ATOM      3  C   UNL     1      -0.088  -1.922  -3.490  0.00  0.00    +0.152 C 
ATOM      4  N   UNL     1       0.575  -0.879  -3.065  0.00  0.00    -0.283 NA
ATOM      5  N   UNL     1      -0.935  -1.895  -4.619  0.00  0.00    -0.152 N 
ATOM      6  C   UNL     1      -1.182  -3.091  -5.258  0.00  0.00    +0.181 C 
ATOM      7  N   UNL     1      -0.799  -4.287  -4.888  0.00  0.00    -0.152 NA
ATOM      8  C   UNL     1      -0.141  -4.437  -3.719  0.00  0.00    +0.273 C 
ATOM      9  O   UNL     1       0.341  -5.512  -3.399  0.00  0.00    -0.268 OA
ATOM     10  S   UNL     1      -2.147  -2.575  -6.654  0.00  0.00    -0.038 S 
ATOM     11  C   UNL     1      -2.240  -0.838  -6.243  0.00  0.00    +0.103 C 
ATOM     12  N   UNL     1      -1.532  -0.773  -5.153  0.00  0.00    -0.169 NA
ATOM     13  H   UNL     1       0.471  -0.024  -3.511  0.00  0.00    +0.188 HD
ENDROOT
BRANCH   1  17
ATOM     14  C   UNL     1      -0.991   1.229   0.256  0.00  0.00    +0.064 C 
ATOM     15  C   UNL     1      -0.485  -0.185   0.130  0.00  0.00    +0.022 A 
ATOM     16  C   UNL     1      -0.614  -0.963  -0.957  0.00  0.00    +0.031 A 
ATOM     17  C   UNL     1       0.025  -2.246  -0.628  0.00  0.00    -0.003 A 
ATOM     18  C   UNL     1       0.493  -2.115   0.669  0.00  0.00    +0.028 A 
ATOM     19  N   UNL     1       0.184  -0.876   1.102  0.00  0.00    -0.317 N 
ATOM     20  C   UNL     1       1.226  -3.171   1.456  0.00  0.00    +0.064 C 
BRANCH  19  21
ATOM     21  C   UNL     1       0.501  -0.370   2.370  0.00  0.00    +0.047 A 
ATOM     22  C   UNL     1       1.828  -0.179   2.731  0.00  0.00    +0.027 A 
ATOM     23  C   UNL     1       2.138   0.320   3.981  0.00  0.00    +0.017 A 
ATOM     24  C   UNL     1       1.127   0.629   4.873  0.00  0.00    +0.018 A 
ATOM     25  C   UNL     1      -0.197   0.440   4.516  0.00  0.00    +0.017 A 
ATOM     26  C   UNL     1      -0.512  -0.053   3.265  0.00  0.00    +0.027 A 
ATOM     27 BR   UNL     1       1.554   1.312   6.584  0.00  0.00    -0.050 Br
ENDBRANCH  19  21
ENDBRANCH   1  17
BRANCH  11  28
ATOM     28  C   UNL     1      -2.957   0.269  -6.973  0.00  0.00    +0.046 C 
ATOM     29  C   UNL     1      -2.286   1.607  -6.656  0.00  0.00    +0.010 C 
ATOM     30  C   UNL     1      -3.014   2.731  -7.397  0.00  0.00    +0.001 C 
ATOM     31  C   UNL     1      -4.475   2.775  -6.947  0.00  0.00    +0.000 C 
ATOM     32  C   UNL     1      -5.147   1.437  -7.264  0.00  0.00    +0.001 C 
ATOM     33  C   UNL     1      -4.419   0.313  -6.523  0.00  0.00    +0.010 C 
ENDBRANCH  11  28
TORSDOF 3
