REMARK  Name = ZINC40302529
REMARK  6 active torsions:
REMARK  status: ('A' for Active; 'I' for Inactive)
REMARK    1  A    between atoms: C_1  and  N_2
REMARK    2  A    between atoms: N_2  and  C_3
REMARK    3  A    between atoms: N_2  and  C_4
REMARK    4  A    between atoms: C_7  and  C_11
REMARK    5  A    between atoms: C_9  and  N_10
REMARK    6  A    between atoms: N_13  and  C_14
REMARK                            x       y       z     vdW  Elec       q    Type
REMARK                         _______ _______ _______ _____ _____    ______ ____
ROOT
ATOM      1  C   UNL     1      -1.215  -0.684   0.012  0.00  0.00    +0.050 A 
ATOM      2  C   UNL     1      -1.816  -1.043  -1.189  0.00  0.00    +0.026 A 
ATOM      3  C   UNL     1      -2.994  -1.757  -1.187  0.00  0.00    +0.015 A 
ATOM      4  C   UNL     1      -3.589  -2.123   0.024  0.00  0.00    +0.039 A 
ATOM      5  C   UNL     1      -2.986  -1.763   1.233  0.00  0.00    +0.037 A 
ATOM      6  C   UNL     1      -1.801  -1.052   1.226  0.00  0.00    +0.047 A 
ENDROOT
BRANCH   4   7
ATOM      7  C   UNL     1      -4.851  -2.886   0.026  0.00  0.00    +0.248 C 
ATOM      8  O   UNL     1      -5.368  -3.204   1.080  0.00  0.00    -0.270 OA
ATOM      9  N   UNL     1      -5.431  -3.232  -1.140  0.00  0.00    -0.280 N 
ATOM     10  H   UNL     1      -5.055  -2.923  -1.979  0.00  0.00    +0.155 HD
BRANCH   9  11
ATOM     11  C   UNL     1      -6.577  -4.036  -1.140  0.00  0.00    +0.052 A 
ATOM     12  C   UNL     1      -7.514  -3.912  -0.124  0.00  0.00    +0.026 A 
ATOM     13  C   UNL     1      -8.644  -4.706  -0.126  0.00  0.00    +0.017 A 
ATOM     14  C   UNL     1      -8.842  -5.626  -1.141  0.00  0.00    +0.019 A 
ATOM     15  C   UNL     1      -7.910  -5.753  -2.155  0.00  0.00    +0.037 A 
ATOM     16  C   UNL     1      -6.781  -4.957  -2.161  0.00  0.00    +0.063 A 
ATOM     17 CL   UNL     1      -5.616  -5.110  -3.439  0.00  0.00    -0.082 Cl
ATOM     18 BR   UNL     1     -10.390  -6.712  -1.140  0.00  0.00    -0.050 Br
ENDBRANCH   9  11
ENDBRANCH   4   7
BRANCH   1  20
ATOM     19  C   UNL     1      -0.054   1.502   0.012  0.00  0.00    +0.129 C 
ATOM     20  N   UNL     1      -0.024   0.038   0.005  0.00  0.00    -0.335 N 
ATOM     21  C   UNL     1       1.260  -0.668  -0.010  0.00  0.00    +0.129 C 
ENDBRANCH   1  20
BRANCH   6  22
ATOM     22  N   UNL     1      -1.192  -0.694   2.435  0.00  0.00    -0.357 N 
ATOM     23  H   UNL     1      -0.362  -0.191   2.430  0.00  0.00    +0.142 HD
ATOM     24  H   UNL     1      -1.599  -0.949   3.278  0.00  0.00    +0.142 HD
ENDBRANCH   6  22
TORSDOF 4
