REMARK  Name = ZINC02378802
REMARK  10 active torsions:
REMARK  status: ('A' for Active; 'I' for Inactive)
REMARK    1  A    between atoms: C_1  and  C_2
REMARK    2  A    between atoms: C_4  and  C_36
REMARK    3  A    between atoms: C_6  and  N_8
REMARK    4  A    between atoms: C_9  and  C_11
REMARK    5  A    between atoms: N_22  and  N_25
REMARK    6  A    between atoms: C_23  and  N_24
REMARK    7  A    between atoms: C_26  and  C_27
REMARK    8  A    between atoms: C_30  and  C_33
REMARK    9  A    between atoms: C_33  and  C_34
REMARK   10  A    between atoms: C_33  and  C_35
REMARK                            x       y       z     vdW  Elec       q    Type
REMARK                         _______ _______ _______ _____ _____    ______ ____
ROOT
ATOM      1  C   UNL     1      -5.241   5.324   7.322  0.00  0.00    +0.105 A 
ATOM      2  C   UNL     1      -3.969   5.528   8.036  0.00  0.00    +0.124 A 
ATOM      3  C   UNL     1      -2.931   5.024   7.133  0.00  0.00    +0.183 A 
ATOM      4  N   UNL     1      -1.669   5.075   7.504  0.00  0.00    -0.224 NA
ATOM      5  C   UNL     1      -1.347   5.586   8.699  0.00  0.00    +0.092 A 
ATOM      6  C   UNL     1      -0.000   5.644   9.105  0.00  0.00    +0.030 A 
ATOM      7  C   UNL     1       0.319   6.164  10.321  0.00  0.00    +0.002 A 
ATOM      8  C   UNL     1      -0.671   6.642  11.178  0.00  0.00    +0.002 A 
ATOM      9  C   UNL     1      -1.983   6.602  10.822  0.00  0.00    +0.030 A 
ATOM     10  C   UNL     1      -2.353   6.072   9.571  0.00  0.00    +0.090 A 
ATOM     11  N   UNL     1      -3.641   6.027   9.210  0.00  0.00    -0.241 NA
ATOM     12  N   UNL     1      -3.571   4.569   5.995  0.00  0.00    -0.198 N 
ATOM     13  C   UNL     1      -4.919   4.746   6.098  0.00  0.00    +0.134 A 
ENDROOT
BRANCH   1  15
ATOM     14  N   UNL     1      -7.253   4.752   8.490  0.00  0.00    -0.281 N 
ATOM     15  C   UNL     1      -6.538   5.655   7.789  0.00  0.00    +0.254 C 
ATOM     16  O   UNL     1      -7.007   6.754   7.556  0.00  0.00    -0.270 OA
ATOM     17  H   UNL     1      -6.913   3.852   8.610  0.00  0.00    +0.155 HD
BRANCH  14  23
ATOM     18  C   UNL     1     -11.832   3.525   9.792  0.00  0.00    +0.044 C 
ATOM     19  C   UNL     1     -10.722   4.539   9.688  0.00  0.00    -0.048 A 
ATOM     20  C   UNL     1     -10.922   5.830  10.142  0.00  0.00    +0.006 A 
ATOM     21  C   UNL     1      -9.906   6.764  10.049  0.00  0.00    -0.048 A 
ATOM     22  C   UNL     1      -8.689   6.410   9.501  0.00  0.00    +0.026 A 
ATOM     23  C   UNL     1      -8.485   5.114   9.044  0.00  0.00    +0.034 A 
ATOM     24  C   UNL     1      -9.509   4.180   9.134  0.00  0.00    +0.026 A 
ATOM     25  C   UNL     1     -10.128   8.169  10.545  0.00  0.00    +0.044 C 
ENDBRANCH  14  23
ENDBRANCH   1  15
BRANCH  13  26
ATOM     26  N   UNL     1      -5.829   4.401   5.133  0.00  0.00    -0.342 N 
ATOM     27  H   UNL     1      -5.527   3.998   4.303  0.00  0.00    +0.144 HD
ATOM     28  H   UNL     1      -6.775   4.559   5.279  0.00  0.00    +0.144 HD
ENDBRANCH  13  26
BRANCH  12  29
ATOM     29  N   UNL     1      -2.923   4.008   4.887  0.00  0.00    -0.171 NA
ATOM     30  C   UNL     1      -2.717   2.728   4.835  0.00  0.00    +0.141 C 
BRANCH  30  31
ATOM     31  C   UNL     1      -2.036   2.138   3.668  0.00  0.00    -0.005 A 
ATOM     32  C   UNL     1      -1.812   0.760   3.608  0.00  0.00    +0.010 A 
ATOM     33  C   UNL     1      -1.174   0.215   2.513  0.00  0.00    +0.004 A 
ATOM     34  C   UNL     1      -0.756   1.029   1.476  0.00  0.00    -0.045 A 
ATOM     35  C   UNL     1      -0.969   2.396   1.531  0.00  0.00    +0.004 A 
ATOM     36  C   UNL     1      -1.611   2.954   2.616  0.00  0.00    +0.010 A 
BRANCH  34  37
ATOM     37  C   UNL     1      -0.060   0.426   0.283  0.00  0.00    +0.013 C 
ATOM     38  C   UNL     1       1.339   1.031   0.149  0.00  0.00    +0.012 C 
ATOM     39  C   UNL     1      -0.867   0.723  -0.982  0.00  0.00    +0.012 C 
ENDBRANCH  34  37
ENDBRANCH  30  31
ENDBRANCH  12  29
TORSDOF 6
