REMARK  Name = ZINC04560783
REMARK  7 active torsions:
REMARK  status: ('A' for Active; 'I' for Inactive)
REMARK    1  A    between atoms: C_1  and  C_2
REMARK    2  A    between atoms: C_7  and  O_8
REMARK    3  A    between atoms: O_8  and  C_9
REMARK    4  A    between atoms: C_11  and  N_31
REMARK    5  A    between atoms: C_13  and  O_30
REMARK    6  A    between atoms: C_22  and  C_25
REMARK    7  A    between atoms: C_32  and  C_34
REMARK                            x       y       z     vdW  Elec       q    Type
REMARK                         _______ _______ _______ _____ _____    ______ ____
ROOT
ATOM      1  C   UNL     1       0.048  -0.820   3.574  0.00  0.00    +0.331 C 
ATOM      2  C   UNL     1      -0.209   0.083   4.782  0.00  0.00    +0.173 C 
ATOM      3  C   UNL     1      -0.098  -0.738   6.072  0.00  0.00    +0.172 C 
ATOM      4  C   UNL     1       1.279  -1.400   6.108  0.00  0.00    +0.183 C 
ATOM      5  C   UNL     1       1.433  -2.278   4.859  0.00  0.00    +0.179 C 
ATOM      6  O   UNL     1       1.324  -1.454   3.701  0.00  0.00    -0.332 OA
ATOM      7  C   UNL     1       2.794  -2.972   4.920  0.00  0.00    +0.197 C 
ATOM      8  O   UNL     1       2.877  -3.694   6.155  0.00  0.00    -0.342 OA
ATOM      9  C   UNL     1       2.692  -2.890   7.322  0.00  0.00    +0.319 C 
ATOM     10  O   UNL     1       1.425  -2.224   7.264  0.00  0.00    -0.336 OA
ENDROOT
BRANCH   9  11
ATOM     11  C   UNL     1       2.736  -3.768   8.546  0.00  0.00    +0.161 A 
ATOM     12  C   UNL     1       3.776  -4.530   8.930  0.00  0.00    +0.050 A 
ATOM     13  C   UNL     1       3.388  -5.181  10.123  0.00  0.00    +0.041 A 
ATOM     14  C   UNL     1       2.134  -4.779  10.396  0.00  0.00    +0.195 A 
ATOM     15  O   UNL     1       1.746  -3.919   9.440  0.00  0.00    -0.463 OA
ENDBRANCH   9  11
BRANCH   2  16
ATOM     16  N   UNL     1      -1.553   0.658   4.684  0.00  0.00    -0.304 N 
ATOM     17  C   UNL     1      -1.756   1.780   3.965  0.00  0.00    +0.210 C 
ATOM     18  O   UNL     1      -0.825   2.313   3.399  0.00  0.00    -0.276 OA
ATOM     19  C   UNL     1      -3.138   2.371   3.865  0.00  0.00    +0.109 C 
ATOM     20  H   UNL     1      -2.297   0.231   5.137  0.00  0.00    +0.149 HD
ENDBRANCH   2  16
BRANCH   3  21
ATOM     21  O   UNL     1      -0.251   0.123   7.203  0.00  0.00    -0.387 OA
ATOM     22  H   UNL     1      -1.099   0.586   7.233  0.00  0.00    +0.210 HD
ENDBRANCH   3  21
BRANCH   1  23
ATOM     23  O   UNL     1       0.025  -0.033   2.381  0.00  0.00    -0.461 OA
BRANCH  23  30
ATOM     24  C   UNL     1      -0.018   1.503   0.010  0.00  0.00    +0.047 C 
ATOM     25  C   UNL     1       0.002  -0.004   0.002  0.00  0.00    -0.009 A 
ATOM     26  C   UNL     1       0.006  -0.689  -1.198  0.00  0.00    +0.007 A 
ATOM     27  C   UNL     1       0.024  -2.071  -1.206  0.00  0.00    +0.000 A 
ATOM     28  C   UNL     1       0.039  -2.772  -0.014  0.00  0.00    +0.004 A 
ATOM     29  C   UNL     1       0.036  -2.092   1.188  0.00  0.00    +0.046 A 
ATOM     30  C   UNL     1       0.023  -0.705   1.199  0.00  0.00    +0.127 A 
ENDBRANCH  23  30
ENDBRANCH   1  23
TORSDOF 5
