REMARK  Name = ZINC02207905
REMARK  10 active torsions:
REMARK  status: ('A' for Active; 'I' for Inactive)
REMARK    1  A    between atoms: C_1  and  C_2
REMARK    2  A    between atoms: C_7  and  C_8
REMARK    3  A    between atoms: N_9  and  N_10
REMARK    4  A    between atoms: C_11  and  N_37
REMARK    5  A    between atoms: C_12  and  C_23
REMARK    6  A    between atoms: N_25  and  C_26
REMARK    7  A    between atoms: C_26  and  C_28
REMARK    8  A    between atoms: C_26  and  C_29
REMARK    9  A    between atoms: C_29  and  C_30
REMARK   10  A    between atoms: C_30  and  C_31
REMARK                            x       y       z     vdW  Elec       q    Type
REMARK                         _______ _______ _______ _____ _____    ______ ____
ROOT
ATOM      1  N   UNL     1      -4.659   0.628  -0.790  0.00  0.00    -0.198 N 
ATOM      2  C   UNL     1      -5.154   0.341  -2.028  0.00  0.00    +0.134 A 
ATOM      3  C   UNL     1      -6.285  -0.463  -1.923  0.00  0.00    +0.105 A 
ATOM      4  C   UNL     1      -6.510  -0.684  -0.485  0.00  0.00    +0.124 A 
ATOM      5  C   UNL     1      -5.432   0.042   0.194  0.00  0.00    +0.183 A 
ATOM      6  N   UNL     1      -5.371   0.028   1.508  0.00  0.00    -0.224 NA
ATOM      7  C   UNL     1      -6.289  -0.646   2.212  0.00  0.00    +0.092 A 
ATOM      8  C   UNL     1      -6.231  -0.666   3.618  0.00  0.00    +0.030 A 
ATOM      9  C   UNL     1      -7.168  -1.354   4.325  0.00  0.00    +0.002 A 
ATOM     10  C   UNL     1      -8.191  -2.044   3.677  0.00  0.00    +0.002 A 
ATOM     11  C   UNL     1      -8.280  -2.048   2.319  0.00  0.00    +0.030 A 
ATOM     12  C   UNL     1      -7.330  -1.347   1.554  0.00  0.00    +0.090 A 
ATOM     13  N   UNL     1      -7.408  -1.345   0.217  0.00  0.00    -0.241 NA
ENDROOT
BRANCH   3  14
ATOM     14  C   UNL     1      -7.093  -0.981  -3.024  0.00  0.00    +0.250 C 
ATOM     15  O   UNL     1      -8.035  -0.334  -3.445  0.00  0.00    -0.270 OA
ATOM     16  N   UNL     1      -6.797  -2.175  -3.574  0.00  0.00    -0.309 N 
ATOM     17  H   UNL     1      -6.047  -2.691  -3.239  0.00  0.00    +0.149 HD
BRANCH  16  18
ATOM     18  C   UNL     1      -7.608  -2.695  -4.678  0.00  0.00    +0.070 C 
ATOM     19  C   UNL     1      -7.094  -2.123  -6.001  0.00  0.00    +0.028 C 
BRANCH  18  20
ATOM     20  C   UNL     1      -7.509  -4.221  -4.709  0.00  0.00    +0.026 C 
BRANCH  20  21
ATOM     21  C   UNL     1      -8.137  -4.799  -3.439  0.00  0.00    +0.037 C 
BRANCH  21  22
ATOM     22  C   UNL     1      -8.039  -6.303  -3.470  0.00  0.00    -0.047 A 
ATOM     23  C   UNL     1      -9.059  -7.050  -4.030  0.00  0.00    +0.003 A 
ATOM     24  C   UNL     1      -8.967  -8.429  -4.062  0.00  0.00    +0.000 A 
ATOM     25  C   UNL     1      -7.861  -9.061  -3.526  0.00  0.00    +0.000 A 
ATOM     26  C   UNL     1      -6.844  -8.314  -2.961  0.00  0.00    +0.000 A 
ATOM     27  C   UNL     1      -6.933  -6.935  -2.933  0.00  0.00    +0.003 A 
ENDBRANCH  21  22
ENDBRANCH  20  21
ENDBRANCH  18  20
ENDBRANCH  16  18
ENDBRANCH   3  14
BRANCH   2  28
ATOM     28  N   UNL     1      -4.612   0.779  -3.208  0.00  0.00    -0.342 N 
ATOM     29  H   UNL     1      -3.818   1.336  -3.200  0.00  0.00    +0.144 HD
ATOM     30  H   UNL     1      -5.023   0.533  -4.052  0.00  0.00    +0.144 HD
ENDBRANCH   2  28
BRANCH   1  32
ATOM     31  C   UNL     1      -2.353   0.859  -0.477  0.00  0.00    +0.141 C 
ATOM     32  N   UNL     1      -3.524   1.414  -0.549  0.00  0.00    -0.171 NA
BRANCH  31  39
ATOM     33  C   UNL     1      -2.665   3.675   0.108  0.00  0.00    +0.044 C 
ATOM     34  C   UNL     1      -1.296   3.047   0.060  0.00  0.00    -0.042 A 
ATOM     35  C   UNL     1      -0.174   3.816   0.289  0.00  0.00    +0.004 A 
ATOM     36  C   UNL     1       1.084   3.241   0.246  0.00  0.00    +0.000 A 
ATOM     37  C   UNL     1       1.226   1.892  -0.027  0.00  0.00    +0.001 A 
ATOM     38  C   UNL     1       0.114   1.111  -0.259  0.00  0.00    +0.010 A 
ATOM     39  C   UNL     1      -1.159   1.686  -0.223  0.00  0.00    -0.002 A 
ENDBRANCH  31  39
ENDBRANCH   1  32
TORSDOF 8
