REMARK  Name = ZINC01422403
REMARK  10 active torsions:
REMARK  status: ('A' for Active; 'I' for Inactive)
REMARK    1  A    between atoms: C_1  and  O_2
REMARK    2  A    between atoms: O_2  and  C_3
REMARK    3  A    between atoms: C_3  and  C_5
REMARK    4  A    between atoms: C_7  and  C_37
REMARK    5  A    between atoms: C_14  and  C_30
REMARK    6  A    between atoms: C_16  and  C_26
REMARK    7  A    between atoms: C_17  and  N_25
REMARK    8  A    between atoms: N_18  and  C_19
REMARK    9  A    between atoms: C_26  and  O_28
REMARK   10  A    between atoms: O_28  and  C_29
REMARK                            x       y       z     vdW  Elec       q    Type
REMARK                         _______ _______ _______ _____ _____    ______ ____
ROOT
ATOM      1  C   UNL     1      -1.402  -1.297   1.141  0.00  0.00    +0.176 C 
ATOM      2  C   UNL     1      -2.872  -1.694   1.309  0.00  0.00    +0.046 C 
ATOM      3  C   UNL     1      -3.041  -3.139   0.834  0.00  0.00    +0.061 C 
ATOM      4  C   UNL     1      -2.135  -4.044   1.632  0.00  0.00    +0.025 C 
ATOM      5  C   UNL     1      -0.957  -3.597   2.114  0.00  0.00    +0.026 C 
ATOM      6  C   UNL     1      -0.540  -2.270   1.899  0.00  0.00    +0.176 C 
ATOM      7  O   UNL     1       0.533  -1.902   2.335  0.00  0.00    -0.291 OA
ATOM      8  C   UNL     1      -0.043  -4.508   2.895  0.00  0.00    +0.097 C 
ATOM      9  C   UNL     1      -0.784  -5.709   3.406  0.00  0.00    +0.084 C 
ATOM     10  C   UNL     1      -1.984  -6.072   2.875  0.00  0.00    +0.103 C 
ATOM     11  N   UNL     1      -2.540  -5.334   1.859  0.00  0.00    -0.261 N 
ENDROOT
BRANCH   8  12
ATOM     12  C   UNL     1       1.080  -4.965   2.001  0.00  0.00    +0.000 A 
ATOM     13  C   UNL     1       0.801  -5.668   0.844  0.00  0.00    +0.007 A 
ATOM     14  C   UNL     1       1.831  -6.088   0.023  0.00  0.00    +0.000 A 
ATOM     15  C   UNL     1       3.143  -5.805   0.359  0.00  0.00    +0.003 A 
ATOM     16  C   UNL     1       3.424  -5.102   1.515  0.00  0.00    +0.038 A 
ATOM     17  C   UNL     1       2.393  -4.676   2.335  0.00  0.00    +0.127 A 
ATOM     18  F   UNL     1       2.666  -3.985   3.463  0.00  0.00    -0.205 F 
ENDBRANCH   8  12
BRANCH  11  19
ATOM     19  C   UNL     1      -3.529  -5.903   1.048  0.00  0.00    +0.040 A 
ATOM     20  C   UNL     1      -3.174  -6.589  -0.106  0.00  0.00    +0.024 A 
ATOM     21  C   UNL     1      -4.152  -7.149  -0.903  0.00  0.00    +0.002 A 
ATOM     22  C   UNL     1      -5.484  -7.029  -0.553  0.00  0.00    +0.000 A 
ATOM     23  C   UNL     1      -5.842  -6.346   0.595  0.00  0.00    +0.002 A 
ATOM     24  C   UNL     1      -4.868  -5.788   1.400  0.00  0.00    +0.024 A 
ENDBRANCH  11  19
BRANCH   2  25
ATOM     25  C   UNL     1      -3.740  -0.780   0.483  0.00  0.00    -0.043 A 
ATOM     26  C   UNL     1      -3.572  -0.719  -0.888  0.00  0.00    +0.004 A 
ATOM     27  C   UNL     1      -4.369   0.120  -1.645  0.00  0.00    +0.000 A 
ATOM     28  C   UNL     1      -5.334   0.896  -1.032  0.00  0.00    +0.000 A 
ATOM     29  C   UNL     1      -5.503   0.835   0.339  0.00  0.00    +0.000 A 
ATOM     30  C   UNL     1      -4.709  -0.007   1.096  0.00  0.00    +0.004 A 
ENDBRANCH   2  25
BRANCH  10  31
ATOM     31  N   UNL     1      -2.637  -7.178   3.355  0.00  0.00    -0.346 N 
ATOM     32  H   UNL     1      -2.603  -7.389   4.301  0.00  0.00    +0.143 HD
ATOM     33  H   UNL     1      -3.134  -7.749   2.748  0.00  0.00    +0.143 HD
ENDBRANCH  10  31
BRANCH   1  34
ATOM     34  C   UNL     1      -1.190   0.093   1.684  0.00  0.00    +0.318 C 
ATOM     35  O   UNL     1      -2.119   0.707   2.153  0.00  0.00    -0.250 OA
BRANCH  34  37
ATOM     36  C   UNL     1       0.160   1.970   2.177  0.00  0.00    +0.280 C 
ATOM     37  O   UNL     1       0.031   0.649   1.645  0.00  0.00    -0.467 OA
ENDBRANCH  34  37
ENDBRANCH   1  34
BRANCH   9  38
ATOM     38  C   UNL     1      -0.231  -6.468   4.447  0.00  0.00    +0.339 C 
ATOM     39  O   UNL     1      -0.761  -7.511   4.788  0.00  0.00    -0.245 OA
BRANCH  38  40
ATOM     40  O   UNL     1       0.889  -6.044   5.071  0.00  0.00    -0.465 OA
ATOM     41  C   UNL     1       1.397  -6.868   6.123  0.00  0.00    +0.280 C 
ENDBRANCH  38  40
ENDBRANCH   9  38
TORSDOF 8
