REMARK  Name = ZINC53546460
REMARK  12 active torsions:
REMARK  status: ('A' for Active; 'I' for Inactive)
REMARK    1  A    between atoms: C_1  and  C_2
REMARK    2  A    between atoms: C_5  and  C_26
REMARK    3  A    between atoms: C_6  and  O_8
REMARK    4  A    between atoms: O_8  and  C_9
REMARK    5  A    between atoms: C_9  and  C_11
REMARK    6  A    between atoms: C_9  and  C_12
REMARK    7  A    between atoms: N_14  and  C_15
REMARK    8  A    between atoms: C_19  and  S_22
REMARK    9  A    between atoms: C_20  and  C_21
REMARK   10  A    between atoms: S_22  and  N_25
REMARK   11  A    between atoms: C_26  and  C_27
REMARK   12  A    between atoms: C_26  and  C_28
REMARK                            x       y       z     vdW  Elec       q    Type
REMARK                         _______ _______ _______ _____ _____    ______ ____
ROOT
ATOM      1  C   UNL     1      -0.449  -2.782   4.704  0.00  0.00    +0.258 C 
ATOM      2  O   UNL     1      -0.829  -3.921   4.533  0.00  0.00    -0.271 OA
ATOM      3  N   UNL     1      -0.541  -2.216   5.923  0.00  0.00    -0.282 N 
ATOM      4  H   UNL     1      -0.293  -1.287   6.047  0.00  0.00    +0.155 HD
ENDROOT
BRANCH   3   5
ATOM      5  C   UNL     1      -0.996  -2.970   7.011  0.00  0.00    +0.038 A 
ATOM      6  C   UNL     1      -1.968  -3.944   6.826  0.00  0.00    +0.024 A 
ATOM      7  C   UNL     1      -2.414  -4.686   7.901  0.00  0.00    +0.004 A 
ATOM      8  C   UNL     1      -1.894  -4.459   9.163  0.00  0.00    +0.029 A 
ATOM      9  C   UNL     1      -0.927  -3.490   9.351  0.00  0.00    +0.110 A 
ATOM     10  C   UNL     1      -0.471  -2.749   8.278  0.00  0.00    -0.003 A 
ATOM     11  C   UNL     1       0.589  -1.698   8.483  0.00  0.00    +0.048 C 
BRANCH   9  12
ATOM     12  S   UNL     1      -0.268  -3.205  10.960  0.00  0.00    +0.056 S 
ATOM     13  O   UNL     1      -0.318  -1.801  11.177  0.00  0.00    -0.153 OA
ATOM     14  O   UNL     1      -0.903  -4.133  11.829  0.00  0.00    -0.153 OA
BRANCH  12  15
ATOM     15  N   UNL     1       1.334  -3.620  10.914  0.00  0.00    -0.204 NA
ATOM     16  H   UNL     1       1.726  -3.950  10.091  0.00  0.00    +0.144 HD
ATOM     17  H   UNL     1       1.881  -3.535  11.711  0.00  0.00    +0.144 HD
ENDBRANCH  12  15
ENDBRANCH   9  12
ENDBRANCH   3   5
BRANCH   1  18
ATOM     18  C   UNL     1       0.127  -1.999   3.552  0.00  0.00    +0.256 C 
ATOM     19  C   UNL     1       1.602  -1.699   3.826  0.00  0.00    +0.062 C 
BRANCH  18  20
ATOM     20  O   UNL     1       0.013  -2.765   2.351  0.00  0.00    -0.480 OA
BRANCH  20  26
ATOM     21  C   UNL     1      -0.008   1.515   0.005  0.00  0.00    +0.044 C 
ATOM     22  C   UNL     1      -0.008   0.008  -0.004  0.00  0.00    -0.047 A 
ATOM     23  C   UNL     1      -0.020  -0.676  -1.206  0.00  0.00    +0.004 A 
ATOM     24  C   UNL     1      -0.020  -2.058  -1.218  0.00  0.00    +0.008 A 
ATOM     25  C   UNL     1      -0.010  -2.760  -0.028  0.00  0.00    -0.003 A 
ATOM     26  C   UNL     1       0.002  -2.077   1.179  0.00  0.00    +0.125 A 
ATOM     27  C   UNL     1       0.009  -0.689   1.188  0.00  0.00    +0.049 A 
BRANCH  25  28
ATOM     28  C   UNL     1      -0.011  -4.267  -0.041  0.00  0.00    +0.016 C 
ATOM     29  C   UNL     1      -1.268  -4.770  -0.755  0.00  0.00    +0.012 C 
ATOM     30  C   UNL     1       1.231  -4.772  -0.779  0.00  0.00    +0.012 C 
ENDBRANCH  25  28
ENDBRANCH  20  26
ENDBRANCH  18  20
ENDBRANCH   1  18
TORSDOF 7
