REMARK  Name = ZINC00705515
REMARK  6 active torsions:
REMARK  status: ('A' for Active; 'I' for Inactive)
REMARK    1  A    between atoms: C_1  and  O_2
REMARK    2  A    between atoms: O_2  and  C_3
REMARK    3  A    between atoms: C_6  and  N_9
REMARK    4  A    between atoms: C_12  and  C_19
REMARK    5  A    between atoms: C_14  and  C_17
REMARK    6  A    between atoms: C_15  and  N_16
REMARK                            x       y       z     vdW  Elec       q    Type
REMARK                         _______ _______ _______ _____ _____    ______ ____
ROOT
ATOM      1  N   UNL     1      -1.235   2.064  -0.002  0.00  0.00    -0.260 N 
ATOM      2  C   UNL     1      -1.241   3.430   0.110  0.00  0.00    +0.024 C 
ATOM      3  C   UNL     1      -2.333   4.144  -0.237  0.00  0.00    +0.025 C 
ATOM      4  C   UNL     1      -3.566   3.462  -0.776  0.00  0.00    +0.097 C 
ATOM      5  C   UNL     1      -3.561   1.998  -0.449  0.00  0.00    +0.077 C 
ATOM      6  C   UNL     1      -2.417   1.364  -0.089  0.00  0.00    +0.107 C 
ATOM      7  C   UNL     1      -2.354   5.543  -0.109  0.00  0.00    +0.162 C 
ATOM      8  O   UNL     1      -3.350   6.157  -0.438  0.00  0.00    -0.292 OA
ATOM      9  C   UNL     1      -1.167   6.296   0.427  0.00  0.00    +0.080 C 
ATOM     10  C   UNL     1      -0.387   5.385   1.380  0.00  0.00    +0.014 C 
ATOM     11  C   UNL     1       0.002   4.112   0.625  0.00  0.00    +0.052 C 
ENDROOT
BRANCH   4  12
ATOM     12  C   UNL     1      -3.610   3.634  -2.272  0.00  0.00    -0.031 A 
ATOM     13  C   UNL     1      -2.578   3.148  -3.054  0.00  0.00    +0.008 A 
ATOM     14  C   UNL     1      -2.617   3.299  -4.427  0.00  0.00    +0.050 A 
ATOM     15  C   UNL     1      -3.687   3.947  -5.024  0.00  0.00    +0.166 A 
ATOM     16  C   UNL     1      -4.724   4.441  -4.236  0.00  0.00    +0.167 A 
ATOM     17  C   UNL     1      -4.681   4.281  -2.861  0.00  0.00    +0.054 A 
ATOM     18  O   UNL     1      -5.647   5.030  -5.051  0.00  0.00    -0.453 OA
ATOM     19  C   UNL     1      -5.366   4.534  -6.373  0.00  0.00    +0.466 C 
ATOM     20  O   UNL     1      -3.960   4.227  -6.331  0.00  0.00    -0.453 OA
ENDBRANCH   4  12
BRANCH   1  24
ATOM     21  C   UNL     1       2.400   0.024  -0.096  0.00  0.00    +0.120 A 
ATOM     22  C   UNL     1       1.854   0.522  -1.270  0.00  0.00    +0.047 A 
ATOM     23  C   UNL     1       0.650   1.196  -1.240  0.00  0.00    +0.027 A 
ATOM     24  C   UNL     1      -0.015   1.375  -0.034  0.00  0.00    +0.040 A 
ATOM     25  C   UNL     1       0.532   0.877   1.141  0.00  0.00    +0.027 A 
ATOM     26  C   UNL     1       1.737   0.203   1.110  0.00  0.00    +0.047 A 
BRANCH  21  28
ATOM     27  C   UNL     1       4.090  -1.125   1.120  0.00  0.00    +0.277 C 
ATOM     28  O   UNL     1       3.587  -0.640  -0.126  0.00  0.00    -0.495 OA
ENDBRANCH  21  28
ENDBRANCH   1  24
BRANCH   6  29
ATOM     29  N   UNL     1      -2.439   0.019   0.193  0.00  0.00    -0.345 N 
ATOM     30  H   UNL     1      -1.645  -0.417   0.538  0.00  0.00    +0.144 HD
ATOM     31  H   UNL     1      -3.250  -0.493   0.048  0.00  0.00    +0.144 HD
ENDBRANCH   6  29
BRANCH   5  32
ATOM     32  C   UNL     1      -4.784   1.257  -0.521  0.00  0.00    +0.099 C 
ATOM     33  N   UNL     1      -5.755   0.668  -0.579  0.00  0.00    -0.191 NA
ENDBRANCH   5  32
TORSDOF 5
