REMARK  Name = ZINC12473346
REMARK  9 active torsions:
REMARK  status: ('A' for Active; 'I' for Inactive)
REMARK    1  A    between atoms: C_6  and  C_7
REMARK    2  A    between atoms: C_7  and  C_9
REMARK    3  A    between atoms: C_7  and  N_19
REMARK    4  A    between atoms: N_11  and  C_12
REMARK    5  A    between atoms: C_12  and  C_13
REMARK    6  A    between atoms: N_19  and  C_20
REMARK    7  A    between atoms: C_27  and  C_29
REMARK    8  A    between atoms: C_30  and  N_37
REMARK    9  A    between atoms: C_31  and  C_34
REMARK                            x       y       z     vdW  Elec       q    Type
REMARK                         _______ _______ _______ _____ _____    ______ ____
ROOT
ATOM      1  N   UNL     1      -0.483   1.420  -5.023  0.00  0.00    -0.251 N 
ATOM      2  C   UNL     1       0.505   2.083  -5.656  0.00  0.00    +0.262 C 
ATOM      3  O   UNL     1       1.225   2.841  -5.033  0.00  0.00    -0.269 OA
ENDROOT
BRANCH   1   4
ATOM      4  C   UNL     1      -1.382   0.636  -5.756  0.00  0.00    +0.038 A 
ATOM      5  C   UNL     1      -1.005  -0.625  -6.198  0.00  0.00    +0.026 A 
ATOM      6  C   UNL     1      -1.895  -1.398  -6.918  0.00  0.00    +0.040 A 
ATOM      7  C   UNL     1      -3.158  -0.912  -7.208  0.00  0.00    +0.124 A 
ATOM      8  C   UNL     1      -3.535   0.347  -6.773  0.00  0.00    +0.040 A 
ATOM      9  C   UNL     1      -2.650   1.122  -6.048  0.00  0.00    +0.026 A 
ATOM     10  F   UNL     1      -4.026  -1.668  -7.917  0.00  0.00    -0.205 F 
ENDBRANCH   1   4
BRANCH   2  11
ATOM     11  C   UNL     1       0.711   1.892  -7.093  0.00  0.00    +0.116 A 
ATOM     12  C   UNL     1       1.716   2.402  -7.918  0.00  0.00    +0.076 A 
ATOM     13  C   UNL     1       1.576   1.993  -9.244  0.00  0.00    +0.155 A 
ATOM     14  N   UNL     1       0.571   1.212  -9.574  0.00  0.00    -0.203 NA
ATOM     15  S   UNL     1      -0.246   0.941  -8.254  0.00  0.00    +0.019 S 
BRANCH  13  16
ATOM     16  C   UNL     1       2.545   2.432 -10.265  0.00  0.00    +0.262 C 
ATOM     17  O   UNL     1       3.472   3.154  -9.952  0.00  0.00    -0.269 OA
ATOM     18  N   UNL     1       2.403   2.033 -11.544  0.00  0.00    -0.324 N 
ATOM     19  H   UNL     1       1.663   1.457 -11.794  0.00  0.00    +0.145 HD
ATOM     20  H   UNL     1       3.041   2.321 -12.216  0.00  0.00    +0.145 HD
ENDBRANCH  13  16
BRANCH  12  21
ATOM     21  N   UNL     1       2.740   3.224  -7.468  0.00  0.00    -0.355 N 
ATOM     22  H   UNL     1       2.785   3.475  -6.532  0.00  0.00    +0.142 HD
ATOM     23  H   UNL     1       3.411   3.548  -8.089  0.00  0.00    +0.142 HD
ENDBRANCH  12  21
ENDBRANCH   2  11
BRANCH   1  24
ATOM     24  C   UNL     1      -0.617   1.518  -3.567  0.00  0.00    +0.197 C 
BRANCH  24  30
ATOM     25  C   UNL     1      -2.105  -0.490  -3.453  0.00  0.00    +0.009 A 
ATOM     26  C   UNL     1      -3.269  -1.118  -3.050  0.00  0.00    +0.038 A 
ATOM     27  C   UNL     1      -4.222  -0.414  -2.334  0.00  0.00    +0.123 A 
ATOM     28  C   UNL     1      -4.006   0.916  -2.017  0.00  0.00    +0.038 A 
ATOM     29  C   UNL     1      -2.839   1.540  -2.417  0.00  0.00    +0.009 A 
ATOM     30  C   UNL     1      -1.888   0.837  -3.132  0.00  0.00    -0.018 A 
ATOM     31  F   UNL     1      -5.362  -1.026  -1.944  0.00  0.00    -0.205 F 
ENDBRANCH  24  30
BRANCH  24  32
ATOM     32  C   UNL     1       0.562   0.851  -2.909  0.00  0.00    +0.239 C 
ATOM     33  O   UNL     1       1.429   0.342  -3.588  0.00  0.00    -0.273 OA
ATOM     34  N   UNL     1       0.654   0.818  -1.564  0.00  0.00    -0.311 N 
ATOM     35  H   UNL     1      -0.039   1.225  -1.021  0.00  0.00    +0.149 HD
BRANCH  34  36
ATOM     36  C   UNL     1       1.800   0.169  -0.924  0.00  0.00    +0.135 C 
BRANCH  36  37
ATOM     37  C   UNL     1       1.661   0.272   0.597  0.00  0.00    +0.135 C 
ATOM     38  C   UNL     1       2.863  -0.408   1.280  0.00  0.00    +0.035 C 
ATOM     39  C   UNL     1       3.500   0.716   2.134  0.00  0.00    +0.031 C 
ATOM     40  C   UNL     1       2.327   1.718   2.278  0.00  0.00    +0.160 C 
ATOM     41  O   UNL     1       1.668   1.653   0.995  0.00  0.00    -0.375 OA
ENDBRANCH  36  37
ENDBRANCH  34  36
ENDBRANCH  24  32
ENDBRANCH   1  24
TORSDOF 9
