REMARK  Name = ZINC36218194
REMARK  9 active torsions:
REMARK  status: ('A' for Active; 'I' for Inactive)
REMARK    1  A    between atoms: C_1  and  C_2
REMARK    2  A    between atoms: C_5  and  C_8
REMARK    3  A    between atoms: N_10  and  C_11
REMARK    4  A    between atoms: C_15  and  C_17
REMARK    5  A    between atoms: C_19  and  C_33
REMARK    6  A    between atoms: N_21  and  C_25
REMARK    7  A    between atoms: C_25  and  C_26
REMARK    8  A    between atoms: N_35  and  C_36
REMARK    9  A    between atoms: C_36  and  C_37
REMARK                            x       y       z     vdW  Elec       q    Type
REMARK                         _______ _______ _______ _____ _____    ______ ____
ROOT
ATOM      1  C   UNL     1       0.296  -9.267   3.449  0.00  0.00    +0.238 C 
ATOM      2  C   UNL     1      -1.077  -9.943   3.674  0.00  0.00    +0.210 C 
ATOM      3  N   UNL     1      -0.691 -11.255   4.230  0.00  0.00    -0.248 N 
ATOM      4  C   UNL     1       0.624 -11.427   4.001  0.00  0.00    +0.405 C 
ATOM      5  O   UNL     1       1.248 -12.404   4.365  0.00  0.00    -0.226 OA
ATOM      6  O   UNL     1       1.175 -10.402   3.327  0.00  0.00    -0.440 OA
ENDROOT
BRANCH   1  11
ATOM      7  C   UNL     1       0.182  -6.324   1.079  0.00  0.00    +0.034 A 
ATOM      8  C   UNL     1       0.286  -6.959  -0.152  0.00  0.00    +0.023 A 
ATOM      9  C   UNL     1       0.393  -8.335  -0.210  0.00  0.00    +0.002 A 
ATOM     10  C   UNL     1       0.396  -9.080   0.955  0.00  0.00    +0.007 A 
ATOM     11  C   UNL     1       0.293  -8.451   2.182  0.00  0.00    -0.003 A 
ATOM     12  C   UNL     1       0.192  -7.075   2.248  0.00  0.00    +0.030 A 
BRANCH   7  15
ATOM     13  C   UNL     1       0.655  -4.255   2.153  0.00  0.00    +0.248 C 
ATOM     14  O   UNL     1       1.202  -4.860   3.054  0.00  0.00    -0.270 OA
ATOM     15  N   UNL     1       0.074  -4.931   1.142  0.00  0.00    -0.281 N 
ATOM     16  H   UNL     1      -0.420  -4.452   0.458  0.00  0.00    +0.155 HD
BRANCH  13  21
ATOM     17  C   UNL     1       0.553   1.498   2.199  0.00  0.00    +0.044 C 
ATOM     18  C   UNL     1       0.579  -0.008   2.187  0.00  0.00    -0.050 A 
ATOM     19  C   UNL     1       1.202  -0.694   3.215  0.00  0.00    +0.004 A 
ATOM     20  C   UNL     1       1.230  -2.074   3.210  0.00  0.00    +0.013 A 
ATOM     21  C   UNL     1       0.628  -2.777   2.165  0.00  0.00    +0.037 A 
ATOM     22  C   UNL     1       0.003  -2.079   1.131  0.00  0.00    +0.013 A 
ATOM     23  C   UNL     1      -0.023  -0.700   1.151  0.00  0.00    +0.004 A 
ENDBRANCH  13  21
ENDBRANCH   7  15
ENDBRANCH   1  11
BRANCH   2  24
ATOM     24  C   UNL     1      -1.816 -10.104   2.370  0.00  0.00    +0.238 C 
ATOM     25  O   UNL     1      -1.817 -11.175   1.802  0.00  0.00    -0.274 OA
ATOM     26  N   UNL     1      -2.476  -9.057   1.837  0.00  0.00    -0.313 N 
ATOM     27  H   UNL     1      -2.475  -8.200   2.291  0.00  0.00    +0.149 HD
BRANCH  26  28
ATOM     28  C   UNL     1      -3.195  -9.213   0.570  0.00  0.00    +0.107 C 
BRANCH  28  29
ATOM     29  C   UNL     1      -3.852  -7.886   0.189  0.00  0.00    +0.006 C 
ATOM     30  C   UNL     1      -5.380  -7.848   0.121  0.00  0.00    +0.005 C 
ATOM     31  C   UNL     1      -4.556  -7.809  -1.167  0.00  0.00    +0.005 C 
ENDBRANCH  28  29
ENDBRANCH  26  28
ENDBRANCH   2  24
BRANCH   3  32
ATOM     32  C   UNL     1      -1.580 -12.201   4.909  0.00  0.00    +0.147 C 
BRANCH  32  33
ATOM     33  C   UNL     1      -2.182 -13.140   3.896  0.00  0.00    -0.030 A 
ATOM     34  C   UNL     1      -3.374 -12.815   3.274  0.00  0.00    +0.008 A 
ATOM     35  C   UNL     1      -3.926 -13.675   2.344  0.00  0.00    +0.038 A 
ATOM     36  C   UNL     1      -3.287 -14.864   2.036  0.00  0.00    +0.123 A 
ATOM     37  C   UNL     1      -2.094 -15.189   2.659  0.00  0.00    +0.038 A 
ATOM     38  C   UNL     1      -1.540 -14.324   3.584  0.00  0.00    +0.008 A 
ATOM     39  F   UNL     1      -3.826 -15.706   1.127  0.00  0.00    -0.205 F 
ENDBRANCH  32  33
ENDBRANCH   3  32
TORSDOF 8
