REMARK  Name = ZINC32878689
REMARK  3 active torsions:
REMARK  status: ('A' for Active; 'I' for Inactive)
REMARK    1  A    between atoms: N_13  and  C_17
REMARK    2  A    between atoms: C_17  and  C_18
REMARK    3  A    between atoms: C_31  and  C_33
REMARK                            x       y       z     vdW  Elec       q    Type
REMARK                         _______ _______ _______ _____ _____    ______ ____
ROOT
ATOM      1  C   UNL     1      -3.821  -2.742  -3.223  0.00  0.00    +0.238 C 
ATOM      2  O   UNL     1      -4.549  -2.313  -2.352  0.00  0.00    -0.273 OA
ATOM      3  N   UNL     1      -4.085  -3.933  -3.796  0.00  0.00    -0.256 N 
ATOM      4  C   UNL     1      -3.255  -4.441  -4.803  0.00  0.00    +0.058 A 
ATOM      5  C   UNL     1      -1.992  -4.925  -4.499  0.00  0.00    +0.025 A 
ATOM      6  C   UNL     1      -1.195  -5.446  -5.502  0.00  0.00    +0.002 A 
ATOM      7  C   UNL     1      -1.654  -5.490  -6.806  0.00  0.00    +0.002 A 
ATOM      8  C   UNL     1      -2.909  -5.000  -7.119  0.00  0.00    +0.025 A 
ATOM      9  C   UNL     1      -3.707  -4.465  -6.122  0.00  0.00    +0.055 A 
ATOM     10  N   UNL     1      -4.965  -3.926  -6.420  0.00  0.00    -0.284 N 
ATOM     11  C   UNL     1      -6.049  -4.269  -5.690  0.00  0.00    +0.219 C 
ATOM     12  O   UNL     1      -7.116  -3.735  -5.909  0.00  0.00    -0.275 OA
ATOM     13  C   UNL     1      -5.943  -5.309  -4.607  0.00  0.00    +0.128 C 
ATOM     14  C   UNL     1      -5.242  -4.724  -3.375  0.00  0.00    +0.194 C 
ATOM     15  H   UNL     1      -5.076  -3.216  -7.253  0.00  0.00    +0.155 HD
ENDROOT
BRANCH  14  16
ATOM     16  C   UNL     1      -4.777  -5.859  -2.461  0.00  0.00    +0.409 C 
ATOM     17  F   UNL     1      -4.143  -5.322  -1.335  0.00  0.00    -0.169 F 
ATOM     18  F   UNL     1      -5.882  -6.617  -2.058  0.00  0.00    -0.169 F 
ATOM     19  F   UNL     1      -3.879  -6.678  -3.155  0.00  0.00    -0.169 F 
ENDBRANCH  14  16
BRANCH   1  20
ATOM     20  C   UNL     1      -2.623  -1.943  -3.664  0.00  0.00    +0.214 C 
BRANCH  20  33
ATOM     21  C   UNL     1      -4.291   1.013   2.360  0.00  0.00    +0.000 A 
ATOM     22  C   UNL     1      -4.924   0.699   1.171  0.00  0.00    +0.000 A 
ATOM     23  C   UNL     1      -4.199   0.661  -0.002  0.00  0.00    +0.006 A 
ATOM     24  C   UNL     1      -2.838   0.939  -0.000  0.00  0.00    -0.012 A 
ATOM     25  C   UNL     1      -2.209   1.258   1.183  0.00  0.00    -0.042 A 
ATOM     26  C   UNL     1      -2.940   1.291   2.364  0.00  0.00    +0.004 A 
ATOM     27  C   UNL     1      -0.735   1.582   1.258  0.00  0.00    +0.035 C 
ATOM     28  C   UNL     1      -0.013   1.086   0.008  0.00  0.00    +0.008 C 
ATOM     29  C   UNL     1      -0.762   1.598  -1.228  0.00  0.00    +0.040 C 
ATOM     30  C   UNL     1      -2.102   0.877  -1.309  0.00  0.00    +0.138 C 
ATOM     31  C   UNL     1      -1.898  -0.563  -1.725  0.00  0.00    +0.251 C 
ATOM     32  O   UNL     1      -1.274  -1.416  -1.132  0.00  0.00    -0.272 OA
ATOM     33  N   UNL     1      -2.556  -0.697  -2.895  0.00  0.00    -0.215 N 
ATOM     34  C   UNL     1      -3.140   0.448  -3.267  0.00  0.00    +0.310 C 
ATOM     35  O   UNL     1      -3.791   0.576  -4.285  0.00  0.00    -0.252 OA
ATOM     36  N   UNL     1      -2.926   1.444  -2.385  0.00  0.00    -0.281 N 
ATOM     37  H   UNL     1      -3.235   2.499  -2.344  0.00  0.00    +0.152 HD
ENDBRANCH  20  33
ENDBRANCH   1  20
TORSDOF 3
