REMARK  Name = ZINC14169247
REMARK  8 active torsions:
REMARK  status: ('A' for Active; 'I' for Inactive)
REMARK    1  A    between atoms: C_1  and  C_2
REMARK    2  A    between atoms: C_5  and  C_8
REMARK    3  A    between atoms: C_12  and  C_13
REMARK    4  A    between atoms: N_15  and  C_16
REMARK    5  A    between atoms: C_19  and  S_22
REMARK    6  A    between atoms: S_22  and  N_25
REMARK    7  A    between atoms: C_27  and  C_33
REMARK    8  A    between atoms: C_28  and  C_32
REMARK                            x       y       z     vdW  Elec       q    Type
REMARK                         _______ _______ _______ _____ _____    ______ ____
ROOT
ATOM      1  C   UNL     1      -5.441  -3.687   0.031  0.00  0.00    +0.034 A 
ATOM      2  C   UNL     1      -4.987  -3.151   1.230  0.00  0.00    +0.025 A 
ATOM      3  C   UNL     1      -4.105  -2.088   1.218  0.00  0.00    +0.031 A 
ATOM      4  C   UNL     1      -3.674  -1.558   0.016  0.00  0.00    +0.113 A 
ATOM      5  C   UNL     1      -4.128  -2.086  -1.179  0.00  0.00    +0.031 A 
ATOM      6  C   UNL     1      -5.006  -3.152  -1.175  0.00  0.00    +0.025 A 
ENDROOT
BRANCH   1   9
ATOM      7  C   UNL     1      -7.288  -4.854  -0.908  0.00  0.00    +0.255 C 
ATOM      8  O   UNL     1      -7.321  -4.046  -1.819  0.00  0.00    -0.269 OA
ATOM      9  N   UNL     1      -6.334  -4.763   0.039  0.00  0.00    -0.281 N 
ATOM     10  H   UNL     1      -6.267  -5.444   0.727  0.00  0.00    +0.155 HD
BRANCH   7  15
ATOM     11  C   UNL     1      -9.349  -6.189  -1.709  0.00  0.00    +0.001 A 
ATOM     12  C   UNL     1     -10.139  -7.282  -1.401  0.00  0.00    +0.017 A 
ATOM     13  C   UNL     1      -9.854  -8.013  -0.296  0.00  0.00    +0.046 A 
ATOM     14  S   UNL     1      -8.464  -7.220   0.368  0.00  0.00    -0.091 S 
ATOM     15  C   UNL     1      -8.285  -5.922  -0.843  0.00  0.00    +0.082 A 
BRANCH  11  20
ATOM     16  C   UNL     1     -10.384  -2.916  -6.332  0.00  0.00    +0.044 C 
ATOM     17  C   UNL     1     -10.113  -3.773  -5.122  0.00  0.00    -0.050 A 
ATOM     18  C   UNL     1     -10.047  -5.148  -5.253  0.00  0.00    +0.004 A 
ATOM     19  C   UNL     1      -9.799  -5.938  -4.148  0.00  0.00    +0.009 A 
ATOM     20  C   UNL     1      -9.615  -5.347  -2.899  0.00  0.00    -0.017 A 
ATOM     21  C   UNL     1      -9.688  -3.960  -2.772  0.00  0.00    +0.009 A 
ATOM     22  C   UNL     1      -9.931  -3.180  -3.885  0.00  0.00    +0.004 A 
ENDBRANCH  11  20
ENDBRANCH   7  15
ENDBRANCH   1   9
BRANCH   4  23
ATOM     23  S   UNL     1      -2.549  -0.202   0.006  0.00  0.00    +0.102 S 
ATOM     24  O   UNL     1      -2.704   0.464   1.252  0.00  0.00    -0.146 OA
ATOM     25  O   UNL     1      -2.723   0.462  -1.238  0.00  0.00    -0.146 OA
BRANCH  23  26
ATOM     26  N   UNL     1      -1.019  -0.835  -0.005  0.00  0.00    -0.088 NA
ATOM     27  C   UNL     1       0.024  -0.034  -0.014  0.00  0.00    +0.270 A 
ATOM     28  C   UNL     1       1.393  -0.413  -0.025  0.00  0.00    +0.037 A 
ATOM     29  C   UNL     1       2.066   0.764  -0.030  0.00  0.00    +0.055 A 
ATOM     30  N   UNL     1       1.139   1.753  -0.024  0.00  0.00    -0.223 N 
ATOM     31  H   UNL     1       1.354   2.699  -0.026  0.00  0.00    +0.207 HD
ATOM     32  O   UNL     1       0.013   1.313  -0.015  0.00  0.00    -0.358 OA
ATOM     33  C   UNL     1       3.562   0.940  -0.042  0.00  0.00    +0.067 C 
ATOM     34  C   UNL     1       1.968  -1.807  -0.029  0.00  0.00    +0.051 C 
ENDBRANCH  23  26
ENDBRANCH   4  23
TORSDOF 5
