REMARK  Name = ZINC09369086
REMARK  7 active torsions:
REMARK  status: ('A' for Active; 'I' for Inactive)
REMARK    1  A    between atoms: C_4  and  N_7
REMARK    2  A    between atoms: C_8  and  C_26
REMARK    3  A    between atoms: C_11  and  S_12
REMARK    4  A    between atoms: S_12  and  C_13
REMARK    5  A    between atoms: C_13  and  C_14
REMARK    6  A    between atoms: C_26  and  N_27
REMARK    7  A    between atoms: C_28  and  C_30
REMARK                            x       y       z     vdW  Elec       q    Type
REMARK                         _______ _______ _______ _____ _____    ______ ____
ROOT
ATOM      1  N   UNL     1      -5.518  -0.230  -1.049  0.00  0.00    -0.273 N 
ATOM      2  C   UNL     1      -4.809  -0.649   0.045  0.00  0.00    +0.156 A 
ATOM      3  N   UNL     1      -5.466  -0.265   1.103  0.00  0.00    -0.132 NA
ATOM      4  N   UNL     1      -6.528   0.371   0.758  0.00  0.00    -0.122 NA
ATOM      5  C   UNL     1      -6.614   0.421  -0.551  0.00  0.00    +0.197 A 
ENDROOT
BRANCH   1   9
ATOM      6  C   UNL     1      -4.541  -0.813  -5.060  0.00  0.00    +0.000 A 
ATOM      7  C   UNL     1      -5.676  -1.402  -4.534  0.00  0.00    +0.002 A 
ATOM      8  C   UNL     1      -6.002  -1.210  -3.205  0.00  0.00    +0.026 A 
ATOM      9  C   UNL     1      -5.189  -0.426  -2.398  0.00  0.00    +0.050 A 
ATOM     10  C   UNL     1      -4.053   0.168  -2.931  0.00  0.00    +0.026 A 
ATOM     11  C   UNL     1      -3.729  -0.031  -4.259  0.00  0.00    +0.002 A 
ENDBRANCH   1   9
BRANCH   5  12
ATOM     12  S   UNL     1      -7.897   1.181  -1.490  0.00  0.00    -0.076 S 
BRANCH  12  13
ATOM     13  C   UNL     1      -8.941   1.802  -0.148  0.00  0.00    +0.173 C 
BRANCH  13  14
ATOM     14  C   UNL     1     -10.137   2.511  -0.729  0.00  0.00    +0.229 C 
ATOM     15  O   UNL     1     -10.270   2.589  -1.932  0.00  0.00    -0.275 OA
ATOM     16  N   UNL     1     -11.059   3.058   0.087  0.00  0.00    -0.264 N 
ATOM     17  C   UNL     1     -12.159   3.710  -0.447  0.00  0.00    +0.165 A 
ATOM     18  N   UNL     1     -13.151   4.299   0.178  0.00  0.00    -0.225 NA
ATOM     19  C   UNL     1     -14.167   4.902  -0.477  0.00  0.00    +0.080 A 
ATOM     20  C   UNL     1     -15.287   5.567   0.072  0.00  0.00    +0.029 A 
ATOM     21  C   UNL     1     -16.235   6.130  -0.742  0.00  0.00    +0.002 A 
ATOM     22  C   UNL     1     -16.133   6.069  -2.124  0.00  0.00    +0.001 A 
ATOM     23  C   UNL     1     -15.051   5.425  -2.695  0.00  0.00    +0.017 A 
ATOM     24  C   UNL     1     -14.096   4.859  -1.888  0.00  0.00    +0.041 A 
ATOM     25  S   UNL     1     -12.583   3.970  -2.164  0.00  0.00    -0.052 S 
ATOM     26  H   UNL     1     -10.953   2.996   1.050  0.00  0.00    +0.157 HD
ENDBRANCH  13  14
ENDBRANCH  12  13
ENDBRANCH   5  12
BRANCH   2  27
ATOM     27  C   UNL     1      -3.513  -1.418   0.029  0.00  0.00    +0.181 C 
BRANCH  27  28
ATOM     28  N   UNL     1      -2.388  -0.479   0.023  0.00  0.00    -0.304 N 
ATOM     29  C   UNL     1      -1.123  -0.943   0.008  0.00  0.00    +0.251 C 
ATOM     30  O   UNL     1      -0.915  -2.143   0.000  0.00  0.00    -0.270 OA
ATOM     31  H   UNL     1      -2.554   0.476   0.029  0.00  0.00    +0.149 HD
BRANCH  29  32
ATOM     32  C   UNL     1       0.002  -0.004   0.002  0.00  0.00    +0.074 A 
ATOM     33  C   UNL     1       1.362  -0.270  -0.012  0.00  0.00    +0.021 A 
ATOM     34  C   UNL     1       2.211   0.809  -0.015  0.00  0.00    +0.008 A 
ATOM     35  C   UNL     1       1.688   2.063  -0.003  0.00  0.00    +0.046 A 
ATOM     36  S   UNL     1      -0.022   1.780   0.012  0.00  0.00    -0.092 S 
ENDBRANCH  29  32
ENDBRANCH  27  28
ENDBRANCH   2  27
TORSDOF 7
