REMARK  Name = ZINC46718438
REMARK  6 active torsions:
REMARK  status: ('A' for Active; 'I' for Inactive)
REMARK    1  A    between atoms: C_4  and  N_7
REMARK    2  A    between atoms: N_10  and  C_11
REMARK    3  A    between atoms: C_14  and  C_17
REMARK    4  A    between atoms: C_25  and  C_27
REMARK    5  A    between atoms: C_32  and  O_33
REMARK    6  A    between atoms: O_33  and  C_34
REMARK                            x       y       z     vdW  Elec       q    Type
REMARK                         _______ _______ _______ _____ _____    ______ ____
ROOT
ATOM      1  C   UNL     1       5.093  -8.274   0.005  0.00  0.00    +0.247 C 
ATOM      2  O   UNL     1       4.056  -8.901  -0.092  0.00  0.00    -0.270 OA
ATOM      3  N   UNL     1       6.270  -8.926   0.086  0.00  0.00    -0.295 N 
ATOM      4  C   UNL     1       7.519  -8.189   0.321  0.00  0.00    +0.127 C 
ATOM      5  C   UNL     1       8.211  -8.777   1.557  0.00  0.00    +0.127 C 
ATOM      6  N   UNL     1       8.267 -10.239   1.413  0.00  0.00    -0.294 N 
ATOM      7  C   UNL     1       7.018 -10.976   1.178  0.00  0.00    +0.127 C 
ATOM      8  C   UNL     1       6.326 -10.388  -0.053  0.00  0.00    +0.127 C 
ATOM      9  C   UNL     1       9.444 -10.891   1.494  0.00  0.00    +0.250 C 
ATOM     10  O   UNL     1      10.460 -10.281   1.766  0.00  0.00    -0.270 OA
ENDROOT
BRANCH   1  14
ATOM     11  C   UNL     1       5.010  -4.029   0.090  0.00  0.00    +0.035 A 
ATOM     12  C   UNL     1       4.080  -4.756   0.827  0.00  0.00    +0.024 A 
ATOM     13  C   UNL     1       4.104  -6.132   0.801  0.00  0.00    +0.015 A 
ATOM     14  C   UNL     1       5.064  -6.799   0.034  0.00  0.00    +0.037 A 
ATOM     15  C   UNL     1       5.997  -6.065  -0.704  0.00  0.00    +0.015 A 
ATOM     16  C   UNL     1       5.963  -4.689  -0.679  0.00  0.00    +0.024 A 
BRANCH  11  20
ATOM     17  N   UNL     1       4.465  -0.649   1.231  0.00  0.00    -0.269 N 
ATOM     18  C   UNL     1       4.592  -1.991   1.236  0.00  0.00    +0.308 C 
ATOM     19  O   UNL     1       4.355  -2.620   2.249  0.00  0.00    -0.252 OA
ATOM     20  N   UNL     1       4.982  -2.635   0.118  0.00  0.00    -0.269 N 
ATOM     21  H   UNL     1       4.579  -0.154   0.405  0.00  0.00    +0.156 HD
ATOM     22  H   UNL     1       5.244  -2.129  -0.667  0.00  0.00    +0.156 HD
BRANCH  17  26
ATOM     23  C   UNL     1       3.578   1.373   4.764  0.00  0.00    +0.000 A 
ATOM     24  C   UNL     1       4.331   0.214   4.803  0.00  0.00    +0.002 A 
ATOM     25  C   UNL     1       4.627  -0.459   3.633  0.00  0.00    +0.023 A 
ATOM     26  C   UNL     1       4.166   0.030   2.418  0.00  0.00    +0.035 A 
ATOM     27  C   UNL     1       3.410   1.193   2.382  0.00  0.00    +0.023 A 
ATOM     28  C   UNL     1       3.117   1.861   3.555  0.00  0.00    +0.002 A 
ENDBRANCH  17  26
ENDBRANCH  11  20
ENDBRANCH   1  14
BRANCH   9  29
ATOM     29  C   UNL     1       9.499 -12.345   1.252  0.00  0.00    +0.079 A 
ATOM     30  C   UNL     1       8.678 -13.210   1.980  0.00  0.00    +0.017 A 
ATOM     31  C   UNL     1       8.734 -14.568   1.750  0.00  0.00    +0.001 A 
ATOM     32  C   UNL     1       9.601 -15.080   0.798  0.00  0.00    +0.004 A 
ATOM     33  C   UNL     1      10.418 -14.236   0.071  0.00  0.00    +0.046 A 
ATOM     34  C   UNL     1      10.370 -12.867   0.286  0.00  0.00    +0.139 A 
BRANCH  34  35
ATOM     35  O   UNL     1      11.168 -12.037  -0.431  0.00  0.00    -0.433 OA
BRANCH  35  36
ATOM     36  C   UNL     1      12.031 -12.640  -1.397  0.00  0.00    +0.541 C 
ATOM     37  F   UNL     1      12.896 -13.533  -0.757  0.00  0.00    -0.166 F 
ATOM     38  F   UNL     1      11.263 -13.331  -2.341  0.00  0.00    -0.166 F 
ENDBRANCH  35  36
ENDBRANCH  34  35
ENDBRANCH   9  29
TORSDOF 6
