REMARK  Name = ZINC65919965
REMARK  3 active torsions:
REMARK  status: ('A' for Active; 'I' for Inactive)
REMARK    1  A    between atoms: C_4  and  N_6
REMARK    2  A    between atoms: N_9  and  N_10
REMARK    3  A    between atoms: C_11  and  C_13
REMARK                            x       y       z     vdW  Elec       q    Type
REMARK                         _______ _______ _______ _____ _____    ______ ____
ROOT
ATOM      1  N   UNL     1       2.081  -3.795   2.398  0.00  0.00    -0.233 N 
ATOM      2  C   UNL     1       2.270  -4.889   3.162  0.00  0.00    +0.235 C 
ATOM      3  O   UNL     1       2.176  -5.995   2.673  0.00  0.00    -0.274 OA
ATOM      4  H   UNL     1       2.156  -2.911   2.789  0.00  0.00    +0.173 HD
ENDROOT
BRANCH   2   5
ATOM      5  C   UNL     1       2.598  -4.738   4.625  0.00  0.00    +0.050 C 
ATOM      6  C   UNL     1       3.901  -3.951   4.777  0.00  0.00    +0.020 C 
ATOM      7  C   UNL     1       4.234  -3.798   6.263  0.00  0.00    -0.008 C 
ATOM      8  C   UNL     1       4.397  -5.182   6.894  0.00  0.00    +0.007 C 
ATOM      9  C   UNL     1       3.094  -5.969   6.742  0.00  0.00    -0.008 C 
ATOM     10  C   UNL     1       2.761  -6.122   5.257  0.00  0.00    +0.020 C 
ATOM     11  C   UNL     1       1.961  -5.218   7.444  0.00  0.00    +0.021 C 
ATOM     12  C   UNL     1       1.798  -3.834   6.813  0.00  0.00    +0.028 C 
ATOM     13  C   UNL     1       3.101  -3.047   6.965  0.00  0.00    +0.021 C 
ATOM     14  C   UNL     1       1.464  -3.987   5.327  0.00  0.00    +0.034 C 
ATOM     15 BR   UNL     1       0.341  -2.870   7.715  0.00  0.00    -0.084 Br
ENDBRANCH   2   5
BRANCH   1  19
ATOM     16  N   UNL     1       1.692  -1.613   0.817  0.00  0.00    -0.295 N 
ATOM     17  C   UNL     1       1.587  -2.842   0.273  0.00  0.00    +0.316 C 
ATOM     18  O   UNL     1       1.322  -2.964  -0.907  0.00  0.00    -0.251 OA
ATOM     19  N   UNL     1       1.776  -3.936   1.038  0.00  0.00    -0.218 N 
ATOM     20  H   UNL     1       1.903  -1.516   1.758  0.00  0.00    +0.151 HD
ATOM     21  H   UNL     1       1.701  -4.820   0.646  0.00  0.00    +0.174 HD
BRANCH  16  25
ATOM     22  C   UNL     1      -0.019   1.534   0.011  0.00  0.00    +0.002 C 
ATOM     23  C   UNL     1       1.453   1.995  -0.001  0.00  0.00    +0.002 C 
ATOM     24  C   UNL     1       2.232   0.792   0.586  0.00  0.00    +0.022 C 
ATOM     25  C   UNL     1       1.486  -0.425  -0.014  0.00  0.00    +0.074 C 
ATOM     26  C   UNL     1       0.002  -0.004   0.002  0.00  0.00    +0.022 C 
ENDBRANCH  16  25
ENDBRANCH   1  19
TORSDOF 3
