REMARK  Name = ZINC39653014
REMARK  10 active torsions:
REMARK  status: ('A' for Active; 'I' for Inactive)
REMARK    1  A    between atoms: C_1  and  O_2
REMARK    2  A    between atoms: O_2  and  C_3
REMARK    3  A    between atoms: C_5  and  C_11
REMARK    4  A    between atoms: C_7  and  O_9
REMARK    5  A    between atoms: O_9  and  C_10
REMARK    6  A    between atoms: C_11  and  C_12
REMARK    7  A    between atoms: C_12  and  N_13
REMARK    8  A    between atoms: C_14  and  C_16
REMARK    9  A    between atoms: C_27  and  C_29
REMARK   10  A    between atoms: C_32  and  C_35
REMARK                            x       y       z     vdW  Elec       q    Type
REMARK                         _______ _______ _______ _____ _____    ______ ____
ROOT
ATOM      1  C   UNL     1      -3.250  -7.961   2.763  0.00  0.00    +0.100 C 
ATOM      2  C   UNL     1      -4.412  -8.710   2.072  0.00  0.00    +0.121 C 
ATOM      3  N   UNL     1      -4.638  -9.908   2.914  0.00  0.00    -0.296 N 
ATOM      4  C   UNL     1      -4.473  -9.419   4.304  0.00  0.00    +0.115 C 
ATOM      5  C   UNL     1      -3.294  -8.428   4.227  0.00  0.00    -0.004 C 
ATOM      6  C   UNL     1      -3.541  -7.242   5.154  0.00  0.00    -0.010 C 
ATOM      7  C   UNL     1      -3.522  -7.722   6.607  0.00  0.00    -0.082 C 
ATOM      8  N   UNL     1      -2.223  -8.338   6.904  0.00  0.00    +0.379 N 
ATOM      9  C   UNL     1      -2.034  -9.534   6.074  0.00  0.00    -0.082 C 
ATOM     10  C   UNL     1      -1.990  -9.130   4.597  0.00  0.00    -0.010 C 
ATOM     11  C   UNL     1      -4.928 -11.160   2.509  0.00  0.00    +0.247 C 
ATOM     12  O   UNL     1      -4.905 -11.436   1.325  0.00  0.00    -0.270 OA
ATOM     13  H   UNL     1      -1.486  -7.676   6.711  0.00  0.00    -0.086 HD
ATOM     14  H   UNL     1      -2.191  -8.599   7.879  0.00  0.00    -0.086 HD
ENDROOT
BRANCH  11  15
ATOM     15  C   UNL     1      -5.275 -12.198   3.503  0.00  0.00    +0.037 A 
ATOM     16  C   UNL     1      -5.723 -11.830   4.773  0.00  0.00    +0.013 A 
ATOM     17  C   UNL     1      -6.046 -12.803   5.696  0.00  0.00    +0.013 A 
ATOM     18  C   UNL     1      -5.926 -14.141   5.365  0.00  0.00    +0.055 A 
ATOM     19  C   UNL     1      -5.482 -14.513   4.108  0.00  0.00    +0.013 A 
ATOM     20  C   UNL     1      -5.162 -13.549   3.174  0.00  0.00    +0.013 A 
BRANCH  18  21
ATOM     21  C   UNL     1      -6.279 -15.199   6.378  0.00  0.00    +0.417 C 
ATOM     22  F   UNL     1      -7.633 -15.530   6.254  0.00  0.00    -0.166 F 
ATOM     23  F   UNL     1      -5.498 -16.338   6.155  0.00  0.00    -0.166 F 
ATOM     24  F   UNL     1      -6.035 -14.711   7.667  0.00  0.00    -0.166 F 
ENDBRANCH  18  21
ENDBRANCH  11  15
BRANCH   1  26
ATOM     25  N   UNL     1      -2.403  -5.640   2.640  0.00  0.00    -0.315 N 
ATOM     26  C   UNL     1      -3.463  -6.471   2.681  0.00  0.00    +0.218 C 
ATOM     27  O   UNL     1      -4.588  -6.021   2.651  0.00  0.00    -0.275 OA
ATOM     28  H   UNL     1      -1.502  -6.001   2.664  0.00  0.00    +0.149 HD
BRANCH  25  29
ATOM     29  C   UNL     1      -2.610  -4.192   2.561  0.00  0.00    +0.109 C 
BRANCH  29  30
ATOM     30  C   UNL     1      -1.254  -3.484   2.528  0.00  0.00    +0.054 C 
BRANCH  30  33
ATOM     31  C   UNL     1      -1.765   0.124   3.531  0.00  0.00    +0.124 A 
ATOM     32  C   UNL     1      -1.569  -1.248   3.604  0.00  0.00    +0.049 A 
ATOM     33  C   UNL     1      -1.467  -1.995   2.446  0.00  0.00    -0.039 A 
ATOM     34  C   UNL     1      -1.558  -1.378   1.213  0.00  0.00    +0.049 A 
ATOM     35  C   UNL     1      -1.754  -0.006   1.135  0.00  0.00    +0.124 A 
ATOM     36  C   UNL     1      -1.864   0.744   2.296  0.00  0.00    +0.091 A 
BRANCH  31  38
ATOM     37  C   UNL     1      -2.073   2.264   4.521  0.00  0.00    +0.277 C 
ATOM     38  O   UNL     1      -1.866   0.858   4.671  0.00  0.00    -0.495 OA
ENDBRANCH  31  38
BRANCH  35  39
ATOM     39  O   UNL     1      -1.844   0.600  -0.078  0.00  0.00    -0.495 OA
ATOM     40  C   UNL     1      -2.046   2.014  -0.083  0.00  0.00    +0.277 C 
ENDBRANCH  35  39
ENDBRANCH  30  33
ENDBRANCH  29  30
ENDBRANCH  25  29
ENDBRANCH   1  26
TORSDOF 8
