REMARK  Name = ZINC01389174
REMARK  9 active torsions:
REMARK  status: ('A' for Active; 'I' for Inactive)
REMARK    1  A    between atoms: C_1  and  C_2
REMARK    2  A    between atoms: C_2  and  C_4
REMARK    3  A    between atoms: C_6  and  C_9
REMARK    4  A    between atoms: C_9  and  N_10
REMARK    5  A    between atoms: N_10  and  N_11
REMARK    6  A    between atoms: N_10  and  S_24
REMARK    7  A    between atoms: N_11  and  C_12
REMARK    8  A    between atoms: C_16  and  C_19
REMARK    9  A    between atoms: S_24  and  C_27
REMARK                            x       y       z     vdW  Elec       q    Type
REMARK                         _______ _______ _______ _____ _____    ______ ____
ROOT
ATOM      1  N   UNL     1       1.224   8.324   2.091  0.00  0.00    -0.086 NA
ENDROOT
BRANCH   1   2
ATOM      2  N   UNL     1      -0.161   8.371   2.297  0.00  0.00    -0.231 N 
ATOM      3  C   UNL     1      -0.896   7.144   2.615  0.00  0.00    +0.153 C 
ATOM      4  C   UNL     1      -0.838   9.582   2.200  0.00  0.00    +0.154 A 
ATOM      5  C   UNL     1      -1.696   9.809   1.127  0.00  0.00    +0.083 A 
ATOM      6  C   UNL     1      -2.368  11.016   1.047  0.00  0.00    +0.037 A 
ATOM      7  C   UNL     1      -2.149  11.963   2.039  0.00  0.00    +0.074 A 
ATOM      8  C   UNL     1      -1.281  11.673   3.071  0.00  0.00    +0.125 A 
ATOM      9  N   UNL     1      -0.658  10.510   3.126  0.00  0.00    -0.237 NA
ATOM     10 CL   UNL     1      -1.925   8.592  -0.089  0.00  0.00    -0.080 Cl
BRANCH   7  11
ATOM     11  C   UNL     1      -2.854  13.294   1.990  0.00  0.00    +0.419 C 
ATOM     12  F   UNL     1      -2.472  14.066   3.092  0.00  0.00    -0.166 F 
ATOM     13  F   UNL     1      -2.508  13.961   0.810  0.00  0.00    -0.166 F 
ATOM     14  F   UNL     1      -4.238  13.090   2.021  0.00  0.00    -0.166 F 
ENDBRANCH   7  11
ENDBRANCH   1   2
BRANCH   1  15
ATOM     15  S   UNL     1       1.829   8.224   0.552  0.00  0.00    +0.077 S 
ATOM     16  O   UNL     1       3.196   8.603   0.628  0.00  0.00    -0.151 OA
ATOM     17  O   UNL     1       0.899   8.888  -0.293  0.00  0.00    -0.151 OA
BRANCH  15  18
ATOM     18  C   UNL     1       1.802   6.524   0.092  0.00  0.00    +0.108 A 
ATOM     19  C   UNL     1       2.911   5.722   0.361  0.00  0.00    +0.029 A 
ATOM     20  C   UNL     1       2.923   4.405   0.018  0.00  0.00    +0.010 A 
ATOM     21  C   UNL     1       1.803   3.841  -0.616  0.00  0.00    -0.018 A 
ATOM     22  C   UNL     1       1.778   2.486  -0.985  0.00  0.00    +0.008 A 
ATOM     23  C   UNL     1       0.676   1.974  -1.598  0.00  0.00    +0.001 A 
ATOM     24  C   UNL     1      -0.430   2.777  -1.873  0.00  0.00    +0.001 A 
ATOM     25  C   UNL     1      -0.444   4.093  -1.526  0.00  0.00    +0.008 A 
ATOM     26  C   UNL     1       0.676   4.656  -0.890  0.00  0.00    -0.016 A 
ATOM     27  C   UNL     1       0.700   6.012  -0.522  0.00  0.00    +0.037 A 
ENDBRANCH  15  18
ENDBRANCH   1  15
BRANCH   1  28
ATOM     28  C   UNL     1       2.137   8.364   3.236  0.00  0.00    +0.209 C 
BRANCH  28  31
ATOM     29  C   UNL     1       2.559  11.840   4.326  0.00  0.00    +0.148 A 
ATOM     30  C   UNL     1       1.825  10.622   4.393  0.00  0.00    +0.080 A 
ATOM     31  C   UNL     1       2.486   9.796   3.550  0.00  0.00    +0.155 A 
ATOM     32  O   UNL     1       3.515  10.496   3.053  0.00  0.00    -0.358 OA
ATOM     33  N   UNL     1       3.543  11.625   3.485  0.00  0.00    -0.075 NA
BRANCH  29  35
ATOM     34  C   UNL     1       3.160  14.295   4.866  0.00  0.00    +0.093 C 
ATOM     35  C   UNL     1       2.273  13.092   5.056  0.00  0.00    +0.181 C 
ATOM     36  O   UNL     1       1.327  13.151   5.806  0.00  0.00    -0.291 OA
ENDBRANCH  29  35
ENDBRANCH  28  31
ENDBRANCH   1  28
TORSDOF 7
