REMARK  Name = ZINC44784440
REMARK  6 active torsions:
REMARK  status: ('A' for Active; 'I' for Inactive)
REMARK    1  A    between atoms: C_1  and  C_2
REMARK    2  A    between atoms: C_4  and  C_21
REMARK    3  A    between atoms: C_6  and  N_8
REMARK    4  A    between atoms: C_9  and  C_11
REMARK    5  A    between atoms: C_11  and  C_17
REMARK    6  A    between atoms: N_18  and  O_19
REMARK                            x       y       z     vdW  Elec       q    Type
REMARK                         _______ _______ _______ _____ _____    ______ ____
ROOT
ATOM      1  C   UNL     1       0.294  -2.877   4.832  0.00  0.00    +0.105 C 
ATOM      2  C   UNL     1      -0.887  -3.849   4.888  0.00  0.00    +0.024 C 
ATOM      3  C   UNL     1      -2.198  -3.060   4.857  0.00  0.00    +0.001 C 
ATOM      4  C   UNL     1      -2.255  -2.118   6.062  0.00  0.00    +0.000 C 
ATOM      5  C   UNL     1      -1.074  -1.147   6.005  0.00  0.00    +0.001 C 
ATOM      6  C   UNL     1       0.237  -1.935   6.036  0.00  0.00    +0.024 C 
ENDROOT
BRANCH   1   7
ATOM      7  C   UNL     1       1.585  -3.654   4.862  0.00  0.00    +0.147 C 
ATOM      8  N   UNL     1       2.489  -3.370   5.740  0.00  0.00    -0.076 NA
ATOM      9  N   UNL     1       1.801  -4.666   3.953  0.00  0.00    -0.343 N 
ATOM     10  H   UNL     1       1.144  -4.846   3.262  0.00  0.00    +0.144 HD
ATOM     11  H   UNL     1       2.610  -5.199   4.004  0.00  0.00    +0.144 HD
BRANCH   8  12
ATOM     12  O   UNL     1       3.702  -4.100   5.768  0.00  0.00    -0.408 OA
ATOM     13  H   UNL     1       4.316  -3.816   6.459  0.00  0.00    +0.328 HD
ENDBRANCH   8  12
ENDBRANCH   1   7
BRANCH   1  15
ATOM     14  N   UNL     1      -0.224  -2.644   2.424  0.00  0.00    -0.285 N 
ATOM     15  C   UNL     1       0.222  -2.072   3.560  0.00  0.00    +0.231 C 
ATOM     16  O   UNL     1       0.565  -0.908   3.559  0.00  0.00    -0.274 OA
ATOM     17  H   UNL     1      -0.590  -3.542   2.445  0.00  0.00    +0.155 HD
BRANCH  14  23
ATOM     18  C   UNL     1      -0.319   1.634   0.003  0.00  0.00    +0.044 C 
ATOM     19  C   UNL     1      -0.202   0.132   0.012  0.00  0.00    -0.048 A 
ATOM     20  C   UNL     1      -0.032  -0.555  -1.175  0.00  0.00    +0.006 A 
ATOM     21  C   UNL     1       0.076  -1.934  -1.171  0.00  0.00    -0.048 A 
ATOM     22  C   UNL     1       0.013  -2.629   0.020  0.00  0.00    +0.026 A 
ATOM     23  C   UNL     1      -0.159  -1.942   1.215  0.00  0.00    +0.034 A 
ATOM     24  C   UNL     1      -0.261  -0.557   1.208  0.00  0.00    +0.026 A 
ATOM     25  C   UNL     1       0.261  -2.679  -2.468  0.00  0.00    +0.044 C 
ENDBRANCH  14  23
ENDBRANCH   1  15
TORSDOF 4
