REMARK  Name = ZINC08822609
REMARK  8 active torsions:
REMARK  status: ('A' for Active; 'I' for Inactive)
REMARK    1  A    between atoms: C_1  and  C_2
REMARK    2  A    between atoms: C_4  and  C_29
REMARK    3  A    between atoms: C_5  and  N_9
REMARK    4  A    between atoms: C_6  and  C_8
REMARK    5  A    between atoms: C_10  and  C_12
REMARK    6  A    between atoms: C_12  and  S_13
REMARK    7  A    between atoms: S_13  and  C_14
REMARK    8  A    between atoms: C_20  and  C_22
REMARK                            x       y       z     vdW  Elec       q    Type
REMARK                         _______ _______ _______ _____ _____    ______ ____
ROOT
ATOM      1  C   UNL     1       2.295  -7.006   1.628  0.00  0.00    +0.160 A 
ATOM      2  N   UNL     1       1.371  -6.406   0.892  0.00  0.00    -0.133 NA
ATOM      3  N   UNL     1       1.194  -5.158   0.930  0.00  0.00    -0.125 NA
ATOM      4  C   UNL     1       1.920  -4.371   1.707  0.00  0.00    +0.189 A 
ATOM      5  S   UNL     1       2.991  -5.587   2.469  0.00  0.00    -0.024 S 
ATOM      6  N   UNL     1       1.869  -2.990   1.879  0.00  0.00    -0.259 N 
ATOM      7  C   UNL     1       0.973  -2.258   1.188  0.00  0.00    +0.250 C 
ATOM      8  O   UNL     1       0.209  -2.803   0.415  0.00  0.00    -0.270 OA
ATOM      9  H   UNL     1       2.479  -2.556   2.496  0.00  0.00    +0.157 HD
ENDROOT
BRANCH   7  10
ATOM     10  C   UNL     1       0.919  -0.793   1.371  0.00  0.00    +0.037 A 
ATOM     11  C   UNL     1      -0.008  -0.031   0.657  0.00  0.00    +0.014 A 
ATOM     12  C   UNL     1      -0.053   1.336   0.831  0.00  0.00    +0.016 A 
ATOM     13  C   UNL     1       0.819   1.954   1.712  0.00  0.00    +0.018 A 
ATOM     14  C   UNL     1       1.740   1.204   2.423  0.00  0.00    +0.016 A 
ATOM     15  C   UNL     1       1.796  -0.164   2.257  0.00  0.00    +0.014 A 
ATOM     16 BR   UNL     1       0.750   3.829   1.945  0.00  0.00    -0.050 Br
ENDBRANCH   7  10
BRANCH   1  17
ATOM     17  S   UNL     1       2.722  -8.712   1.742  0.00  0.00    -0.088 S 
BRANCH  17  18
ATOM     18  C   UNL     1       1.583  -9.527   0.590  0.00  0.00    +0.172 C 
BRANCH  18  20
ATOM     19  N   UNL     1       1.112 -11.825  -0.196  0.00  0.00    -0.284 N 
ATOM     20  C   UNL     1       1.844 -11.011   0.591  0.00  0.00    +0.227 C 
ATOM     21  O   UNL     1       2.713 -11.473   1.299  0.00  0.00    -0.275 OA
ATOM     22  H   UNL     1       0.383 -11.463  -0.723  0.00  0.00    +0.155 HD
BRANCH  19  27
ATOM     23  C   UNL     1       2.298 -17.368  -0.428  0.00  0.00    +0.044 C 
ATOM     24  C   UNL     1       1.983 -15.895  -0.366  0.00  0.00    -0.050 A 
ATOM     25  C   UNL     1       0.693 -15.476  -0.099  0.00  0.00    +0.008 A 
ATOM     26  C   UNL     1       0.401 -14.128  -0.041  0.00  0.00    -0.029 A 
ATOM     27  C   UNL     1       1.405 -13.192  -0.253  0.00  0.00    +0.039 A 
ATOM     28  C   UNL     1       2.699 -13.616  -0.526  0.00  0.00    -0.029 A 
ATOM     29  C   UNL     1       2.985 -14.966  -0.577  0.00  0.00    +0.008 A 
ATOM     30  C   UNL     1       3.790 -12.604  -0.761  0.00  0.00    +0.045 C 
ATOM     31  C   UNL     1      -1.006 -13.672   0.249  0.00  0.00    +0.045 C 
ENDBRANCH  19  27
ENDBRANCH  18  20
ENDBRANCH  17  18
ENDBRANCH   1  17
TORSDOF 5
