REMARK  Name = ZINC17082738
REMARK  11 active torsions:
REMARK  status: ('A' for Active; 'I' for Inactive)
REMARK    1  A    between atoms: C_1  and  C_2
REMARK    2  A    between atoms: C_2  and  N_3
REMARK    3  A    between atoms: C_4  and  C_28
REMARK    4  A    between atoms: C_5  and  C_8
REMARK    5  A    between atoms: C_8  and  N_57
REMARK    6  A    between atoms: C_9  and  N_57
REMARK    7  A    between atoms: C_10  and  C_11
REMARK    8  A    between atoms: C_10  and  N_57
REMARK    9  A    between atoms: N_13  and  C_14
REMARK   10  A    between atoms: C_15  and  C_25
REMARK   11  A    between atoms: C_20  and  C_24
REMARK                            x       y       z     vdW  Elec       q    Type
REMARK                         _______ _______ _______ _____ _____    ______ ____
ROOT
ATOM      1  C   UNL     1       1.185   1.711   0.131  0.00  0.00    +0.201 C 
ATOM      2  O   UNL     1       1.215   2.883   0.442  0.00  0.00    -0.278 OA
ATOM      3  N   UNL     1       0.003   1.082  -0.016  0.00  0.00    -0.281 N 
ATOM      4  H   UNL     1      -0.021   0.145  -0.265  0.00  0.00    +0.155 HD
ENDROOT
BRANCH   3   5
ATOM      5  C   UNL     1      -1.181   1.776   0.182  0.00  0.00    +0.084 A 
ATOM      6  C   UNL     1      -2.483   1.309   0.074  0.00  0.00    +0.068 A 
ATOM      7  C   UNL     1      -3.559   2.250   0.337  0.00  0.00    -0.023 A 
ATOM      8  C   UNL     1      -3.163   3.500   0.664  0.00  0.00    -0.004 A 
ATOM      9  S   UNL     1      -1.393   3.436   0.634  0.00  0.00    -0.077 S 
ATOM     10  C   UNL     1      -4.040   4.670   0.985  0.00  0.00    +0.046 C 
ATOM     11  C   UNL     1      -5.468   4.345   0.524  0.00  0.00    -0.009 C 
ATOM     12  C   UNL     1      -5.841   2.946   1.023  0.00  0.00    +0.008 C 
ATOM     13  C   UNL     1      -5.037   1.891   0.260  0.00  0.00    +0.037 C 
ATOM     14  C   UNL     1      -6.440   5.375   1.102  0.00  0.00    +0.008 C 
BRANCH   6  15
ATOM     15  C   UNL     1      -2.764  -0.083  -0.292  0.00  0.00    +0.244 C 
ATOM     16  O   UNL     1      -2.867  -0.931   0.575  0.00  0.00    -0.270 OA
ATOM     17  N   UNL     1      -2.906  -0.423  -1.588  0.00  0.00    -0.325 N 
ATOM     18  H   UNL     1      -2.824   0.253  -2.279  0.00  0.00    +0.145 HD
ATOM     19  H   UNL     1      -3.092  -1.344  -1.830  0.00  0.00    +0.145 HD
ENDBRANCH   6  15
ENDBRANCH   3   5
BRANCH   1  20
ATOM     20  C   UNL     1       2.472   0.959  -0.091  0.00  0.00    +0.019 C 
BRANCH  20  22
ATOM     21  C   UNL     1       3.688   2.277   1.536  0.00  0.00    -0.095 C 
ATOM     22  N   UNL     1       3.607   1.883   0.113  0.00  0.00    +0.386 N 
ATOM     23  H   UNL     1       3.459   2.724  -0.457  0.00  0.00    -0.081 HD
BRANCH  22  24
ATOM     24  C   UNL     1       4.868   1.236  -0.305  0.00  0.00    -0.039 C 
BRANCH  24  27
ATOM     25  N   UNL     1       7.135   3.952  -1.187  0.00  0.00    -0.269 N 
ATOM     26  C   UNL     1       6.056   3.183  -1.443  0.00  0.00    +0.037 A 
ATOM     27  C   UNL     1       5.935   2.292  -0.433  0.00  0.00    -0.024 A 
ATOM     28  C   UNL     1       6.973   2.527   0.475  0.00  0.00    +0.136 A 
ATOM     29  N   UNL     1       7.696   3.518   0.021  0.00  0.00    -0.179 NA
ATOM     30  C   UNL     1       5.147   3.298  -2.640  0.00  0.00    +0.065 C 
BRANCH  25  32
ATOM     31  C   UNL     1       6.972   6.358  -1.595  0.00  0.00    +0.029 C 
ATOM     32  C   UNL     1       7.632   5.046  -2.025  0.00  0.00    +0.140 C 
ENDBRANCH  25  32
ENDBRANCH  24  27
ENDBRANCH  22  24
ENDBRANCH  20  22
ENDBRANCH   1  20
TORSDOF 7
