REMARK  Name = ZINC03011415
REMARK  8 active torsions:
REMARK  status: ('A' for Active; 'I' for Inactive)
REMARK    1  A    between atoms: C_1  and  O_2
REMARK    2  A    between atoms: O_2  and  C_3
REMARK    3  A    between atoms: C_6  and  N_11
REMARK    4  A    between atoms: C_7  and  O_9
REMARK    5  A    between atoms: O_9  and  C_10
REMARK    6  A    between atoms: C_12  and  C_14
REMARK    7  A    between atoms: C_19  and  C_32
REMARK    8  A    between atoms: C_22  and  C_25
REMARK                            x       y       z     vdW  Elec       q    Type
REMARK                         _______ _______ _______ _____ _____    ______ ____
ROOT
ATOM      1  C   UNL     1      -7.335  -2.547   0.267  0.00  0.00    +0.149 A 
ATOM      2  C   UNL     1      -8.597  -1.922   0.385  0.00  0.00    +0.078 A 
ATOM      3  C   UNL     1      -9.526  -2.894   0.471  0.00  0.00    +0.119 A 
ATOM      4  N   UNL     1      -8.887  -4.100   0.409  0.00  0.00    -0.238 N 
ATOM      5  N   UNL     1      -7.520  -3.855   0.278  0.00  0.00    -0.164 NA
ATOM      6  C   UNL     1      -9.578  -5.391   0.468  0.00  0.00    +0.215 C 
ATOM      7  C   UNL     1     -11.056  -5.178   0.121  0.00  0.00    +0.063 C 
ATOM      8  C   UNL     1     -11.629  -4.029   0.958  0.00  0.00    +0.104 C 
ATOM      9  N   UNL     1     -10.913  -2.788   0.602  0.00  0.00    -0.322 N 
ATOM     10  H   UNL     1     -11.379  -1.947   0.468  0.00  0.00    +0.148 HD
ENDROOT
BRANCH   8  11
ATOM     11  C   UNL     1     -11.437  -4.326   2.423  0.00  0.00    -0.027 A 
ATOM     12  C   UNL     1     -10.212  -4.096   3.021  0.00  0.00    +0.007 A 
ATOM     13  C   UNL     1     -10.036  -4.368   4.364  0.00  0.00    +0.020 A 
ATOM     14  C   UNL     1     -11.086  -4.871   5.111  0.00  0.00    +0.041 A 
ATOM     15  C   UNL     1     -12.312  -5.101   4.513  0.00  0.00    +0.020 A 
ATOM     16  C   UNL     1     -12.489  -4.823   3.170  0.00  0.00    +0.007 A 
ATOM     17 CL   UNL     1     -10.866  -5.213   6.799  0.00  0.00    -0.084 Cl
ENDBRANCH   8  11
BRANCH   1  19
ATOM     18  N   UNL     1      -4.899  -2.575   0.035  0.00  0.00    -0.277 N 
ATOM     19  C   UNL     1      -6.034  -1.857   0.147  0.00  0.00    +0.268 C 
ATOM     20  O   UNL     1      -5.988  -0.642   0.148  0.00  0.00    -0.268 OA
ATOM     21  H   UNL     1      -4.941  -3.540  -0.046  0.00  0.00    +0.155 HD
BRANCH  18  25
ATOM     22  C   UNL     1      -1.199  -0.641   0.044  0.00  0.00    +0.124 A 
ATOM     23  C   UNL     1      -2.297  -0.046   0.648  0.00  0.00    +0.047 A 
ATOM     24  C   UNL     1      -3.521  -0.685   0.646  0.00  0.00    +0.030 A 
ATOM     25  C   UNL     1      -3.656  -1.925   0.038  0.00  0.00    +0.076 A 
ATOM     26  C   UNL     1      -2.555  -2.524  -0.570  0.00  0.00    +0.145 A 
ATOM     27  C   UNL     1      -1.330  -1.878  -0.570  0.00  0.00    +0.093 A 
BRANCH  22  29
ATOM     28  C   UNL     1       0.068   1.262   0.699  0.00  0.00    +0.277 C 
ATOM     29  O   UNL     1       0.005  -0.009   0.048  0.00  0.00    -0.495 OA
ENDBRANCH  22  29
BRANCH  26  30
ATOM     30  O   UNL     1      -2.683  -3.739  -1.166  0.00  0.00    -0.493 OA
ATOM     31  C   UNL     1      -1.512  -4.293  -1.770  0.00  0.00    +0.277 C 
ENDBRANCH  26  30
ENDBRANCH  18  25
ENDBRANCH   1  19
BRANCH   6  32
ATOM     32  C   UNL     1      -8.947  -6.357  -0.537  0.00  0.00    +0.412 C 
ATOM     33  F   UNL     1      -7.596  -6.539  -0.225  0.00  0.00    -0.168 F 
ATOM     34  F   UNL     1      -9.609  -7.588  -0.480  0.00  0.00    -0.168 F 
ATOM     35  F   UNL     1      -9.060  -5.827  -1.827  0.00  0.00    -0.168 F 
ENDBRANCH   6  32
TORSDOF 6
