REMARK  Name = ZINC08915218
REMARK  7 active torsions:
REMARK  status: ('A' for Active; 'I' for Inactive)
REMARK    1  A    between atoms: C_1  and  S_2
REMARK    2  A    between atoms: S_2  and  C_3
REMARK    3  A    between atoms: C_7  and  C_9
REMARK    4  A    between atoms: N_11  and  C_12
REMARK    5  A    between atoms: C_13  and  C_20
REMARK    6  A    between atoms: N_22  and  C_23
REMARK    7  A    between atoms: C_23  and  C_24
REMARK                            x       y       z     vdW  Elec       q    Type
REMARK                         _______ _______ _______ _____ _____    ______ ____
ROOT
ATOM      1  C   UNL     1      -0.342   6.399  -2.780  0.00  0.00    +0.085 A 
ATOM      2  C   UNL     1      -1.364   5.665  -2.202  0.00  0.00    +0.069 A 
ATOM      3  C   UNL     1      -2.455   6.404  -1.569  0.00  0.00    -0.023 A 
ATOM      4  C   UNL     1      -2.346   7.744  -1.626  0.00  0.00    -0.004 A 
ATOM      5  S   UNL     1      -0.827   8.037  -2.499  0.00  0.00    -0.077 S 
ATOM      6  C   UNL     1      -3.504   8.433  -0.958  0.00  0.00    +0.043 C 
ATOM      7  C   UNL     1      -4.591   7.342  -0.839  0.00  0.00    +0.010 C 
ATOM      8  C   UNL     1      -3.743   6.055  -0.822  0.00  0.00    +0.037 C 
ENDROOT
BRANCH   1  11
ATOM      9  C   UNL     1       1.684   6.811  -3.933  0.00  0.00    +0.268 C 
ATOM     10  O   UNL     1       1.495   8.005  -3.819  0.00  0.00    -0.268 OA
ATOM     11  N   UNL     1       0.791   5.936  -3.428  0.00  0.00    -0.274 N 
ATOM     12  H   UNL     1       0.942   4.982  -3.519  0.00  0.00    +0.156 HD
BRANCH   9  17
ATOM     13  C   UNL     1       4.196   4.562  -5.375  0.00  0.00    +0.189 A 
ATOM     14  N   UNL     1       5.099   5.389  -5.885  0.00  0.00    -0.229 NA
ATOM     15  C   UNL     1       4.950   6.699  -5.794  0.00  0.00    +0.131 A 
ATOM     16  C   UNL     1       3.829   7.211  -5.153  0.00  0.00    +0.066 A 
ATOM     17  C   UNL     1       2.897   6.315  -4.627  0.00  0.00    +0.144 A 
ATOM     18  N   UNL     1       3.117   5.008  -4.752  0.00  0.00    -0.216 NA
ATOM     19 BR   UNL     1       3.572   9.078  -4.997  0.00  0.00    -0.046 Br
BRANCH  13  21
ATOM     20  C   UNL     1       6.017   2.807  -6.419  0.00  0.00    +0.093 C 
ATOM     21  S   UNL     1       4.444   2.824  -5.524  0.00  0.00    -0.089 S 
ENDBRANCH  13  21
ENDBRANCH   9  17
ENDBRANCH   1  11
BRANCH   2  22
ATOM     22  C   UNL     1      -1.349   4.199  -2.219  0.00  0.00    +0.247 C 
ATOM     23  O   UNL     1      -1.870   3.596  -3.139  0.00  0.00    -0.270 OA
ATOM     24  N   UNL     1      -0.759   3.519  -1.216  0.00  0.00    -0.309 N 
ATOM     25  H   UNL     1      -0.344   4.000  -0.483  0.00  0.00    +0.149 HD
BRANCH  24  26
ATOM     26  C   UNL     1      -0.745   2.054  -1.233  0.00  0.00    +0.136 C 
BRANCH  26  27
ATOM     27  C   UNL     1      -0.019   1.537   0.011  0.00  0.00    +0.135 C 
ATOM     28  C   UNL     1       0.002  -0.004   0.002  0.00  0.00    +0.035 C 
ATOM     29  C   UNL     1       1.508  -0.363   0.039  0.00  0.00    +0.031 C 
ATOM     30  C   UNL     1       2.138   0.935   0.603  0.00  0.00    +0.160 C 
ATOM     31  O   UNL     1       1.348   1.983  -0.000  0.00  0.00    -0.375 OA
ENDBRANCH  26  27
ENDBRANCH  24  26
ENDBRANCH   2  22
TORSDOF 6
