REMARK  Name = ZINC22264597
REMARK  7 active torsions:
REMARK  status: ('A' for Active; 'I' for Inactive)
REMARK    1  A    between atoms: C_1  and  O_2
REMARK    2  A    between atoms: O_2  and  C_3
REMARK    3  A    between atoms: C_6  and  C_20
REMARK    4  A    between atoms: C_8  and  S_9
REMARK    5  A    between atoms: S_9  and  N_12
REMARK    6  A    between atoms: N_12  and  C_13
REMARK    7  A    between atoms: N_22  and  C_23
REMARK                            x       y       z     vdW  Elec       q    Type
REMARK                         _______ _______ _______ _____ _____    ______ ____
ROOT
ATOM      1  C   UNL     1       0.528  -0.317  -0.675  0.00  0.00    +0.147 A 
ATOM      2  C   UNL     1       1.164   0.613  -1.489  0.00  0.00    +0.048 A 
ATOM      3  C   UNL     1       1.971   0.190  -2.521  0.00  0.00    +0.017 A 
ATOM      4  C   UNL     1       2.150  -1.178  -2.749  0.00  0.00    +0.039 A 
ATOM      5  C   UNL     1       1.510  -2.109  -1.928  0.00  0.00    +0.045 A 
ATOM      6  C   UNL     1       0.708  -1.677  -0.895  0.00  0.00    +0.151 A 
ENDROOT
BRANCH   4   7
ATOM      7  C   UNL     1       3.014  -1.636  -3.855  0.00  0.00    +0.249 C 
ATOM      8  O   UNL     1       3.169  -2.826  -4.052  0.00  0.00    -0.270 OA
ATOM      9  N   UNL     1       3.630  -0.736  -4.646  0.00  0.00    -0.265 N 
ATOM     10  H   UNL     1       3.575   0.210  -4.439  0.00  0.00    +0.157 HD
BRANCH   9  11
ATOM     11  C   UNL     1       4.348  -1.165  -5.763  0.00  0.00    +0.151 A 
ATOM     12  C   UNL     1       5.107  -0.248  -6.490  0.00  0.00    +0.217 A 
ATOM     13  C   UNL     1       5.816  -0.691  -7.599  0.00  0.00    +0.056 A 
ATOM     14  C   UNL     1       5.739  -2.035  -7.939  0.00  0.00    +0.021 A 
ATOM     15  C   UNL     1       4.966  -2.884  -7.172  0.00  0.00    +0.084 A 
ATOM     16  N   UNL     1       4.307  -2.438  -6.120  0.00  0.00    -0.346 N 
ATOM     17  O   UNL     1       5.153   1.059  -6.120  0.00  0.00    -0.284 OA
ATOM     18  H   UNL     1       3.776  -3.058  -5.597  0.00  0.00    +0.167 HD
ENDBRANCH   9  11
ENDBRANCH   4   7
BRANCH   6  19
ATOM     19  S   UNL     1      -0.095  -2.851   0.145  0.00  0.00    +0.076 S 
ATOM     20  O   UNL     1      -1.462  -2.469   0.209  0.00  0.00    -0.150 OA
ATOM     21  O   UNL     1       0.317  -4.137  -0.299  0.00  0.00    -0.150 OA
BRANCH  19  22
ATOM     22  N   UNL     1       0.522  -2.658   1.670  0.00  0.00    -0.216 N 
ATOM     23  H   UNL     1      -0.050  -2.345   2.388  0.00  0.00    +0.174 HD
BRANCH  22  24
ATOM     24  C   UNL     1       1.866  -2.945   1.921  0.00  0.00    +0.048 A 
ATOM     25  C   UNL     1       2.429  -4.119   1.435  0.00  0.00    +0.025 A 
ATOM     26  C   UNL     1       3.758  -4.400   1.685  0.00  0.00    +0.017 A 
ATOM     27  C   UNL     1       4.528  -3.515   2.420  0.00  0.00    +0.018 A 
ATOM     28  C   UNL     1       3.969  -2.346   2.905  0.00  0.00    +0.017 A 
ATOM     29  C   UNL     1       2.643  -2.056   2.652  0.00  0.00    +0.025 A 
ATOM     30 BR   UNL     1       6.346  -3.905   2.761  0.00  0.00    -0.050 Br
ENDBRANCH  22  24
ENDBRANCH  19  22
ENDBRANCH   6  19
BRANCH   1  32
ATOM     31  C   UNL     1      -0.496   1.511   0.445  0.00  0.00    +0.277 C 
ATOM     32  O   UNL     1      -0.266   0.104   0.342  0.00  0.00    -0.493 OA
ENDBRANCH   1  32
TORSDOF 6
