REMARK  Name = ZINC51090094
REMARK  3 active torsions:
REMARK  status: ('A' for Active; 'I' for Inactive)
REMARK    1  A    between atoms: C_3  and  N_9
REMARK    2  A    between atoms: C_10  and  C_12
REMARK    3  A    between atoms: N_18  and  N_19
REMARK                            x       y       z     vdW  Elec       q    Type
REMARK                         _______ _______ _______ _____ _____    ______ ____
ROOT
ATOM      1  N   UNL     1       3.584   2.128  -0.021  0.00  0.00    -0.278 N 
ATOM      2  C   UNL     1       3.567   3.473  -0.116  0.00  0.00    +0.268 C 
ATOM      3  O   UNL     1       2.508   4.070  -0.103  0.00  0.00    -0.268 OA
ATOM      4  H   UNL     1       4.429   1.658   0.049  0.00  0.00    +0.155 HD
ENDROOT
BRANCH   1   7
ATOM      5  C   UNL     1       0.065   1.243  -0.620  0.00  0.00    +0.017 A 
ATOM      6  C   UNL     1       1.250   1.953  -0.618  0.00  0.00    +0.027 A 
ATOM      7  C   UNL     1       2.381   1.411  -0.024  0.00  0.00    +0.069 A 
ATOM      8  C   UNL     1       2.318   0.154   0.568  0.00  0.00    +0.146 A 
ATOM      9  C   UNL     1       1.129  -0.551   0.562  0.00  0.00    +0.055 A 
ATOM     10  C   UNL     1       0.004  -0.007  -0.032  0.00  0.00    +0.021 A 
ATOM     11 BR   UNL     1      -1.621  -0.974  -0.037  0.00  0.00    -0.050 Br
ATOM     12  F   UNL     1       3.417  -0.377   1.146  0.00  0.00    -0.204 F 
ENDBRANCH   1   7
BRANCH   2  13
ATOM     13  C   UNL     1       4.836   4.221  -0.236  0.00  0.00    +0.148 A 
ATOM     14  C   UNL     1       4.821   5.619  -0.329  0.00  0.00    +0.038 A 
ATOM     15  C   UNL     1       6.033   6.275  -0.439  0.00  0.00    +0.049 A 
ATOM     16  C   UNL     1       7.198   5.505  -0.451  0.00  0.00    +0.155 A 
ATOM     17  N   UNL     1       7.117   4.182  -0.358  0.00  0.00    -0.132 NA
ATOM     18  N   UNL     1       5.994   3.571  -0.251  0.00  0.00    -0.143 NA
ATOM     19  N   UNL     1       8.434   6.119  -0.560  0.00  0.00    -0.266 N 
ATOM     20  H   UNL     1       8.492   7.084  -0.628  0.00  0.00    +0.167 HD
BRANCH  19  21
ATOM     21  N   UNL     1       9.573   5.364  -0.572  0.00  0.00    -0.255 NA
ATOM     22  H   UNL     1       9.542   4.675  -1.308  0.00  0.00    +0.140 HD
ATOM     23  H   UNL     1      10.392   5.947  -0.656  0.00  0.00    +0.140 HD
ENDBRANCH  19  21
ENDBRANCH   2  13
TORSDOF 3
