REMARK  Name = ZINC13089074
REMARK  9 active torsions:
REMARK  status: ('A' for Active; 'I' for Inactive)
REMARK    1  A    between atoms: C_1  and  C_2
REMARK    2  A    between atoms: C_6  and  N_9
REMARK    3  A    between atoms: C_7  and  C_8
REMARK    4  A    between atoms: C_10  and  C_12
REMARK    5  A    between atoms: C_12  and  N_13
REMARK    6  A    between atoms: N_16  and  S_19
REMARK    7  A    between atoms: S_19  and  C_22
REMARK    8  A    between atoms: C_25  and  C_28
REMARK    9  A    between atoms: C_29  and  C_30
REMARK                            x       y       z     vdW  Elec       q    Type
REMARK                         _______ _______ _______ _____ _____    ______ ____
ROOT
ATOM      1  N   UNL     1      -0.208  -6.339   3.410  0.00  0.00    -0.291 NA
ATOM      2  C   UNL     1      -1.455  -6.673   2.709  0.00  0.00    +0.102 C 
ATOM      3  C   UNL     1      -1.418  -8.144   2.280  0.00  0.00    +0.125 C 
ATOM      4  N   UNL     1      -1.129  -8.968   3.464  0.00  0.00    -0.174 NA
ATOM      5  C   UNL     1       0.029  -8.610   4.296  0.00  0.00    +0.125 C 
ATOM      6  C   UNL     1      -0.065  -7.120   4.645  0.00  0.00    +0.102 C 
ENDROOT
BRANCH   4   7
ATOM      7  S   UNL     1      -2.083 -10.266   3.849  0.00  0.00    +0.061 S 
ATOM      8  O   UNL     1      -1.925 -10.487   5.243  0.00  0.00    -0.153 OA
ATOM      9  O   UNL     1      -3.352 -10.028   3.254  0.00  0.00    -0.153 OA
BRANCH   7  10
ATOM     10  C   UNL     1      -1.402 -11.673   3.035  0.00  0.00    +0.106 A 
ATOM     11  C   UNL     1      -1.819 -11.998   1.756  0.00  0.00    +0.029 A 
ATOM     12  C   UNL     1      -1.291 -13.097   1.113  0.00  0.00    +0.010 A 
ATOM     13  C   UNL     1      -0.330 -13.884   1.756  0.00  0.00    -0.025 A 
ATOM     14  C   UNL     1       0.086 -13.549   3.049  0.00  0.00    +0.010 A 
ATOM     15  C   UNL     1      -0.448 -12.444   3.676  0.00  0.00    +0.029 A 
BRANCH  13  16
ATOM     16  C   UNL     1       0.238 -15.059   1.078  0.00  0.00    +0.015 C 
ATOM     17  C   UNL     1       1.166 -15.817   1.702  0.00  0.00    +0.096 C 
BRANCH  17  18
ATOM     18  C   UNL     1       1.713 -16.948   1.049  0.00  0.00    +0.380 C 
ATOM     19  O   UNL     1       1.346 -17.239  -0.083  0.00  0.00    -0.241 OA
ATOM     20  O   UNL     1       2.554 -17.635   1.616  0.00  0.00    -0.241 OA
ENDBRANCH  17  18
ENDBRANCH  13  16
ENDBRANCH   7  10
ENDBRANCH   4   7
BRANCH   1  21
ATOM     21  C   UNL     1      -0.129  -4.898   3.686  0.00  0.00    +0.180 C 
BRANCH  21  23
ATOM     22  N   UNL     1       0.052  -2.797   2.393  0.00  0.00    -0.284 N 
ATOM     23  C   UNL     1      -0.031  -4.143   2.385  0.00  0.00    +0.231 C 
ATOM     24  O   UNL     1      -0.028  -4.745   1.333  0.00  0.00    -0.274 OA
ATOM     25  H   UNL     1       0.130  -2.321   3.234  0.00  0.00    +0.155 HD
BRANCH  22  31
ATOM     26  C   UNL     1       1.206   1.236  -0.172  0.00  0.00    +0.044 C 
ATOM     27  C   UNL     1       0.577  -0.131  -0.084  0.00  0.00    -0.046 A 
ATOM     28  C   UNL     1      -0.027  -0.686  -1.198  0.00  0.00    +0.004 A 
ATOM     29  C   UNL     1      -0.605  -1.940  -1.122  0.00  0.00    +0.002 A 
ATOM     30  C   UNL     1      -0.580  -2.642   0.067  0.00  0.00    +0.023 A 
ATOM     31  C   UNL     1       0.026  -2.088   1.187  0.00  0.00    +0.037 A 
ATOM     32  C   UNL     1       0.610  -0.831   1.106  0.00  0.00    -0.026 A 
ATOM     33  C   UNL     1       1.274  -0.228   2.317  0.00  0.00    +0.046 C 
ENDBRANCH  22  31
ENDBRANCH  21  23
ENDBRANCH   1  21
TORSDOF 7
