REMARK  Name = ZINC41078040
REMARK  12 active torsions:
REMARK  status: ('A' for Active; 'I' for Inactive)
REMARK    1  A    between atoms: C_1  and  N_2
REMARK    2  A    between atoms: N_2  and  C_3
REMARK    3  A    between atoms: C_6  and  N_13
REMARK    4  A    between atoms: N_10  and  C_11
REMARK    5  A    between atoms: N_10  and  C_12
REMARK    6  A    between atoms: N_13  and  N_14
REMARK    7  A    between atoms: C_15  and  C_16
REMARK    8  A    between atoms: N_18  and  C_25
REMARK    9  A    between atoms: C_25  and  C_26
REMARK   10  A    between atoms: C_26  and  O_27
REMARK   11  A    between atoms: O_27  and  C_28
REMARK   12  A    between atoms: C_31  and  C_34
REMARK                            x       y       z     vdW  Elec       q    Type
REMARK                         _______ _______ _______ _____ _____    ______ ____
ROOT
ATOM      1  C   UNL     1       0.240  -1.014  -8.395  0.00  0.00    +0.020 A 
ATOM      2  C   UNL     1       0.324  -0.526  -9.662  0.00  0.00    +0.096 A 
ATOM      3  N   UNL     1       0.286  -1.557 -10.555  0.00  0.00    -0.343 N 
ATOM      4  C   UNL     1       0.175  -2.760  -9.890  0.00  0.00    +0.050 A 
ATOM      5  C   UNL     1       0.147  -2.480  -8.514  0.00  0.00    +0.008 A 
ATOM      6  C   UNL     1       0.046  -3.519  -7.591  0.00  0.00    +0.010 A 
ATOM      7  C   UNL     1      -0.024  -4.821  -8.036  0.00  0.00    +0.001 A 
ATOM      8  C   UNL     1       0.007  -5.099  -9.395  0.00  0.00    +0.002 A 
ATOM      9  C   UNL     1       0.098  -4.081 -10.319  0.00  0.00    +0.026 A 
ENDROOT
BRANCH   1  11
ATOM     10  N   UNL     1       0.165  -0.834  -6.002  0.00  0.00    -0.189 NA
ATOM     11  C   UNL     1       0.246  -0.230  -7.149  0.00  0.00    +0.140 C 
BRANCH  10  12
ATOM     12  N   UNL     1       0.171  -0.088  -4.815  0.00  0.00    -0.222 N 
ATOM     13  H   UNL     1       0.236   0.879  -4.851  0.00  0.00    +0.176 HD
BRANCH  12  19
ATOM     14  C   UNL     1      -0.018   1.461   0.010  0.00  0.00    +0.130 C 
ATOM     15  N   UNL     1       0.002  -0.004   0.002  0.00  0.00    -0.321 N 
ATOM     16  C   UNL     1       0.024  -0.743   1.267  0.00  0.00    +0.130 C 
ATOM     17  C   UNL     1       0.000  -0.691  -1.202  0.00  0.00    +0.128 A 
ATOM     18  C   UNL     1       0.090  -0.000  -2.408  0.00  0.00    +0.087 A 
ATOM     19  C   UNL     1       0.084  -0.732  -3.592  0.00  0.00    +0.121 A 
ATOM     20  N   UNL     1      -0.006  -2.060  -3.533  0.00  0.00    -0.315 N 
ATOM     21  C   UNL     1      -0.090  -2.683  -2.368  0.00  0.00    +0.198 A 
ATOM     22  N   UNL     1      -0.082  -2.019  -1.221  0.00  0.00    -0.201 NA
ATOM     23  N   UNL     1      -0.182  -4.063  -2.346  0.00  0.00    -0.307 N 
ATOM     24  C   UNL     1      -0.186  -4.816  -3.603  0.00  0.00    +0.132 C 
ATOM     25  C   UNL     1      -0.276  -4.772  -1.067  0.00  0.00    +0.132 C 
ATOM     26  H   UNL     1      -0.010  -2.577  -4.354  0.00  0.00    +0.170 HD
ENDBRANCH  12  19
ENDBRANCH  10  12
ENDBRANCH   1  11
BRANCH   3  27
ATOM     27  C   UNL     1       0.353  -1.408 -12.010  0.00  0.00    +0.163 C 
BRANCH  27  28
ATOM     28  C   UNL     1      -1.064  -1.379 -12.586  0.00  0.00    +0.250 C 
BRANCH  28  29
ATOM     29  O   UNL     1      -0.999  -1.233 -14.006  0.00  0.00    -0.490 OA
BRANCH  29  30
ATOM     30  C   UNL     1      -2.180  -1.190 -14.677  0.00  0.00    +0.121 A 
ATOM     31  C   UNL     1      -3.377  -1.280 -13.982  0.00  0.00    +0.046 A 
ATOM     32  C   UNL     1      -4.577  -1.236 -14.666  0.00  0.00    +0.007 A 
ATOM     33  C   UNL     1      -4.584  -1.101 -16.043  0.00  0.00    -0.044 A 
ATOM     34  C   UNL     1      -3.392  -1.012 -16.737  0.00  0.00    +0.007 A 
ATOM     35  C   UNL     1      -2.190  -1.050 -16.057  0.00  0.00    +0.046 A 
BRANCH  33  36
ATOM     36  C   UNL     1      -5.894  -1.053 -16.786  0.00  0.00    +0.019 C 
ATOM     37  C   UNL     1      -5.957  -2.213 -17.783  0.00  0.00    +0.008 C 
ATOM     38  C   UNL     1      -7.287  -2.164 -18.538  0.00  0.00    +0.001 C 
ATOM     39  C   UNL     1      -7.397  -0.837 -19.292  0.00  0.00    +0.000 C 
ATOM     40  C   UNL     1      -7.334   0.322 -18.295  0.00  0.00    +0.001 C 
ATOM     41  C   UNL     1      -6.004   0.274 -17.540  0.00  0.00    +0.008 C 
ENDBRANCH  33  36
ENDBRANCH  29  30
ENDBRANCH  28  29
ENDBRANCH  27  28
ENDBRANCH   3  27
TORSDOF 8
