REMARK  Name = ZINC14668386
REMARK  12 active torsions:
REMARK  status: ('A' for Active; 'I' for Inactive)
REMARK    1  A    between atoms: C_1  and  C_2
REMARK    2  A    between atoms: C_2  and  O_3
REMARK    3  A    between atoms: O_3  and  C_4
REMARK    4  A    between atoms: C_4  and  C_6
REMARK    5  A    between atoms: C_10  and  N_11
REMARK    6  A    between atoms: N_11  and  C_12
REMARK    7  A    between atoms: C_12  and  N_14
REMARK    8  A    between atoms: C_15  and  C_17
REMARK    9  A    between atoms: C_22  and  O_23
REMARK   10  A    between atoms: O_23  and  C_24
REMARK   11  A    between atoms: C_24  and  C_25
REMARK   12  A    between atoms: C_24  and  C_26
REMARK                            x       y       z     vdW  Elec       q    Type
REMARK                         _______ _______ _______ _____ _____    ______ ____
ROOT
ATOM      1  C   UNL     1      -1.065  -0.712   0.213  0.00  0.00    +0.141 C 
ATOM      2  S   UNL     1      -2.544   0.101   0.501  0.00  0.00    -0.018 S 
ENDROOT
BRANCH   1   3
ATOM      3  N   UNL     1       0.062  -0.004   0.000  0.00  0.00    -0.263 N 
ATOM      4  C   UNL     1       0.025   1.343   0.015  0.00  0.00    +0.253 C 
ATOM      5  O   UNL     1      -1.026   1.920   0.214  0.00  0.00    -0.270 OA
ATOM      6  H   UNL     1       0.900  -0.465  -0.163  0.00  0.00    +0.157 HD
BRANCH   4   7
ATOM      7  C   UNL     1       1.258   2.117  -0.218  0.00  0.00    +0.080 A 
ATOM      8  C   UNL     1       2.469   1.458  -0.447  0.00  0.00    +0.032 A 
ATOM      9  C   UNL     1       3.618   2.187  -0.669  0.00  0.00    +0.019 A 
ATOM     10  C   UNL     1       3.579   3.573  -0.654  0.00  0.00    +0.019 A 
ATOM     11  C   UNL     1       2.391   4.236  -0.423  0.00  0.00    +0.047 A 
ATOM     12  C   UNL     1       1.225   3.518  -0.204  0.00  0.00    +0.133 A 
ATOM     13 BR   UNL     1       5.254   1.294  -0.987  0.00  0.00    -0.050 Br
BRANCH  12  14
ATOM     14  O   UNL     1       0.056   4.169   0.024  0.00  0.00    -0.489 OA
BRANCH  14  15
ATOM     15  C   UNL     1       0.119   5.592   0.142  0.00  0.00    +0.167 C 
ATOM     16  C   UNL     1       0.064   6.222  -1.250  0.00  0.00    +0.051 C 
ATOM     17  C   UNL     1      -1.067   6.087   0.973  0.00  0.00    +0.051 C 
ENDBRANCH  14  15
ENDBRANCH  12  14
ENDBRANCH   4   7
ENDBRANCH   1   3
BRANCH   1  18
ATOM     18  N   UNL     1      -1.028  -2.059   0.199  0.00  0.00    -0.290 N 
ATOM     19  H   UNL     1      -0.190  -2.519   0.035  0.00  0.00    +0.154 HD
BRANCH  18  24
ATOM     20  C   UNL     1      -2.349  -4.162   0.435  0.00  0.00    +0.091 A 
ATOM     21  C   UNL     1      -3.693  -4.681   0.694  0.00  0.00    -0.021 A 
ATOM     22  C   UNL     1      -4.640  -3.745   0.881  0.00  0.00    -0.004 A 
ATOM     23  S   UNL     1      -3.784  -2.197   0.726  0.00  0.00    -0.077 S 
ATOM     24  C   UNL     1      -2.187  -2.786   0.417  0.00  0.00    +0.086 A 
ATOM     25  C   UNL     1      -5.992  -4.354   1.139  0.00  0.00    +0.043 C 
ATOM     26  C   UNL     1      -5.691  -5.821   1.519  0.00  0.00    +0.010 C 
ATOM     27  C   UNL     1      -4.344  -6.060   0.809  0.00  0.00    +0.037 C 
BRANCH  20  28
ATOM     28  C   UNL     1      -1.218  -5.063   0.207  0.00  0.00    +0.342 C 
ATOM     29  O   UNL     1      -0.549  -5.448   1.147  0.00  0.00    -0.245 OA
BRANCH  28  30
ATOM     30  O   UNL     1      -0.919  -5.467  -1.045  0.00  0.00    -0.461 OA
BRANCH  30  32
ATOM     31  C   UNL     1       0.399  -6.706  -2.675  0.00  0.00    +0.048 C 
ATOM     32  C   UNL     1       0.215  -6.360  -1.196  0.00  0.00    +0.229 C 
ENDBRANCH  30  32
ENDBRANCH  28  30
ENDBRANCH  20  28
ENDBRANCH  18  24
ENDBRANCH   1  18
TORSDOF 9
