REMARK  Name = ZINC09404669
REMARK  7 active torsions:
REMARK  status: ('A' for Active; 'I' for Inactive)
REMARK    1  A    between atoms: C_8  and  C_10
REMARK    2  A    between atoms: C_13  and  N_16
REMARK    3  A    between atoms: N_16  and  C_17
REMARK    4  A    between atoms: C_17  and  N_19
REMARK    5  A    between atoms: C_20  and  C_22
REMARK    6  A    between atoms: C_25  and  S_28
REMARK    7  A    between atoms: S_28  and  N_31
REMARK                            x       y       z     vdW  Elec       q    Type
REMARK                         _______ _______ _______ _____ _____    ______ ____
ROOT
ATOM      1  C   UNL     1      -3.773   4.783   6.356  0.00  0.00    +0.141 C 
ATOM      2  S   UNL     1      -5.120   3.844   6.839  0.00  0.00    -0.018 S 
ENDROOT
BRANCH   1   3
ATOM      3  N   UNL     1      -3.071   4.438   5.258  0.00  0.00    -0.264 N 
ATOM      4  C   UNL     1      -3.429   3.354   4.542  0.00  0.00    +0.250 C 
ATOM      5  O   UNL     1      -4.385   2.688   4.885  0.00  0.00    -0.270 OA
ATOM      6  H   UNL     1      -2.307   4.970   4.984  0.00  0.00    +0.157 HD
BRANCH   4   7
ATOM      7  C   UNL     1      -2.659   2.976   3.338  0.00  0.00    +0.037 A 
ATOM      8  C   UNL     1      -3.027   1.854   2.594  0.00  0.00    +0.015 A 
ATOM      9  C   UNL     1      -2.304   1.508   1.471  0.00  0.00    +0.029 A 
ATOM     10  C   UNL     1      -1.216   2.269   1.083  0.00  0.00    +0.106 A 
ATOM     11  C   UNL     1      -0.842   3.379   1.820  0.00  0.00    +0.029 A 
ATOM     12  C   UNL     1      -1.560   3.740   2.941  0.00  0.00    +0.015 A 
BRANCH  10  13
ATOM     13  S   UNL     1      -0.297   1.819  -0.352  0.00  0.00    +0.061 S 
ATOM     14  O   UNL     1      -0.512   0.429  -0.552  0.00  0.00    -0.153 OA
ATOM     15  O   UNL     1       1.001   2.374  -0.194  0.00  0.00    -0.153 OA
BRANCH  13  16
ATOM     16  N   UNL     1      -0.991   2.595  -1.640  0.00  0.00    -0.177 NA
ATOM     17  C   UNL     1      -2.071   2.061  -2.482  0.00  0.00    +0.109 C 
ATOM     18  C   UNL     1      -2.373   3.118  -3.565  0.00  0.00    +0.018 C 
ATOM     19  C   UNL     1      -1.058   3.939  -3.623  0.00  0.00    +0.018 C 
ATOM     20  C   UNL     1      -0.622   3.934  -2.136  0.00  0.00    +0.109 C 
ENDBRANCH  13  16
ENDBRANCH  10  13
ENDBRANCH   4   7
ENDBRANCH   1   3
BRANCH   1  21
ATOM     21  N   UNL     1      -3.415   5.866   7.072  0.00  0.00    -0.297 N 
ATOM     22  H   UNL     1      -2.606   6.351   6.846  0.00  0.00    +0.154 HD
BRANCH  21  26
ATOM     23  C   UNL     1      -5.782   7.133  10.258  0.00  0.00    +0.037 A 
ATOM     24  C   UNL     1      -4.391   7.127  10.380  0.00  0.00    +0.015 A 
ATOM     25  C   UNL     1      -3.611   6.707   9.325  0.00  0.00    +0.024 A 
ATOM     26  C   UNL     1      -4.208   6.291   8.139  0.00  0.00    +0.033 A 
ATOM     27  C   UNL     1      -5.593   6.301   8.014  0.00  0.00    +0.024 A 
ATOM     28  C   UNL     1      -6.379   6.714   9.066  0.00  0.00    +0.015 A 
BRANCH  23  36
ATOM     29  C   UNL     1      -9.729   8.814  14.413  0.00  0.00    +0.002 A 
ATOM     30  C   UNL     1      -8.592   9.052  15.171  0.00  0.00    +0.004 A 
ATOM     31  C   UNL     1      -7.339   8.813  14.647  0.00  0.00    +0.048 A 
ATOM     32  C   UNL     1      -7.211   8.330  13.354  0.00  0.00    +0.156 A 
ATOM     33  C   UNL     1      -8.359   8.087  12.583  0.00  0.00    +0.110 A 
ATOM     34  C   UNL     1      -9.622   8.335  13.127  0.00  0.00    +0.031 A 
ATOM     35  N   UNL     1      -7.930   7.627  11.379  0.00  0.00    -0.209 NA
ATOM     36  C   UNL     1      -6.622   7.582  11.388  0.00  0.00    +0.228 A 
ATOM     37  O   UNL     1      -6.154   7.999  12.580  0.00  0.00    -0.435 OA
ENDBRANCH  23  36
ENDBRANCH  21  26
ENDBRANCH   1  21
TORSDOF 7
