REMARK  Name = ZINC23065123
REMARK  6 active torsions:
REMARK  status: ('A' for Active; 'I' for Inactive)
REMARK    1  A    between atoms: C_3  and  C_13
REMARK    2  A    between atoms: C_6  and  C_7
REMARK    3  A    between atoms: C_13  and  O_15
REMARK    4  A    between atoms: O_15  and  C_16
REMARK    5  A    between atoms: C_16  and  C_17
REMARK    6  A    between atoms: N_22  and  C_23
REMARK                            x       y       z     vdW  Elec       q    Type
REMARK                         _______ _______ _______ _____ _____    ______ ____
ROOT
ATOM      1  C   UNL     1       4.832  -4.006   0.226  0.00  0.00    +0.258 C 
ATOM      2  O   UNL     1       3.790  -4.627   0.235  0.00  0.00    -0.272 OA
ATOM      3  N   UNL     1       4.814  -2.662   0.133  0.00  0.00    -0.237 N 
ATOM      4  C   UNL     1       3.639  -2.008   0.049  0.00  0.00    +0.310 C 
ATOM      5  O   UNL     1       2.595  -2.630   0.058  0.00  0.00    -0.252 OA
ATOM      6  N   UNL     1       3.622  -0.663  -0.045  0.00  0.00    -0.269 N 
ATOM      7  H   UNL     1       5.759  -2.099   0.124  0.00  0.00    +0.159 HD
ATOM      8  H   UNL     1       4.565  -0.106  -0.141  0.00  0.00    +0.156 HD
ENDROOT
BRANCH   6   9
ATOM      9  C   UNL     1       2.401   0.025  -0.019  0.00  0.00    +0.038 A 
ATOM     10  C   UNL     1       1.346  -0.460   0.741  0.00  0.00    +0.027 A 
ATOM     11  C   UNL     1       0.142   0.218   0.766  0.00  0.00    +0.051 A 
ATOM     12  C   UNL     1      -0.016   1.384   0.032  0.00  0.00    +0.162 A 
ATOM     13  C   UNL     1       1.040   1.873  -0.728  0.00  0.00    +0.164 A 
ATOM     14  C   UNL     1       2.247   1.192  -0.754  0.00  0.00    +0.072 A 
ATOM     15  O   UNL     1       0.906   3.021  -1.448  0.00  0.00    -0.485 OA
ATOM     16  C   UNL     1      -0.429   3.474  -1.696  0.00  0.00    +0.270 C 
ATOM     17  C   UNL     1      -1.215   3.396  -0.380  0.00  0.00    +0.270 C 
ATOM     18  O   UNL     1      -1.212   2.034   0.062  0.00  0.00    -0.485 OA
ENDBRANCH   6   9
BRANCH   1  19
ATOM     19  C   UNL     1       6.146  -4.738   0.320  0.00  0.00    +0.328 C 
BRANCH  19  20
ATOM     20  O   UNL     1       5.899  -6.166   0.411  0.00  0.00    -0.452 OA
BRANCH  20  21
ATOM     21  C   UNL     1       6.977  -6.969   0.501  0.00  0.00    +0.340 C 
ATOM     22  O   UNL     1       8.093  -6.489   0.504  0.00  0.00    -0.245 OA
BRANCH  21  25
ATOM     23  C   UNL     1       7.748 -10.633   0.781  0.00  0.00    +0.006 A 
ATOM     24  C   UNL     1       7.918  -9.267   0.691  0.00  0.00    +0.015 A 
ATOM     25  C   UNL     1       6.803  -8.432   0.597  0.00  0.00    +0.059 A 
ATOM     26  C   UNL     1       5.521  -8.987   0.600  0.00  0.00    +0.015 A 
ATOM     27  C   UNL     1       5.366 -10.355   0.684  0.00  0.00    +0.006 A 
ATOM     28  C   UNL     1       6.476 -11.177   0.777  0.00  0.00    -0.025 A 
BRANCH  28  29
ATOM     29  C   UNL     1       6.298 -12.670   0.875  0.00  0.00    +0.133 C 
ATOM     30  S   UNL     1       5.408 -13.274  -0.589  0.00  0.00    -0.142 S 
ATOM     31  C   UNL     1       5.173 -15.040  -0.251  0.00  0.00    +0.071 C 
ATOM     32  C   UNL     1       4.317 -15.224   0.998  0.00  0.00    +0.021 C 
ATOM     33  C   UNL     1       5.105 -14.868   2.253  0.00  0.00    +0.071 C 
ATOM     34  S   UNL     1       5.328 -13.071   2.358  0.00  0.00    -0.142 S 
ENDBRANCH  28  29
ENDBRANCH  21  25
ENDBRANCH  20  21
ENDBRANCH  19  20
ENDBRANCH   1  19
TORSDOF 6
