REMARK  Name = ZINC45891710
REMARK  5 active torsions:
REMARK  status: ('A' for Active; 'I' for Inactive)
REMARK    1  A    between atoms: C_1  and  C_2
REMARK    2  A    between atoms: N_5  and  C_8
REMARK    3  A    between atoms: C_10  and  N_16
REMARK    4  A    between atoms: C_13  and  N_14
REMARK    5  A    between atoms: C_17  and  C_19
REMARK                            x       y       z     vdW  Elec       q    Type
REMARK                         _______ _______ _______ _____ _____    ______ ____
ROOT
ATOM      1  C   UNL     1      -1.099  -3.498   1.959  0.00  0.00    +0.052 A 
ATOM      2  C   UNL     1      -0.934  -4.854   1.723  0.00  0.00    +0.049 A 
ATOM      3  C   UNL     1      -1.429  -5.781   2.630  0.00  0.00    +0.054 A 
ATOM      4  C   UNL     1      -2.090  -5.350   3.773  0.00  0.00    +0.064 A 
ATOM      5  C   UNL     1      -2.257  -3.998   4.010  0.00  0.00    +0.046 A 
ATOM      6  C   UNL     1      -1.758  -3.069   3.110  0.00  0.00    +0.047 A 
ATOM      7 CL   UNL     1      -2.709  -6.511   4.906  0.00  0.00    -0.082 Cl
ENDROOT
BRANCH   1  12
ATOM      8  C   UNL     1      -0.060   1.516  -0.047  0.00  0.00    +0.007 C 
ATOM      9  C   UNL     1      -0.032  -0.014  -0.045  0.00  0.00    -0.011 C 
ATOM     10  C   UNL     1      -1.466  -0.550  -0.032  0.00  0.00    +0.022 C 
ATOM     11  C   UNL     1      -1.434  -2.081  -0.066  0.00  0.00    +0.105 C 
ATOM     12  N   UNL     1      -0.600  -2.562   1.045  0.00  0.00    -0.328 N 
ATOM     13  C   UNL     1       0.767  -2.040   1.179  0.00  0.00    +0.105 C 
ATOM     14  C   UNL     1       0.711  -0.509   1.198  0.00  0.00    +0.022 C 
ENDBRANCH   1  12
BRANCH   3  15
ATOM     15  N   UNL     1      -1.263  -7.152   2.392  0.00  0.00    -0.284 N 
ATOM     16  C   UNL     1      -0.248  -7.583   1.617  0.00  0.00    +0.214 C 
ATOM     17  O   UNL     1       0.580  -6.796   1.208  0.00  0.00    -0.276 OA
ATOM     18  C   UNL     1      -0.141  -9.043   1.258  0.00  0.00    +0.109 C 
ATOM     19  H   UNL     1      -1.878  -7.791   2.784  0.00  0.00    +0.155 HD
ENDBRANCH   3  15
BRANCH   6  20
ATOM     20  N   UNL     1      -1.922  -1.698   3.354  0.00  0.00    -0.356 N 
ATOM     21  H   UNL     1      -1.577  -1.048   2.722  0.00  0.00    +0.142 HD
ATOM     22  H   UNL     1      -2.380  -1.399   4.155  0.00  0.00    +0.142 HD
ENDBRANCH   6  20
TORSDOF 3
