REMARK  Name = ZINC13132644
REMARK  5 active torsions:
REMARK  status: ('A' for Active; 'I' for Inactive)
REMARK    1  A    between atoms: C_6  and  S_11
REMARK    2  A    between atoms: S_11  and  N_14
REMARK    3  A    between atoms: N_14  and  C_15
REMARK    4  A    between atoms: C_19  and  S_24
REMARK    5  A    between atoms: S_24  and  N_27
REMARK                            x       y       z     vdW  Elec       q    Type
REMARK                         _______ _______ _______ _____ _____    ______ ____
ROOT
ATOM      1  C   UNL     1       6.860  -3.715   1.804  0.00  0.00    +0.202 A 
ATOM      2  N   UNL     1       7.375  -4.002   2.978  0.00  0.00    -0.222 NA
ATOM      3  C   UNL     1       8.553  -4.648   3.114  0.00  0.00    +0.082 A 
ATOM      4  C   UNL     1       9.214  -5.016   4.309  0.00  0.00    +0.058 A 
ATOM      5  C   UNL     1      10.417  -5.673   4.271  0.00  0.00    +0.115 A 
ATOM      6  C   UNL     1      11.026  -6.000   3.068  0.00  0.00    +0.030 A 
ATOM      7  C   UNL     1      10.407  -5.655   1.880  0.00  0.00    +0.019 A 
ATOM      8  C   UNL     1       9.203  -4.997   1.909  0.00  0.00    +0.041 A 
ATOM      9  S   UNL     1       8.077  -4.383   0.679  0.00  0.00    -0.049 S 
ENDROOT
BRANCH   5  10
ATOM     10  S   UNL     1      11.207  -6.111   5.783  0.00  0.00    +0.100 S 
ATOM     11  O   UNL     1      12.592  -6.240   5.496  0.00  0.00    -0.146 OA
ATOM     12  O   UNL     1      10.713  -5.219   6.773  0.00  0.00    -0.146 OA
BRANCH  10  13
ATOM     13  N   UNL     1      10.667  -7.621   6.197  0.00  0.00    -0.118 NA
ATOM     14  C   UNL     1      11.095  -8.187   7.279  0.00  0.00    +0.117 C 
ATOM     15  N   UNL     1      12.012  -7.540   8.122  0.00  0.00    -0.331 N 
ATOM     16  C   UNL     1      11.538  -7.130   9.412  0.00  0.00    +0.102 C 
ATOM     17  C   UNL     1      11.662  -8.173  10.535  0.00  0.00    +0.019 C 
ATOM     18  C   UNL     1      11.272  -9.579  10.013  0.00  0.00    +0.002 C 
ATOM     19  C   UNL     1      10.085  -9.554   9.091  0.00  0.00    +0.008 C 
ATOM     20  C   UNL     1      10.640  -9.506   7.665  0.00  0.00    +0.073 C 
ATOM     21  H   UNL     1      12.927  -7.379   7.845  0.00  0.00    +0.147 HD
ENDBRANCH  10  13
ENDBRANCH   5  10
BRANCH   1  22
ATOM     22  N   UNL     1       5.677  -3.066   1.513  0.00  0.00    -0.070 NA
BRANCH  22  23
ATOM     23  S   UNL     1       5.231  -2.823  -0.063  0.00  0.00    +0.093 S 
ATOM     24  O   UNL     1       4.984  -4.107  -0.618  0.00  0.00    -0.148 OA
ATOM     25  O   UNL     1       6.181  -1.923  -0.619  0.00  0.00    -0.148 OA
BRANCH  23  31
ATOM     26  C   UNL     1      -0.016   1.357   0.009  0.00  0.00    +0.001 A 
ATOM     27  C   UNL     1       1.169   2.091   0.002  0.00  0.00    +0.001 A 
ATOM     28  C   UNL     1       2.378   1.468  -0.013  0.00  0.00    +0.008 A 
ATOM     29  C   UNL     1       2.438   0.063  -0.021  0.00  0.00    -0.016 A 
ATOM     30  C   UNL     1       3.668  -0.615  -0.036  0.00  0.00    +0.037 A 
ATOM     31  C   UNL     1       3.687  -1.976  -0.043  0.00  0.00    +0.111 A 
ATOM     32  C   UNL     1       2.502  -2.710  -0.036  0.00  0.00    +0.029 A 
ATOM     33  C   UNL     1       1.292  -2.087  -0.021  0.00  0.00    +0.010 A 
ATOM     34  C   UNL     1       1.233  -0.683  -0.013  0.00  0.00    -0.018 A 
ATOM     35  C   UNL     1       0.002  -0.004   0.002  0.00  0.00    +0.008 A 
ENDBRANCH  23  31
ENDBRANCH  22  23
ENDBRANCH   1  22
TORSDOF 5
