REMARK  Name = ZINC45606769
REMARK  8 active torsions:
REMARK  status: ('A' for Active; 'I' for Inactive)
REMARK    1  A    between atoms: C_1  and  C_2
REMARK    2  A    between atoms: C_2  and  C_4
REMARK    3  A    between atoms: C_2  and  N_15
REMARK    4  A    between atoms: N_6  and  C_7
REMARK    5  A    between atoms: N_18  and  C_21
REMARK    6  A    between atoms: C_21  and  C_22
REMARK    7  A    between atoms: N_24  and  C_25
REMARK    8  A    between atoms: C_25  and  C_26
REMARK                            x       y       z     vdW  Elec       q    Type
REMARK                         _______ _______ _______ _____ _____    ______ ____
ROOT
ATOM      1  N   UNL     1       1.067  -0.701   0.655  0.00  0.00    +0.389 N 
ATOM      2  C   UNL     1       2.393  -0.084   0.519  0.00  0.00    -0.062 C 
ATOM      3  C   UNL     1       3.437  -0.960   1.214  0.00  0.00    +0.066 C 
ATOM      4  N   UNL     1       3.435  -2.297   0.605  0.00  0.00    -0.298 NA
ATOM      5  C   UNL     1       2.107  -2.918   0.712  0.00  0.00    +0.066 C 
ATOM      6  C   UNL     1       1.074  -2.026   0.021  0.00  0.00    -0.062 C 
ATOM      7  H   UNL     1       0.841  -0.798   1.634  0.00  0.00    -0.081 HD
ENDROOT
BRANCH   1   9
ATOM      8  C   UNL     1       0.107   1.551   0.612  0.00  0.00    -0.004 C 
ATOM      9  C   UNL     1       0.062   0.149   0.003  0.00  0.00    +0.017 C 
BRANCH   9  10
ATOM     10  C   UNL     1      -1.308  -0.445   0.209  0.00  0.00    +0.203 C 
ATOM     11  O   UNL     1      -1.532  -1.128   1.186  0.00  0.00    -0.277 OA
ATOM     12  N   UNL     1      -2.284  -0.216  -0.692  0.00  0.00    -0.286 N 
ATOM     13  H   UNL     1      -2.087   0.268  -1.508  0.00  0.00    +0.155 HD
BRANCH  12  14
ATOM     14  C   UNL     1      -3.583  -0.678  -0.449  0.00  0.00    +0.047 A 
ATOM     15  C   UNL     1      -3.980  -0.989   0.845  0.00  0.00    +0.025 A 
ATOM     16  C   UNL     1      -5.262  -1.444   1.082  0.00  0.00    +0.017 A 
ATOM     17  C   UNL     1      -6.152  -1.590   0.032  0.00  0.00    +0.019 A 
ATOM     18  C   UNL     1      -5.759  -1.282  -1.258  0.00  0.00    +0.032 A 
ATOM     19  C   UNL     1      -4.480  -0.820  -1.500  0.00  0.00    +0.040 A 
ATOM     20 BR   UNL     1      -3.946  -0.390  -3.263  0.00  0.00    -0.048 Br
ATOM     21 BR   UNL     1      -7.906  -2.214   0.361  0.00  0.00    -0.050 Br
ENDBRANCH  12  14
ENDBRANCH   9  10
ENDBRANCH   1   9
BRANCH   4  22
ATOM     22  C   UNL     1       4.466  -3.152   1.209  0.00  0.00    +0.180 C 
BRANCH  22  23
ATOM     23  C   UNL     1       4.602  -4.419   0.404  0.00  0.00    +0.227 C 
ATOM     24  O   UNL     1       3.909  -4.593  -0.576  0.00  0.00    -0.274 OA
ATOM     25  N   UNL     1       5.495  -5.359   0.774  0.00  0.00    -0.311 N 
ATOM     26  H   UNL     1       6.049  -5.220   1.557  0.00  0.00    +0.149 HD
BRANCH  25  27
ATOM     27  C   UNL     1       5.627  -6.591  -0.009  0.00  0.00    +0.131 C 
BRANCH  27  28
ATOM     28  C   UNL     1       6.684  -7.468   0.611  0.00  0.00    -0.016 C 
ATOM     29  C   UNL     1       6.398  -8.701   0.947  0.00  0.00    +0.005 C 
ENDBRANCH  27  28
ENDBRANCH  25  27
ENDBRANCH  22  23
ENDBRANCH   4  22
TORSDOF 7
