REMARK  Name = ZINC24094876
REMARK  8 active torsions:
REMARK  status: ('A' for Active; 'I' for Inactive)
REMARK    1  A    between atoms: C_1  and  C_2
REMARK    2  A    between atoms: C_2  and  C_3
REMARK    3  A    between atoms: C_3  and  C_4
REMARK    4  A    between atoms: C_4  and  C_5
REMARK    5  A    between atoms: C_5  and  C_26
REMARK    6  A    between atoms: N_8  and  C_12
REMARK    7  A    between atoms: C_12  and  C_13
REMARK    8  A    between atoms: N_18  and  C_19
REMARK                            x       y       z     vdW  Elec       q    Type
REMARK                         _______ _______ _______ _____ _____    ______ ____
ROOT
ATOM      1  C   UNL     1      -2.549   3.866   0.046  0.00  0.00    +0.138 C 
ATOM      2  C   UNL     1      -2.963   4.240  -1.364  0.00  0.00    +0.251 C 
ATOM      3  O   UNL     1      -3.187   3.486  -2.286  0.00  0.00    -0.272 OA
ATOM      4  N   UNL     1      -3.030   5.586  -1.378  0.00  0.00    -0.215 N 
ATOM      5  C   UNL     1      -2.720   6.108  -0.187  0.00  0.00    +0.310 C 
ATOM      6  O   UNL     1      -2.710   7.301   0.046  0.00  0.00    -0.252 OA
ATOM      7  N   UNL     1      -2.419   5.166   0.725  0.00  0.00    -0.281 N 
ATOM      8  H   UNL     1      -2.123   5.206   1.784  0.00  0.00    +0.152 HD
ENDROOT
BRANCH   1   9
ATOM      9  C   UNL     1      -1.230   3.138   0.035  0.00  0.00    -0.015 A 
ATOM     10  C   UNL     1      -1.202   1.756   0.023  0.00  0.00    +0.006 A 
ATOM     11  C   UNL     1       0.009   1.089   0.019  0.00  0.00    +0.000 A 
ATOM     12  C   UNL     1       1.192   1.804   0.016  0.00  0.00    +0.000 A 
ATOM     13  C   UNL     1       1.164   3.186   0.022  0.00  0.00    +0.000 A 
ATOM     14  C   UNL     1      -0.046   3.853   0.031  0.00  0.00    +0.006 A 
ENDBRANCH   1   9
BRANCH   1  15
ATOM     15  C   UNL     1      -3.627   3.013   0.718  0.00  0.00    +0.040 C 
BRANCH  15  16
ATOM     16  C   UNL     1      -4.955   3.773   0.716  0.00  0.00    +0.003 C 
BRANCH  16  18
ATOM     17  C   UNL     1      -7.360   3.680   1.386  0.00  0.00    +0.004 C 
ATOM     18  C   UNL     1      -6.032   2.920   1.388  0.00  0.00    -0.003 C 
ENDBRANCH  16  18
ENDBRANCH  15  16
ENDBRANCH   1  15
BRANCH   4  19
ATOM     19  C   UNL     1      -3.397   6.379  -2.554  0.00  0.00    +0.214 C 
BRANCH  19  20
ATOM     20  C   UNL     1      -2.157   6.714  -3.341  0.00  0.00    +0.238 C 
ATOM     21  O   UNL     1      -1.073   6.329  -2.958  0.00  0.00    -0.274 OA
ATOM     22  N   UNL     1      -2.252   7.442  -4.471  0.00  0.00    -0.239 N 
ATOM     23  C   UNL     1      -1.143   7.742  -5.175  0.00  0.00    +0.310 C 
ATOM     24  O   UNL     1      -0.056   7.356  -4.791  0.00  0.00    -0.252 OA
ATOM     25  N   UNL     1      -1.238   8.471  -6.305  0.00  0.00    -0.269 N 
ATOM     26  H   UNL     1      -3.235   7.792  -4.819  0.00  0.00    +0.159 HD
ATOM     27  H   UNL     1      -2.227   8.756  -6.694  0.00  0.00    +0.156 HD
BRANCH  25  28
ATOM     28  C   UNL     1      -0.079   8.865  -6.984  0.00  0.00    +0.035 A 
ATOM     29  C   UNL     1      -0.034  10.093  -7.630  0.00  0.00    +0.024 A 
ATOM     30  C   UNL     1       1.113  10.481  -8.294  0.00  0.00    +0.017 A 
ATOM     31  C   UNL     1       2.213   9.643  -8.326  0.00  0.00    +0.018 A 
ATOM     32  C   UNL     1       2.169   8.416  -7.688  0.00  0.00    +0.017 A 
ATOM     33  C   UNL     1       1.027   8.025  -7.017  0.00  0.00    +0.024 A 
ATOM     34 BR   UNL     1       3.779  10.175  -9.242  0.00  0.00    -0.050 Br
ENDBRANCH  25  28
ENDBRANCH  19  20
ENDBRANCH   4  19
TORSDOF 7
