REMARK  Name = ZINC36704291
REMARK  11 active torsions:
REMARK  status: ('A' for Active; 'I' for Inactive)
REMARK    1  A    between atoms: C_1  and  C_2
REMARK    2  A    between atoms: C_4  and  C_34
REMARK    3  A    between atoms: N_11  and  C_12
REMARK    4  A    between atoms: C_12  and  C_13
REMARK    5  A    between atoms: C_13  and  C_14
REMARK    6  A    between atoms: C_14  and  N_15
REMARK    7  A    between atoms: N_15  and  C_16
REMARK    8  A    between atoms: N_15  and  C_17
REMARK    9  A    between atoms: C_18  and  C_20
REMARK   10  A    between atoms: N_23  and  S_26
REMARK   11  A    between atoms: S_26  and  C_29
REMARK                            x       y       z     vdW  Elec       q    Type
REMARK                         _______ _______ _______ _____ _____    ______ ____
ROOT
ATOM      1  C   UNL     1      -0.453   1.466  -0.271  0.00  0.00    +0.044 C 
ATOM      2  C   UNL     1      -0.318  -0.034  -0.223  0.00  0.00    -0.049 A 
ATOM      3  C   UNL     1       0.126  -0.733  -1.336  0.00  0.00    +0.009 A 
ATOM      4  C   UNL     1       0.258  -2.097  -1.319  0.00  0.00    -0.024 A 
ATOM      5  C   UNL     1      -0.058  -2.839  -0.157  0.00  0.00    +0.083 A 
ATOM      6  C   UNL     1      -0.507  -2.093   0.957  0.00  0.00    +0.041 A 
ATOM      7  C   UNL     1      -0.630  -0.727   0.932  0.00  0.00    +0.020 A 
ATOM      8  S   UNL     1      -0.787  -3.359   2.171  0.00  0.00    -0.052 S 
ATOM      9  C   UNL     1      -0.306  -4.752   1.159  0.00  0.00    +0.168 A 
ATOM     10  N   UNL     1       0.016  -4.175   0.025  0.00  0.00    -0.224 NA
ATOM     11  N   UNL     1      -0.281  -6.097   1.488  0.00  0.00    -0.250 N 
ATOM     12  C   UNL     1       0.117  -7.006   0.576  0.00  0.00    +0.224 C 
ATOM     13  O   UNL     1       0.534  -6.641  -0.502  0.00  0.00    -0.275 OA
ATOM     14  C   UNL     1       0.744  -2.814  -2.552  0.00  0.00    +0.046 C 
ENDROOT
BRANCH  12  15
ATOM     15  C   UNL     1       0.044  -8.477   0.897  0.00  0.00    +0.078 C 
ATOM     16  C   UNL     1       1.156  -8.839   1.885  0.00  0.00    +0.030 C 
ATOM     17  C   UNL     1       1.057 -10.327   2.236  0.00  0.00    +0.110 C 
ATOM     18  N   UNL     1       1.078 -11.108   0.992  0.00  0.00    -0.176 NA
ATOM     19  C   UNL     1       0.109 -10.782  -0.064  0.00  0.00    +0.110 C 
ATOM     20  C   UNL     1       0.218  -9.289  -0.389  0.00  0.00    +0.030 C 
BRANCH  18  21
ATOM     21  S   UNL     1       2.173 -12.333   0.783  0.00  0.00    +0.067 S 
ATOM     22  O   UNL     1       2.332 -12.500  -0.620  0.00  0.00    -0.152 OA
ATOM     23  O   UNL     1       3.266 -12.052   1.646  0.00  0.00    -0.152 OA
BRANCH  21  24
ATOM     24  C   UNL     1       1.423 -13.810   1.384  0.00  0.00    +0.143 A 
ATOM     25  C   UNL     1       0.670 -14.718   0.716  0.00  0.00    +0.036 A 
ATOM     26  C   UNL     1       0.181 -15.815   1.400  0.00  0.00    +0.010 A 
ATOM     27  C   UNL     1       0.469 -15.951   2.717  0.00  0.00    +0.047 A 
ATOM     28  S   UNL     1       1.466 -14.503   3.029  0.00  0.00    -0.077 S 
ENDBRANCH  21  24
ENDBRANCH  18  21
ENDBRANCH  12  15
BRANCH  11  29
ATOM     29  C   UNL     1      -0.688  -6.532   2.827  0.00  0.00    +0.114 C 
BRANCH  29  30
ATOM     30  C   UNL     1      -2.210  -6.680   2.874  0.00  0.00    +0.001 C 
BRANCH  30  31
ATOM     31  C   UNL     1      -2.635  -7.134   4.272  0.00  0.00    -0.078 C 
BRANCH  31  32
ATOM     32  N   UNL     1      -4.096  -7.276   4.318  0.00  0.00    +0.376 N 
ATOM     33  C   UNL     1      -4.494  -7.826   5.621  0.00  0.00    -0.097 C 
ATOM     34  C   UNL     1      -4.722  -5.960   4.130  0.00  0.00    -0.097 C 
ATOM     35  H   UNL     1      -4.396  -7.900   3.584  0.00  0.00    -0.083 HD
ENDBRANCH  31  32
ENDBRANCH  30  31
ENDBRANCH  29  30
ENDBRANCH  11  29
TORSDOF 7
