REMARK  Name = ZINC63514848
REMARK  9 active torsions:
REMARK  status: ('A' for Active; 'I' for Inactive)
REMARK    1  A    between atoms: C_1  and  C_2
REMARK    2  A    between atoms: C_4  and  C_12
REMARK    3  A    between atoms: C_12  and  C_13
REMARK    4  A    between atoms: C_13  and  N_14
REMARK    5  A    between atoms: C_15  and  C_17
REMARK    6  A    between atoms: C_17  and  N_28
REMARK    7  A    between atoms: C_18  and  C_19
REMARK    8  A    between atoms: C_29  and  C_31
REMARK    9  A    between atoms: C_35  and  N_37
REMARK                            x       y       z     vdW  Elec       q    Type
REMARK                         _______ _______ _______ _____ _____    ______ ____
ROOT
ATOM      1  C   UNL     1       1.133  -1.132  -7.378  0.00  0.00    +0.097 C 
ATOM      2  C   UNL     1       0.336  -0.077  -7.671  0.00  0.00    +0.036 C 
ENDROOT
BRANCH   2   3
ATOM      3  C   UNL     1       0.065   0.272  -9.073  0.00  0.00    -0.019 A 
ATOM      4  C   UNL     1       0.271  -0.674 -10.084  0.00  0.00    +0.012 A 
ATOM      5  C   UNL     1       0.016  -0.343 -11.397  0.00  0.00    +0.050 A 
ATOM      6  C   UNL     1      -0.445   0.925 -11.722  0.00  0.00    +0.166 A 
ATOM      7  C   UNL     1      -0.652   1.873 -10.720  0.00  0.00    +0.167 A 
ATOM      8  C   UNL     1      -0.405   1.548  -9.400  0.00  0.00    +0.057 A 
ATOM      9  O   UNL     1      -1.101   3.026 -11.296  0.00  0.00    -0.453 OA
ATOM     10  C   UNL     1      -0.777   2.908 -12.694  0.00  0.00    +0.466 C 
ATOM     11  O   UNL     1      -0.765   1.487 -12.924  0.00  0.00    -0.453 OA
ENDBRANCH   2   3
BRANCH   1  13
ATOM     12  N   UNL     1       0.626  -0.931  -4.999  0.00  0.00    -0.310 N 
ATOM     13  C   UNL     1       1.282  -1.575  -5.985  0.00  0.00    +0.258 C 
ATOM     14  O   UNL     1       1.998  -2.523  -5.722  0.00  0.00    -0.269 OA
ATOM     15  H   UNL     1       0.055  -0.175  -5.209  0.00  0.00    +0.149 HD
BRANCH  12  16
ATOM     16  C   UNL     1       0.775  -1.373  -3.611  0.00  0.00    +0.109 C 
BRANCH  16  17
ATOM     17  C   UNL     1      -0.068  -0.480  -2.698  0.00  0.00    +0.052 C 
BRANCH  17  20
ATOM     18  C   UNL     1      -0.144   1.128   0.115  0.00  0.00    +0.035 C 
ATOM     19  C   UNL     1      -0.572  -0.331  -0.048  0.00  0.00    +0.103 C 
ATOM     20  C   UNL     1       0.085  -0.934  -1.269  0.00  0.00    -0.037 C 
ATOM     21  C   UNL     1       0.839  -1.963  -0.820  0.00  0.00    -0.001 A 
ATOM     22  C   UNL     1       1.708  -2.931  -1.500  0.00  0.00    +0.010 A 
ATOM     23  C   UNL     1       2.347  -3.869  -0.765  0.00  0.00    +0.001 A 
ATOM     24  C   UNL     1       2.200  -3.940   0.627  0.00  0.00    +0.002 A 
ATOM     25  C   UNL     1       1.420  -3.086   1.323  0.00  0.00    +0.026 A 
ATOM     26  C   UNL     1       0.701  -2.059   0.651  0.00  0.00    +0.043 A 
ATOM     27  N   UNL     1      -0.108  -1.126   1.094  0.00  0.00    -0.378 N 
ATOM     28  H   UNL     1      -0.356  -0.984   2.021  0.00  0.00    +0.160 HD
ENDBRANCH  17  20
ENDBRANCH  16  17
ENDBRANCH  12  16
ENDBRANCH   1  13
BRANCH   1  29
ATOM     29  N   UNL     1       1.813  -1.800  -8.401  0.00  0.00    -0.277 N 
ATOM     30  C   UNL     1       1.628  -3.123  -8.582  0.00  0.00    +0.248 C 
ATOM     31  O   UNL     1       0.957  -3.757  -7.791  0.00  0.00    -0.270 OA
ATOM     32  H   UNL     1       2.419  -1.312  -8.980  0.00  0.00    +0.155 HD
BRANCH  30  33
ATOM     33  C   UNL     1       2.240  -3.803  -9.743  0.00  0.00    +0.039 A 
ATOM     34  C   UNL     1       3.106  -3.106 -10.588  0.00  0.00    +0.013 A 
ATOM     35  C   UNL     1       3.674  -3.746 -11.669  0.00  0.00    +0.003 A 
ATOM     36  C   UNL     1       3.388  -5.077 -11.917  0.00  0.00    +0.033 A 
ATOM     37  C   UNL     1       2.531  -5.774 -11.084  0.00  0.00    +0.127 A 
ATOM     38  C   UNL     1       1.961  -5.147  -9.995  0.00  0.00    +0.045 A 
BRANCH  37  39
ATOM     39  N   UNL     1       2.230  -7.197 -11.358  0.00  0.00    +0.056 N 
ATOM     40  O   UNL     1       2.733  -7.749 -12.309  0.00  0.00    -0.126 OA
ATOM     41  O   UNL     1       1.481  -7.807 -10.631  0.00  0.00    -0.126 OA
ENDBRANCH  37  39
ENDBRANCH  30  33
ENDBRANCH   1  29
TORSDOF 8
