REMARK  Name = ZINC49981851
REMARK  7 active torsions:
REMARK  status: ('A' for Active; 'I' for Inactive)
REMARK    1  A    between atoms: C_3  and  S_24
REMARK    2  A    between atoms: C_6  and  N_7
REMARK    3  A    between atoms: C_8  and  C_10
REMARK    4  A    between atoms: C_10  and  N_11
REMARK    5  A    between atoms: N_14  and  C_17
REMARK    6  A    between atoms: C_17  and  C_18
REMARK    7  A    between atoms: S_24  and  N_27
REMARK                            x       y       z     vdW  Elec       q    Type
REMARK                         _______ _______ _______ _____ _____    ______ ____
ROOT
ATOM      1  N   UNL     1      -0.499  -0.843  -0.037  0.00  0.00    -0.284 N 
ATOM      2  C   UNL     1      -0.601  -2.184  -0.133  0.00  0.00    +0.231 C 
ATOM      3  O   UNL     1       0.398  -2.871  -0.111  0.00  0.00    -0.274 OA
ATOM      4  H   UNL     1      -1.300  -0.299   0.021  0.00  0.00    +0.155 HD
ENDROOT
BRANCH   1  10
ATOM      5  C   UNL     1       1.809  -0.790  -0.746  0.00  0.00    +0.025 A 
ATOM      6  C   UNL     1       3.052  -0.189  -0.729  0.00  0.00    +0.030 A 
ATOM      7  C   UNL     1       3.255   0.963   0.009  0.00  0.00    +0.105 A 
ATOM      8  C   UNL     1       2.214   1.517   0.731  0.00  0.00    +0.030 A 
ATOM      9  C   UNL     1       0.968   0.921   0.718  0.00  0.00    +0.025 A 
ATOM     10  C   UNL     1       0.761  -0.236  -0.021  0.00  0.00    +0.034 A 
BRANCH   7  11
ATOM     11  S   UNL     1       4.843   1.727   0.029  0.00  0.00    +0.056 S 
ATOM     12  O   UNL     1       4.914   2.485   1.228  0.00  0.00    -0.153 OA
ATOM     13  O   UNL     1       5.785   0.712  -0.288  0.00  0.00    -0.153 OA
BRANCH  11  14
ATOM     14  N   UNL     1       4.879   2.813  -1.220  0.00  0.00    -0.204 NA
ATOM     15  H   UNL     1       5.424   3.613  -1.152  0.00  0.00    +0.144 HD
ATOM     16  H   UNL     1       4.355   2.650  -2.021  0.00  0.00    +0.144 HD
ENDBRANCH  11  14
ENDBRANCH   7  11
ENDBRANCH   1  10
BRANCH   2  17
ATOM     17  C   UNL     1      -1.956  -2.829  -0.266  0.00  0.00    +0.180 C 
BRANCH  17  18
ATOM     18  N   UNL     1      -1.798  -4.287  -0.352  0.00  0.00    -0.298 NA
ATOM     19  C   UNL     1      -1.279  -4.835   0.908  0.00  0.00    +0.066 C 
ATOM     20  C   UNL     1      -1.073  -6.344   0.758  0.00  0.00    -0.063 C 
ATOM     21  N   UNL     1      -2.352  -6.981   0.416  0.00  0.00    +0.382 N 
ATOM     22  C   UNL     1      -2.846  -6.441  -0.857  0.00  0.00    -0.063 C 
ATOM     23  C   UNL     1      -3.066  -4.933  -0.720  0.00  0.00    +0.066 C 
ATOM     24  H   UNL     1      -3.025  -6.795   1.145  0.00  0.00    -0.082 HD
BRANCH  21  25
ATOM     25  C   UNL     1      -2.157  -8.432   0.290  0.00  0.00    -0.075 C 
BRANCH  25  26
ATOM     26  C   UNL     1      -1.795  -9.019   1.655  0.00  0.00    -0.028 C 
ATOM     27  C   UNL     1      -2.981  -8.861   2.609  0.00  0.00    +0.002 C 
ATOM     28  C   UNL     1      -2.619  -9.448   3.975  0.00  0.00    +0.000 C 
ATOM     29  C   UNL     1      -2.285 -10.933   3.819  0.00  0.00    +0.000 C 
ATOM     30  C   UNL     1      -1.099 -11.091   2.865  0.00  0.00    +0.000 C 
ATOM     31  C   UNL     1      -1.461 -10.504   1.500  0.00  0.00    +0.002 C 
ENDBRANCH  25  26
ENDBRANCH  21  25
ENDBRANCH  17  18
ENDBRANCH   2  17
TORSDOF 7
