REMARK  Name = ZINC00713530
REMARK  8 active torsions:
REMARK  status: ('A' for Active; 'I' for Inactive)
REMARK    1  A    between atoms: C_1  and  C_2
REMARK    2  A    between atoms: C_2  and  C_36
REMARK    3  A    between atoms: C_6  and  C_24
REMARK    4  A    between atoms: C_8  and  C_22
REMARK    5  A    between atoms: C_9  and  N_21
REMARK    6  A    between atoms: N_10  and  C_11
REMARK    7  A    between atoms: C_16  and  C_17
REMARK    8  A    between atoms: C_28  and  N_30
REMARK                            x       y       z     vdW  Elec       q    Type
REMARK                         _______ _______ _______ _____ _____    ______ ____
ROOT
ATOM      1  C   UNL     1      -0.013   1.534   0.058  0.00  0.00    +0.011 C 
ATOM      2  C   UNL     1       0.007   0.004   0.036  0.00  0.00    -0.023 C 
ATOM      3  C   UNL     1      -1.427  -0.529   0.025  0.00  0.00    +0.058 C 
ATOM      4  C   UNL     1      -1.407  -2.036  -0.047  0.00  0.00    +0.025 C 
ATOM      5  C   UNL     1      -0.410  -2.688  -0.683  0.00  0.00    +0.025 C 
ATOM      6  C   UNL     1      -0.402  -4.193  -0.771  0.00  0.00    +0.097 C 
ATOM      7  C   UNL     1      -1.312  -4.801   0.255  0.00  0.00    +0.077 C 
ATOM      8  C   UNL     1      -2.274  -4.062   0.865  0.00  0.00    +0.107 C 
ATOM      9  N   UNL     1      -2.425  -2.730   0.553  0.00  0.00    -0.260 N 
ATOM     10  C   UNL     1       0.647  -1.984  -1.286  0.00  0.00    +0.162 C 
ATOM     11  O   UNL     1       1.522  -2.601  -1.860  0.00  0.00    -0.292 OA
ATOM     12  C   UNL     1       0.720  -0.483  -1.230  0.00  0.00    +0.086 C 
ATOM     13  C   UNL     1       0.741  -0.518   1.272  0.00  0.00    +0.011 C 
ENDROOT
BRANCH   9  14
ATOM     14  C   UNL     1      -3.628  -2.079   0.849  0.00  0.00    +0.051 A 
ATOM     15  C   UNL     1      -4.621  -1.977  -0.117  0.00  0.00    +0.024 A 
ATOM     16  C   UNL     1      -5.806  -1.334   0.179  0.00  0.00    +0.002 A 
ATOM     17  C   UNL     1      -6.006  -0.793   1.436  0.00  0.00    +0.001 A 
ATOM     18  C   UNL     1      -5.020  -0.893   2.400  0.00  0.00    +0.014 A 
ATOM     19  C   UNL     1      -3.834  -1.539   2.112  0.00  0.00    +0.076 A 
BRANCH  19  20
ATOM     20  C   UNL     1      -2.762  -1.653   3.165  0.00  0.00    +0.419 C 
ATOM     21  F   UNL     1      -3.240  -1.137   4.375  0.00  0.00    -0.166 F 
ATOM     22  F   UNL     1      -2.416  -2.998   3.336  0.00  0.00    -0.166 F 
ATOM     23  F   UNL     1      -1.634  -0.929   2.763  0.00  0.00    -0.166 F 
ENDBRANCH  19  20
ENDBRANCH   9  14
BRANCH   6  24
ATOM     24  C   UNL     1      -0.860  -4.610  -2.145  0.00  0.00    -0.033 A 
ATOM     25  C   UNL     1      -2.118  -4.251  -2.593  0.00  0.00    +0.005 A 
ATOM     26  C   UNL     1      -2.538  -4.633  -3.853  0.00  0.00    +0.003 A 
ATOM     27  C   UNL     1      -1.701  -5.374  -4.666  0.00  0.00    +0.033 A 
ATOM     28  C   UNL     1      -0.443  -5.733  -4.218  0.00  0.00    +0.126 A 
ATOM     29  C   UNL     1      -0.021  -5.346  -2.960  0.00  0.00    +0.037 A 
BRANCH  28  30
ATOM     30  N   UNL     1       0.454  -6.526  -5.088  0.00  0.00    +0.056 N 
ATOM     31  O   UNL     1       0.084  -6.862  -6.199  0.00  0.00    -0.126 OA
ATOM     32  O   UNL     1       1.562  -6.842  -4.694  0.00  0.00    -0.126 OA
ENDBRANCH  28  30
ENDBRANCH   6  24
BRANCH   8  33
ATOM     33  N   UNL     1      -3.099  -4.645   1.797  0.00  0.00    -0.345 N 
ATOM     34  H   UNL     1      -2.994  -5.584   2.019  0.00  0.00    +0.144 HD
ATOM     35  H   UNL     1      -3.787  -4.118   2.233  0.00  0.00    +0.144 HD
ENDBRANCH   8  33
BRANCH   7  36
ATOM     36  C   UNL     1      -1.164  -6.184   0.597  0.00  0.00    +0.099 C 
ATOM     37  N   UNL     1      -1.046  -7.281   0.868  0.00  0.00    -0.191 NA
ENDBRANCH   7  36
TORSDOF 6
