REMARK  Name = ZINC00910219
REMARK  9 active torsions:
REMARK  status: ('A' for Active; 'I' for Inactive)
REMARK    1  A    between atoms: C_1  and  C_2
REMARK    2  A    between atoms: C_4  and  O_25
REMARK    3  A    between atoms: C_5  and  C_24
REMARK    4  A    between atoms: C_6  and  O_23
REMARK    5  A    between atoms: C_7  and  C_8
REMARK    6  A    between atoms: N_9  and  N_10
REMARK    7  A    between atoms: C_11  and  C_13
REMARK    8  A    between atoms: C_13  and  O_14
REMARK    9  A    between atoms: O_14  and  C_15
REMARK                            x       y       z     vdW  Elec       q    Type
REMARK                         _______ _______ _______ _____ _____    ______ ____
ROOT
ATOM      1  C   UNL     1       5.400  -3.994  -0.071  0.00  0.00    +0.142 C 
ATOM      2  N   UNL     1       5.211  -2.709  -0.062  0.00  0.00    -0.187 NA
ENDROOT
BRANCH   1   9
ATOM      3  C   UNL     1       5.797  -6.857  -0.089  0.00  0.00    +0.044 C 
ATOM      4  C   UNL     1       6.976  -5.918  -0.096  0.00  0.00    -0.035 A 
ATOM      5  C   UNL     1       8.259  -6.422  -0.112  0.00  0.00    +0.050 A 
ATOM      6  C   UNL     1       9.349  -5.560  -0.118  0.00  0.00    +0.124 A 
ATOM      7  C   UNL     1       9.154  -4.186  -0.109  0.00  0.00    +0.033 A 
ATOM      8  C   UNL     1       7.871  -3.669  -0.099  0.00  0.00    +0.132 A 
ATOM      9  C   UNL     1       6.769  -4.537  -0.087  0.00  0.00    +0.039 A 
ATOM     10  C   UNL     1      10.341  -3.258  -0.117  0.00  0.00    +0.051 C 
BRANCH   8  11
ATOM     11  O   UNL     1       7.679  -2.324  -0.095  0.00  0.00    -0.506 OA
ATOM     12  H   UNL     1       7.634  -1.936   0.790  0.00  0.00    +0.292 HD
ENDBRANCH   8  11
BRANCH   6  13
ATOM     13  O   UNL     1      10.610  -6.065  -0.133  0.00  0.00    -0.506 OA
ATOM     14  H   UNL     1      10.966  -6.206  -1.021  0.00  0.00    +0.292 HD
ENDBRANCH   6  13
ENDBRANCH   1   9
BRANCH   2  15
ATOM     15  N   UNL     1       3.909  -2.193  -0.047  0.00  0.00    -0.204 N 
ATOM     16  C   UNL     1       3.713  -0.860  -0.038  0.00  0.00    +0.270 C 
ATOM     17  O   UNL     1       4.664  -0.106  -0.043  0.00  0.00    -0.270 OA
ATOM     18  H   UNL     1       3.149  -2.795  -0.043  0.00  0.00    +0.177 HD
BRANCH  16  19
ATOM     19  C   UNL     1       2.312  -0.304  -0.022  0.00  0.00    +0.326 C 
BRANCH  19  20
ATOM     20  O   UNL     1       2.366   1.124  -0.015  0.00  0.00    -0.482 OA
BRANCH  20  21
ATOM     21  C   UNL     1       1.179   1.786   0.000  0.00  0.00    +0.134 A 
ATOM     22  C   UNL     1      -0.013   1.076   0.008  0.00  0.00    +0.048 A 
ATOM     23  C   UNL     1      -1.218   1.751   0.017  0.00  0.00    +0.023 A 
ATOM     24  C   UNL     1      -1.238   3.134   0.029  0.00  0.00    +0.042 A 
ATOM     25  C   UNL     1      -0.051   3.845   0.022  0.00  0.00    +0.038 A 
ATOM     26  C   UNL     1       1.158   3.173   0.008  0.00  0.00    +0.056 A 
ATOM     27  I   UNL     1       2.955   4.250  -0.004  0.00  0.00    -0.040 I 
ATOM     28 CL   UNL     1      -2.754   3.980   0.046  0.00  0.00    -0.084 Cl
ENDBRANCH  20  21
ENDBRANCH  19  20
ENDBRANCH  16  19
ENDBRANCH   2  15
TORSDOF 7
