REMARK  Name = ZINC64169865
REMARK  11 active torsions:
REMARK  status: ('A' for Active; 'I' for Inactive)
REMARK    1  A    between atoms: C_1  and  O_2
REMARK    2  A    between atoms: O_2  and  C_3
REMARK    3  A    between atoms: C_6  and  C_9
REMARK    4  A    between atoms: C_9  and  C_11
REMARK    5  A    between atoms: C_9  and  C_28
REMARK    6  A    between atoms: C_11  and  N_12
REMARK    7  A    between atoms: C_13  and  C_15
REMARK    8  A    between atoms: C_19  and  S_21
REMARK    9  A    between atoms: S_21  and  N_24
REMARK   10  A    between atoms: N_24  and  C_25
REMARK   11  A    between atoms: C_25  and  C_26
REMARK                            x       y       z     vdW  Elec       q    Type
REMARK                         _______ _______ _______ _____ _____    ______ ____
ROOT
ATOM      1  C   UNL     1       2.505  -2.503  -4.381  0.00  0.00    +0.064 C 
ENDROOT
BRANCH   1   2
ATOM      2  C   UNL     1       3.645  -3.357  -3.889  0.00  0.00    -0.033 C 
ATOM      3  C   UNL     1       4.952  -3.232  -4.212  0.00  0.00    -0.000 A 
ATOM      4  C   UNL     1       5.677  -2.300  -5.084  0.00  0.00    +0.010 A 
ATOM      5  C   UNL     1       7.017  -2.426  -5.210  0.00  0.00    +0.001 A 
ATOM      6  C   UNL     1       7.731  -3.423  -4.531  0.00  0.00    +0.002 A 
ATOM      7  C   UNL     1       7.135  -4.316  -3.712  0.00  0.00    +0.026 A 
ATOM      8  C   UNL     1       5.729  -4.275  -3.505  0.00  0.00    +0.043 A 
ATOM      9  N   UNL     1       4.932  -5.017  -2.774  0.00  0.00    -0.380 N 
ATOM     10  C   UNL     1       3.560  -4.523  -2.930  0.00  0.00    +0.145 C 
ATOM     11  H   UNL     1       5.205  -5.764  -2.220  0.00  0.00    +0.160 HD
ENDBRANCH   1   2
BRANCH   1  15
ATOM     12  C   UNL     1       0.606  -0.607  -1.056  0.00  0.00    +0.120 A 
ATOM     13  C   UNL     1       1.173   0.161  -2.062  0.00  0.00    +0.046 A 
ATOM     14  C   UNL     1       1.786  -0.455  -3.136  0.00  0.00    +0.008 A 
ATOM     15  C   UNL     1       1.835  -1.835  -3.209  0.00  0.00    -0.038 A 
ATOM     16  C   UNL     1       1.270  -2.602  -2.207  0.00  0.00    +0.008 A 
ATOM     17  C   UNL     1       0.661  -1.992  -1.128  0.00  0.00    +0.046 A 
BRANCH  12  19
ATOM     18  C   UNL     1      -0.017   1.425   0.010  0.00  0.00    +0.277 C 
ATOM     19  O   UNL     1       0.002  -0.004   0.002  0.00  0.00    -0.495 OA
ENDBRANCH  12  19
ENDBRANCH   1  15
BRANCH   1  20
ATOM     20  C   UNL     1       1.490  -3.382  -5.115  0.00  0.00    +0.117 C 
BRANCH  20  21
ATOM     21  N   UNL     1       2.107  -3.938  -6.322  0.00  0.00    -0.310 N 
ATOM     22  C   UNL     1       1.395  -4.747  -7.131  0.00  0.00    +0.244 C 
ATOM     23  O   UNL     1       0.242  -5.017  -6.859  0.00  0.00    -0.270 OA
ATOM     24  H   UNL     1       3.027  -3.722  -6.539  0.00  0.00    +0.149 HD
BRANCH  22  25
ATOM     25  C   UNL     1       2.018  -5.308  -8.349  0.00  0.00    +0.039 A 
ATOM     26  C   UNL     1       3.345  -5.005  -8.661  0.00  0.00    +0.013 A 
ATOM     27  C   UNL     1       3.920  -5.532  -9.799  0.00  0.00    +0.003 A 
ATOM     28  C   UNL     1       3.185  -6.359 -10.630  0.00  0.00    +0.028 A 
ATOM     29  C   UNL     1       1.870  -6.663 -10.327  0.00  0.00    +0.106 A 
ATOM     30  C   UNL     1       1.284  -6.147  -9.189  0.00  0.00    +0.041 A 
BRANCH  29  31
ATOM     31  S   UNL     1       0.943  -7.716 -11.393  0.00  0.00    +0.059 S 
ATOM     32  O   UNL     1      -0.427  -7.407 -11.177  0.00  0.00    -0.153 OA
ATOM     33  O   UNL     1       1.550  -7.633 -12.675  0.00  0.00    -0.153 OA
BRANCH  31  34
ATOM     34  N   UNL     1       1.168  -9.269 -10.863  0.00  0.00    -0.186 NA
ATOM     35  H   UNL     1       1.627  -9.912 -11.425  0.00  0.00    +0.148 HD
BRANCH  34  36
ATOM     36  C   UNL     1       0.672  -9.672  -9.544  0.00  0.00    +0.132 C 
BRANCH  36  37
ATOM     37  C   UNL     1       0.664 -11.176  -9.449  0.00  0.00    -0.018 C 
ATOM     38  C   UNL     1       1.296 -11.773  -8.470  0.00  0.00    +0.005 C 
ENDBRANCH  36  37
ENDBRANCH  34  36
ENDBRANCH  31  34
ENDBRANCH  29  31
ENDBRANCH  22  25
ENDBRANCH  20  21
ENDBRANCH   1  20
TORSDOF 10
