REMARK  Name = ZINC65265874
REMARK  4 active torsions:
REMARK  status: ('A' for Active; 'I' for Inactive)
REMARK    1  A    between atoms: C_1  and  O_2
REMARK    2  A    between atoms: O_2  and  C_3
REMARK    3  A    between atoms: C_6  and  C_9
REMARK    4  A    between atoms: N_26  and  C_27
REMARK                            x       y       z     vdW  Elec       q    Type
REMARK                         _______ _______ _______ _____ _____    ______ ____
ROOT
ATOM      1  C   UNL     1       2.500  -2.488  -4.363  0.00  0.00    +0.247 C 
ATOM      2  O   UNL     1       2.904  -1.821  -5.296  0.00  0.00    -0.270 OA
ATOM      3  N   UNL     1       2.636  -3.829  -4.385  0.00  0.00    -0.295 N 
ATOM      4  C   UNL     1       2.084  -4.766  -3.388  0.00  0.00    +0.110 C 
ATOM      5  C   UNL     1       1.962  -6.120  -4.135  0.00  0.00    +0.050 C 
ATOM      6  C   UNL     1       3.206  -6.082  -5.041  0.00  0.00    +0.091 C 
ATOM      7  C   UNL     1       3.355  -4.603  -5.411  0.00  0.00    +0.137 C 
ATOM      8  C   UNL     1       3.041  -6.945  -6.246  0.00  0.00    +0.095 C 
ATOM      9  N   UNL     1       3.461  -8.248  -6.133  0.00  0.00    -0.303 N 
ATOM     10  C   UNL     1       4.781  -8.559  -6.447  0.00  0.00    +0.037 A 
ATOM     11  C   UNL     1       5.066  -9.669  -7.228  0.00  0.00    +0.023 A 
ATOM     12  C   UNL     1       6.375  -9.989  -7.528  0.00  0.00    +0.002 A 
ATOM     13  C   UNL     1       7.398  -9.193  -7.043  0.00  0.00    +0.000 A 
ATOM     14  C   UNL     1       7.114  -8.087  -6.271  0.00  0.00    +0.007 A 
ATOM     15  C   UNL     1       5.800  -7.746  -5.966  0.00  0.00    -0.012 A 
ATOM     16  C   UNL     1       5.594  -6.497  -5.147  0.00  0.00    +0.119 C 
ATOM     17  N   UNL     1       4.395  -6.562  -4.302  0.00  0.00    -0.299 NA
ATOM     18  N   UNL     1       2.528  -6.489  -7.343  0.00  0.00    -0.372 N 
ATOM     19  H   UNL     1       4.526  -6.040  -3.448  0.00  0.00    +0.123 HD
ATOM     20  H   UNL     1       2.305  -5.549  -7.420  0.00  0.00    +0.161 HD
ATOM     21  H   UNL     1       2.848  -8.940  -5.839  0.00  0.00    +0.153 HD
ENDROOT
BRANCH   1  25
ATOM     22  C   UNL     1       0.663  -0.595  -1.035  0.00  0.00    +0.120 A 
ATOM     23  C   UNL     1       0.664   0.032  -2.276  0.00  0.00    +0.046 A 
ATOM     24  C   UNL     1       1.259  -0.579  -3.357  0.00  0.00    +0.016 A 
ATOM     25  C   UNL     1       1.862  -1.830  -3.206  0.00  0.00    +0.037 A 
ATOM     26  C   UNL     1       1.860  -2.456  -1.957  0.00  0.00    +0.016 A 
ATOM     27  C   UNL     1       1.267  -1.837  -0.879  0.00  0.00    +0.046 A 
BRANCH  22  29
ATOM     28  C   UNL     1      -0.525   1.286  -0.202  0.00  0.00    +0.277 C 
ATOM     29  O   UNL     1       0.076   0.011   0.029  0.00  0.00    -0.495 OA
ENDBRANCH  22  29
ENDBRANCH   1  25
BRANCH  18  30
ATOM     30  C   UNL     1       2.285  -7.394  -8.469  0.00  0.00    +0.080 C 
ATOM     31  C   UNL     1       3.545  -7.489  -9.353  0.00  0.00    +0.024 C 
ATOM     32  C   UNL     1       2.990  -7.575 -10.797  0.00  0.00    +0.002 C 
ATOM     33  C   UNL     1       1.780  -6.610 -10.756  0.00  0.00    +0.002 C 
ATOM     34  C   UNL     1       1.162  -6.836  -9.361  0.00  0.00    +0.024 C 
ENDBRANCH  18  30
TORSDOF 3
