REMARK  Name = ZINC63350041
REMARK  7 active torsions:
REMARK  status: ('A' for Active; 'I' for Inactive)
REMARK    1  A    between atoms: C_1  and  O_2
REMARK    2  A    between atoms: O_2  and  C_3
REMARK    3  A    between atoms: C_6  and  C_20
REMARK    4  A    between atoms: C_8  and  C_9
REMARK    5  A    between atoms: C_9  and  S_10
REMARK    6  A    between atoms: S_10  and  C_11
REMARK    7  A    between atoms: CA_33  and  C_36
REMARK                            x       y       z     vdW  Elec       q    Type
REMARK                         _______ _______ _______ _____ _____    ______ ____
ROOT
ATOM      1  C   UNL     1      -1.200  -0.637   0.010  0.00  0.00    +0.124 A 
ATOM      2  C   UNL     1      -2.375   0.101   0.019  0.00  0.00    +0.046 A 
ATOM      3  C   UNL     1      -3.596  -0.545   0.027  0.00  0.00    +0.009 A 
ATOM      4  C   UNL     1      -3.648  -1.927   0.026  0.00  0.00    -0.028 A 
ATOM      5  C   UNL     1      -2.479  -2.665   0.017  0.00  0.00    +0.013 A 
ATOM      6  C   UNL     1      -1.255  -2.023   0.003  0.00  0.00    +0.005 A 
ENDROOT
BRANCH   4   7
ATOM      7  C   UNL     1      -4.981  -2.629   0.034  0.00  0.00    +0.111 C 
ATOM      8  C   UNL     1      -5.570  -2.634  -1.379  0.00  0.00    +0.128 C 
ATOM      9  C   UNL     1      -6.979  -3.203  -1.251  0.00  0.00    -0.035 C 
ATOM     10  C   UNL     1      -7.054  -4.213  -2.106  0.00  0.00    -0.001 A 
ATOM     11  C   UNL     1      -8.172  -5.088  -2.496  0.00  0.00    +0.010 A 
ATOM     12  C   UNL     1      -7.888  -6.052  -3.411  0.00  0.00    +0.001 A 
ATOM     13  C   UNL     1      -6.620  -6.231  -3.972  0.00  0.00    +0.002 A 
ATOM     14  C   UNL     1      -5.536  -5.469  -3.676  0.00  0.00    +0.026 A 
ATOM     15  C   UNL     1      -5.711  -4.418  -2.729  0.00  0.00    +0.043 A 
ATOM     16  N   UNL     1      -4.848  -3.524  -2.286  0.00  0.00    -0.376 N 
ATOM     17  C   UNL     1      -7.955  -2.677  -0.227  0.00  0.00    +0.063 C 
ATOM     18  CA  UNL     1      -7.187  -2.614   1.106  0.00  0.00    +0.172 C 
ATOM     19  N   UNL     1      -5.912  -1.915   0.922  0.00  0.00    -0.295 NA
ATOM     20  H   UNL     1      -5.480  -1.711   1.810  0.00  0.00    +0.123 HD
ATOM     21  H   UNL     1      -3.907  -3.464  -2.511  0.00  0.00    +0.160 HD
BRANCH  18  22
ATOM     22  C   UNL     1      -8.016  -1.875   2.126  0.00  0.00    +0.373 C 
ATOM     23  O   UNL     1      -8.795  -2.487   2.837  0.00  0.00    -0.245 OA
ATOM     24  OXT UNL     1      -7.907  -0.666   2.239  0.00  0.00    -0.245 OA
ENDBRANCH  18  22
ENDBRANCH   4   7
BRANCH   1  26
ATOM     25  C   UNL     1      -0.017   1.425   0.010  0.00  0.00    +0.277 C 
ATOM     26  O   UNL     1       0.002  -0.004   0.002  0.00  0.00    -0.495 OA
ENDBRANCH   1  26
BRANCH   6  27
ATOM     27  C   UNL     1       0.018  -2.829  -0.013  0.00  0.00    +0.115 C 
BRANCH  27  28
ATOM     28  S   UNL     1       0.545  -3.161   1.691  0.00  0.00    -0.094 S 
BRANCH  28  29
ATOM     29  C   UNL     1       2.026  -4.098   1.504  0.00  0.00    +0.136 A 
ATOM     30  N   UNL     1       2.630  -4.473   0.399  0.00  0.00    -0.233 NA
ATOM     31  C   UNL     1       3.772  -5.196   0.406  0.00  0.00    +0.079 A 
ATOM     32  C   UNL     1       4.517  -5.661  -0.701  0.00  0.00    +0.029 A 
ATOM     33  C   UNL     1       5.664  -6.388  -0.518  0.00  0.00    +0.002 A 
ATOM     34  C   UNL     1       6.133  -6.693   0.751  0.00  0.00    +0.001 A 
ATOM     35  C   UNL     1       5.429  -6.254   1.858  0.00  0.00    +0.017 A 
ATOM     36  C   UNL     1       4.280  -5.525   1.683  0.00  0.00    +0.040 A 
ATOM     37  S   UNL     1       3.093  -4.772   2.770  0.00  0.00    -0.061 S 
ENDBRANCH  28  29
ENDBRANCH  27  28
ENDBRANCH   6  27
TORSDOF 6
