REMARK  Name = ZINC53086027
REMARK  4 active torsions:
REMARK  status: ('A' for Active; 'I' for Inactive)
REMARK    1  A    between atoms: C_6  and  N_7
REMARK    2  A    between atoms: C_10  and  C_14
REMARK    3  A    between atoms: N_16  and  N_17
REMARK    4  A    between atoms: C_18  and  C_20
REMARK                            x       y       z     vdW  Elec       q    Type
REMARK                         _______ _______ _______ _____ _____    ______ ____
ROOT
ATOM      1  C   UNL     1      -4.510  -0.975   1.177  0.00  0.00    +0.241 C 
ATOM      2  O   UNL     1      -4.629  -1.754   2.099  0.00  0.00    -0.273 OA
ATOM      3  N   UNL     1      -5.292   0.121   1.116  0.00  0.00    -0.234 N 
ATOM      4  H   UNL     1      -5.196   0.745   0.379  0.00  0.00    +0.173 HD
ENDROOT
BRANCH   1   8
ATOM      5  N   UNL     1      -1.200  -0.722   0.010  0.00  0.00    -0.271 N 
ATOM      6  C   UNL     1      -1.294  -2.182  -0.097  0.00  0.00    +0.115 C 
ATOM      7  C   UNL     1      -2.716  -2.541   0.388  0.00  0.00    +0.041 C 
ATOM      8  C   UNL     1      -3.486  -1.231   0.101  0.00  0.00    +0.164 C 
ATOM      9  C   UNL     1      -2.417  -0.161   0.122  0.00  0.00    +0.232 C 
ATOM     10  O   UNL     1      -2.627   1.029   0.224  0.00  0.00    -0.274 OA
BRANCH   5  16
ATOM     11  C   UNL     1      -0.017   1.384  -0.005  0.00  0.00    +0.026 A 
ATOM     12  C   UNL     1       1.170   2.090  -0.012  0.00  0.00    +0.040 A 
ATOM     13  C   UNL     1       2.379   1.414  -0.013  0.00  0.00    +0.124 A 
ATOM     14  C   UNL     1       2.400   0.030  -0.007  0.00  0.00    +0.040 A 
ATOM     15  C   UNL     1       1.215  -0.680   0.000  0.00  0.00    +0.026 A 
ATOM     16  C   UNL     1       0.002  -0.004   0.002  0.00  0.00    +0.036 A 
ATOM     17  F   UNL     1       3.539   2.106  -0.021  0.00  0.00    -0.205 F 
ENDBRANCH   5  16
ENDBRANCH   1   8
BRANCH   3  18
ATOM     18  N   UNL     1      -6.243   0.360   2.116  0.00  0.00    -0.230 N 
ATOM     19  C   UNL     1      -7.025   1.456   2.055  0.00  0.00    +0.260 C 
ATOM     20  O   UNL     1      -6.905   2.237   1.131  0.00  0.00    -0.269 OA
ATOM     21  H   UNL     1      -6.339  -0.263   2.853  0.00  0.00    +0.173 HD
BRANCH  19  22
ATOM     22  C   UNL     1      -8.027   1.707   3.109  0.00  0.00    +0.042 A 
ATOM     23  C   UNL     1      -8.163   0.814   4.174  0.00  0.00    +0.017 A 
ATOM     24  C   UNL     1      -9.099   1.050   5.157  0.00  0.00    +0.050 A 
ATOM     25  C   UNL     1      -9.910   2.175   5.093  0.00  0.00    +0.166 A 
ATOM     26  C   UNL     1      -9.780   3.071   4.032  0.00  0.00    +0.167 A 
ATOM     27  C   UNL     1      -8.839   2.843   3.047  0.00  0.00    +0.062 A 
ATOM     28  O   UNL     1     -10.684   4.081   4.202  0.00  0.00    -0.453 OA
ATOM     29  C   UNL     1     -11.643   3.582   5.152  0.00  0.00    +0.466 C 
ATOM     30  O   UNL     1     -10.894   2.624   5.924  0.00  0.00    -0.453 OA
ENDBRANCH  19  22
ENDBRANCH   3  18
TORSDOF 4
