REMARK  Name = ZINC12659089
REMARK  11 active torsions:
REMARK  status: ('A' for Active; 'I' for Inactive)
REMARK    1  A    between atoms: C_1  and  C_2
REMARK    2  A    between atoms: C_2  and  C_3
REMARK    3  A    between atoms: C_2  and  O_4
REMARK    4  A    between atoms: O_4  and  C_5
REMARK    5  A    between atoms: C_8  and  C_11
REMARK    6  A    between atoms: C_12  and  C_13
REMARK    7  A    between atoms: C_12  and  N_24
REMARK    8  A    between atoms: N_15  and  C_16
REMARK    9  A    between atoms: C_19  and  O_22
REMARK   10  A    between atoms: O_22  and  C_23
REMARK   11  A    between atoms: C_25  and  C_27
REMARK                            x       y       z     vdW  Elec       q    Type
REMARK                         _______ _______ _______ _____ _____    ______ ____
ROOT
ATOM      1  C   UNL     1       3.700  -4.312   0.758  0.00  0.00    +0.036 C 
ATOM      2  C   UNL     1       2.561  -3.586   0.656  0.00  0.00    +0.097 C 
ENDROOT
BRANCH   1   6
ATOM      3  C   UNL     1       3.583  -8.523   0.263  0.00  0.00    +0.121 A 
ATOM      4  C   UNL     1       4.789  -7.844   0.135  0.00  0.00    +0.046 A 
ATOM      5  C   UNL     1       4.832  -6.477   0.294  0.00  0.00    +0.011 A 
ATOM      6  C   UNL     1       3.659  -5.771   0.587  0.00  0.00    -0.023 A 
ATOM      7  C   UNL     1       2.449  -6.461   0.721  0.00  0.00    +0.011 A 
ATOM      8  C   UNL     1       2.415  -7.827   0.554  0.00  0.00    +0.046 A 
BRANCH   3   9
ATOM      9  O   UNL     1       3.545  -9.871   0.105  0.00  0.00    -0.489 OA
BRANCH   9  11
ATOM     10  C   UNL     1       5.598 -10.753   1.026  0.00  0.00    +0.051 C 
ATOM     11  C   UNL     1       4.772 -10.518  -0.240  0.00  0.00    +0.167 C 
ATOM     12  C   UNL     1       4.470 -11.860  -0.909  0.00  0.00    +0.051 C 
ENDBRANCH   9  11
ENDBRANCH   3   9
ENDBRANCH   1   6
BRANCH   2  13
ATOM     13  C   UNL     1       2.564  -2.162   1.010  0.00  0.00    +0.262 C 
ATOM     14  O   UNL     1       3.556  -1.660   1.505  0.00  0.00    -0.268 OA
ATOM     15  N   UNL     1       1.468  -1.409   0.788  0.00  0.00    -0.280 N 
ATOM     16  H   UNL     1       0.652  -1.824   0.467  0.00  0.00    +0.155 HD
BRANCH  15  17
ATOM     17  C   UNL     1       1.507  -0.029   1.021  0.00  0.00    +0.034 A 
ATOM     18  C   UNL     1       0.736   0.828   0.246  0.00  0.00    +0.027 A 
ATOM     19  C   UNL     1       0.774   2.188   0.476  0.00  0.00    +0.047 A 
ATOM     20  C   UNL     1       1.583   2.700   1.481  0.00  0.00    +0.120 A 
ATOM     21  C   UNL     1       2.354   1.844   2.255  0.00  0.00    +0.047 A 
ATOM     22  C   UNL     1       2.317   0.483   2.026  0.00  0.00    +0.027 A 
BRANCH  20  23
ATOM     23  O   UNL     1       1.621   4.040   1.707  0.00  0.00    -0.495 OA
ATOM     24  C   UNL     1       2.476   4.497   2.757  0.00  0.00    +0.277 C 
ENDBRANCH  20  23
ENDBRANCH  15  17
ENDBRANCH   2  13
BRANCH   2  25
ATOM     25  N   UNL     1       1.382  -4.194   0.212  0.00  0.00    -0.277 N 
ATOM     26  C   UNL     1       0.292  -4.210   1.005  0.00  0.00    +0.248 C 
ATOM     27  O   UNL     1       0.292  -3.590   2.050  0.00  0.00    -0.270 OA
ATOM     28  H   UNL     1       1.348  -4.604  -0.667  0.00  0.00    +0.155 HD
BRANCH  26  29
ATOM     29  C   UNL     1      -0.903  -4.981   0.603  0.00  0.00    +0.038 A 
ATOM     30  C   UNL     1      -0.909  -5.690  -0.600  0.00  0.00    +0.013 A 
ATOM     31  C   UNL     1      -2.025  -6.411  -0.968  0.00  0.00    +0.002 A 
ATOM     32  C   UNL     1      -3.143  -6.426  -0.151  0.00  0.00    +0.015 A 
ATOM     33  C   UNL     1      -3.146  -5.722   1.040  0.00  0.00    +0.019 A 
ATOM     34  C   UNL     1      -2.033  -5.000   1.422  0.00  0.00    +0.028 A 
ATOM     35 BR   UNL     1      -4.679  -5.748   2.147  0.00  0.00    -0.050 Br
ENDBRANCH  26  29
ENDBRANCH   2  25
TORSDOF 8
