REMARK  Name = ZINC09236849
REMARK  7 active torsions:
REMARK  status: ('A' for Active; 'I' for Inactive)
REMARK    1  A    between atoms: C_1  and  C_2
REMARK    2  A    between atoms: C_8  and  C_26
REMARK    3  A    between atoms: C_10  and  C_13
REMARK    4  A    between atoms: N_15  and  C_16
REMARK    5  A    between atoms: C_20  and  C_22
REMARK    6  A    between atoms: C_29  and  O_32
REMARK    7  A    between atoms: O_32  and  C_33
REMARK                            x       y       z     vdW  Elec       q    Type
REMARK                         _______ _______ _______ _____ _____    ______ ____
ROOT
ATOM      1  C   UNL     1      -5.492   1.952  -3.194  0.00  0.00    +0.090 C 
ATOM      2  C   UNL     1      -5.606   1.127  -1.937  0.00  0.00    +0.148 A 
ATOM      3  N   UNL     1      -6.615   0.375  -1.594  0.00  0.00    -0.132 NA
ATOM      4  N   UNL     1      -6.381  -0.192  -0.461  0.00  0.00    -0.121 NA
ATOM      5  C   UNL     1      -5.206   0.171  -0.028  0.00  0.00    +0.209 A 
ATOM      6  N   UNL     1      -4.671   1.031  -0.946  0.00  0.00    -0.225 N 
ATOM      7  N   UNL     1      -3.468   1.657  -0.876  0.00  0.00    -0.272 N 
ATOM      8  C   UNL     1      -2.509   0.992   0.007  0.00  0.00    +0.140 C 
ATOM      9  C   UNL     1      -3.063   0.920   1.436  0.00  0.00    +0.166 C 
ATOM     10  S   UNL     1      -4.390  -0.324   1.457  0.00  0.00    -0.069 S 
ATOM     11  H   UNL     1      -3.580   2.627  -0.624  0.00  0.00    +0.167 HD
ENDROOT
BRANCH   8  12
ATOM     12  C   UNL     1      -1.216   1.767   0.012  0.00  0.00    -0.024 A 
ATOM     13  C   UNL     1      -0.009   1.094  -0.001  0.00  0.00    +0.009 A 
ATOM     14  C   UNL     1       1.178   1.802  -0.003  0.00  0.00    +0.046 A 
ATOM     15  C   UNL     1       1.156   3.189   0.014  0.00  0.00    +0.120 A 
ATOM     16  C   UNL     1      -0.057   3.861   0.033  0.00  0.00    +0.046 A 
ATOM     17  C   UNL     1      -1.240   3.149   0.034  0.00  0.00    +0.009 A 
BRANCH  15  18
ATOM     18  O   UNL     1       2.322   3.887   0.012  0.00  0.00    -0.495 OA
ATOM     19  C   UNL     1       2.224   5.313   0.030  0.00  0.00    +0.277 C 
ENDBRANCH  15  18
ENDBRANCH   8  12
BRANCH   9  20
ATOM     20  C   UNL     1      -3.613   2.265   1.838  0.00  0.00    +0.233 C 
ATOM     21  O   UNL     1      -2.892   3.079   2.375  0.00  0.00    -0.274 OA
ATOM     22  N   UNL     1      -4.905   2.563   1.600  0.00  0.00    -0.285 N 
ATOM     23  H   UNL     1      -5.501   1.886   1.243  0.00  0.00    +0.155 HD
BRANCH  22  24
ATOM     24  C   UNL     1      -5.388   3.848   1.869  0.00  0.00    +0.034 A 
ATOM     25  C   UNL     1      -4.569   4.953   1.675  0.00  0.00    +0.023 A 
ATOM     26  C   UNL     1      -5.049   6.221   1.942  0.00  0.00    +0.002 A 
ATOM     27  C   UNL     1      -6.343   6.390   2.400  0.00  0.00    +0.012 A 
ATOM     28  C   UNL     1      -7.160   5.292   2.593  0.00  0.00    +0.057 A 
ATOM     29  C   UNL     1      -6.688   4.022   2.324  0.00  0.00    +0.035 A 
BRANCH  28  30
ATOM     30  C   UNL     1      -8.569   5.482   3.093  0.00  0.00    +0.417 C 
ATOM     31  F   UNL     1      -8.816   6.845   3.287  0.00  0.00    -0.166 F 
ATOM     32  F   UNL     1      -9.470   4.974   2.150  0.00  0.00    -0.166 F 
ATOM     33  F   UNL     1      -8.730   4.802   4.305  0.00  0.00    -0.166 F 
ENDBRANCH  28  30
ENDBRANCH  22  24
ENDBRANCH   9  20
TORSDOF 5
