REMARK  Name = ZINC16252507
REMARK  10 active torsions:
REMARK  status: ('A' for Active; 'I' for Inactive)
REMARK    1  A    between atoms: C_1  and  C_2
REMARK    2  A    between atoms: C_5  and  N_9
REMARK    3  A    between atoms: C_7  and  C_8
REMARK    4  A    between atoms: C_13  and  C_15
REMARK    5  A    between atoms: C_15  and  O_16
REMARK    6  A    between atoms: O_16  and  C_17
REMARK    7  A    between atoms: C_17  and  C_19
REMARK    8  A    between atoms: C_22  and  S_25
REMARK    9  A    between atoms: S_25  and  N_28
REMARK   10  A    between atoms: C_31  and  C_34
REMARK                            x       y       z     vdW  Elec       q    Type
REMARK                         _______ _______ _______ _____ _____    ______ ____
ROOT
ATOM      1  O   UNL     1       2.477  -2.814   0.478  0.00  0.00    -0.452 OA
ENDROOT
BRANCH   1   2
ATOM      2  C   UNL     1       1.305  -2.151   0.513  0.00  0.00    +0.340 C 
ATOM      3  O   UNL     1       0.260  -2.757   0.378  0.00  0.00    -0.245 OA
BRANCH   2   4
ATOM      4  C   UNL     1       1.289  -0.688   0.715  0.00  0.00    +0.059 A 
ATOM      5  C   UNL     1       0.076   0.002   0.751  0.00  0.00    +0.017 A 
ATOM      6  C   UNL     1       0.069   1.369   0.940  0.00  0.00    +0.029 A 
ATOM      7  C   UNL     1       1.261   2.055   1.094  0.00  0.00    +0.106 A 
ATOM      8  C   UNL     1       2.467   1.377   1.059  0.00  0.00    +0.029 A 
ATOM      9  C   UNL     1       2.488   0.011   0.870  0.00  0.00    +0.017 A 
BRANCH   7  10
ATOM     10  S   UNL     1       1.243   3.800   1.335  0.00  0.00    +0.061 S 
ATOM     11  O   UNL     1       2.509   4.283   0.908  0.00  0.00    -0.153 OA
ATOM     12  O   UNL     1       0.021   4.274   0.785  0.00  0.00    -0.153 OA
BRANCH  10  13
ATOM     13  N   UNL     1       1.161   4.068   2.968  0.00  0.00    -0.177 NA
ATOM     14  C   UNL     1      -0.139   4.191   3.642  0.00  0.00    +0.110 C 
ATOM     15  C   UNL     1      -0.168   5.498   4.432  0.00  0.00    +0.020 C 
ATOM     16  C   UNL     1       1.037   5.549   5.374  0.00  0.00    -0.012 C 
ATOM     17  C   UNL     1       2.329   5.506   4.556  0.00  0.00    +0.020 C 
ATOM     18  C   UNL     1       2.387   4.194   3.768  0.00  0.00    +0.110 C 
ATOM     19  C   UNL     1       0.992   6.843   6.189  0.00  0.00    +0.007 C 
ENDBRANCH  10  13
ENDBRANCH   7  10
ENDBRANCH   2   4
ENDBRANCH   1   2
BRANCH   1  20
ATOM     20  C   UNL     1       2.416  -4.251   0.276  0.00  0.00    +0.328 C 
BRANCH  20  25
ATOM     21  N   UNL     1       5.442  -7.968  -0.091  0.00  0.00    -0.269 N 
ATOM     22  C   UNL     1       5.252  -6.645   0.083  0.00  0.00    +0.310 C 
ATOM     23  O   UNL     1       6.207  -5.909   0.231  0.00  0.00    -0.252 OA
ATOM     24  N   UNL     1       4.003  -6.139   0.092  0.00  0.00    -0.237 N 
ATOM     25  C   UNL     1       3.813  -4.817   0.266  0.00  0.00    +0.258 C 
ATOM     26  O   UNL     1       4.765  -4.082   0.414  0.00  0.00    -0.272 OA
ATOM     27  H   UNL     1       4.680  -8.566  -0.133  0.00  0.00    +0.156 HD
ATOM     28  H   UNL     1       3.240  -6.728  -0.027  0.00  0.00    +0.159 HD
BRANCH  21  33
ATOM     29  C   UNL     1      10.701 -10.038  -0.581  0.00  0.00    +0.044 C 
ATOM     30  C   UNL     1       9.304  -9.488  -0.451  0.00  0.00    -0.047 A 
ATOM     31  C   UNL     1       9.010  -8.229  -0.941  0.00  0.00    +0.005 A 
ATOM     32  C   UNL     1       7.729  -7.725  -0.829  0.00  0.00    +0.023 A 
ATOM     33  C   UNL     1       6.739  -8.479  -0.212  0.00  0.00    +0.035 A 
ATOM     34  C   UNL     1       7.038  -9.742   0.280  0.00  0.00    +0.027 A 
ATOM     35  C   UNL     1       8.320 -10.243   0.159  0.00  0.00    -0.046 A 
ATOM     36  C   UNL     1       8.645 -11.615   0.692  0.00  0.00    +0.044 C 
ENDBRANCH  21  33
ENDBRANCH  20  25
ENDBRANCH   1  20
TORSDOF 7
