REMARK  Name = ZINC67165424
REMARK  6 active torsions:
REMARK  status: ('A' for Active; 'I' for Inactive)
REMARK    1  A    between atoms: C_1  and  C_2
REMARK    2  A    between atoms: C_3  and  C_17
REMARK    3  A    between atoms: N_6  and  C_7
REMARK    4  A    between atoms: C_17  and  O_19
REMARK    5  A    between atoms: O_19  and  C_20
REMARK    6  A    between atoms: C_24  and  C_26
REMARK                            x       y       z     vdW  Elec       q    Type
REMARK                         _______ _______ _______ _____ _____    ______ ____
ROOT
ATOM      1  C   UNL     1      -0.580   1.050   0.446  0.00  0.00    +0.068 C 
ATOM      2  C   UNL     1      -0.270  -0.411   0.242  0.00  0.00    +0.076 A 
ATOM      3  C   UNL     1      -0.235  -1.077  -0.951  0.00  0.00    +0.193 A 
ATOM      4  N   UNL     1       0.078  -2.363  -0.711  0.00  0.00    -0.122 NA
ATOM      5  N   UNL     1       0.240  -2.538   0.555  0.00  0.00    -0.060 NA
ATOM      6  N   UNL     1       0.031  -1.312   1.202  0.00  0.00    -0.214 N 
ENDROOT
BRANCH   6   7
ATOM      7  C   UNL     1       0.116  -1.069   2.578  0.00  0.00    +0.093 A 
ATOM      8  C   UNL     1       0.832   0.008   3.050  0.00  0.00    +0.030 A 
ATOM      9  C   UNL     1       0.925   0.261   4.415  0.00  0.00    +0.003 A 
ATOM     10  C   UNL     1       0.311  -0.550   5.321  0.00  0.00    +0.010 A 
ATOM     11  C   UNL     1      -0.428  -1.659   4.879  0.00  0.00    +0.002 A 
ATOM     12  C   UNL     1      -0.536  -1.924   3.492  0.00  0.00    +0.096 A 
ATOM     13  N   UNL     1      -1.243  -2.975   3.069  0.00  0.00    -0.253 NA
ATOM     14  C   UNL     1      -1.851  -3.773   3.913  0.00  0.00    +0.111 A 
ATOM     15  C   UNL     1      -1.791  -3.566   5.289  0.00  0.00    +0.020 A 
ATOM     16  C   UNL     1      -1.075  -2.517   5.790  0.00  0.00    +0.011 A 
ENDBRANCH   6   7
BRANCH   3  17
ATOM     17  C   UNL     1      -0.496  -0.487  -2.276  0.00  0.00    +0.367 C 
ATOM     18  O   UNL     1      -0.772   0.692  -2.372  0.00  0.00    -0.243 OA
BRANCH  17  19
ATOM     19  O   UNL     1      -0.429  -1.256  -3.381  0.00  0.00    -0.421 OA
BRANCH  19  20
ATOM     20  C   UNL     1      -0.578  -0.651  -4.589  0.00  0.00    +0.133 A 
ATOM     21  C   UNL     1       0.411   0.201  -5.064  0.00  0.00    +0.046 A 
ATOM     22  C   UNL     1       0.266   0.818  -6.293  0.00  0.00    +0.004 A 
ATOM     23  C   UNL     1      -0.863   0.593  -7.054  0.00  0.00    +0.013 A 
ATOM     24  C   UNL     1      -1.862  -0.262  -6.584  0.00  0.00    +0.040 A 
ATOM     25  C   UNL     1      -1.712  -0.888  -5.347  0.00  0.00    +0.059 A 
BRANCH  24  26
ATOM     26  C   UNL     1      -3.072  -0.505  -7.398  0.00  0.00    +0.242 C 
ATOM     27  O   UNL     1      -3.941  -1.250  -6.987  0.00  0.00    -0.270 OA
ATOM     28  N   UNL     1      -3.213   0.097  -8.595  0.00  0.00    -0.325 N 
ATOM     29  H   UNL     1      -2.520   0.691  -8.923  0.00  0.00    +0.145 HD
ATOM     30  H   UNL     1      -4.007  -0.063  -9.128  0.00  0.00    +0.145 HD
ENDBRANCH  24  26
ENDBRANCH  19  20
ENDBRANCH  17  19
ENDBRANCH   3  17
TORSDOF 5
