REMARK  Name = ZINC10279251
REMARK  10 active torsions:
REMARK  status: ('A' for Active; 'I' for Inactive)
REMARK    1  A    between atoms: C_1  and  C_2
REMARK    2  A    between atoms: C_5  and  N_9
REMARK    3  A    between atoms: C_6  and  C_8
REMARK    4  A    between atoms: C_13  and  C_15
REMARK    5  A    between atoms: C_15  and  O_16
REMARK    6  A    between atoms: O_16  and  C_17
REMARK    7  A    between atoms: C_17  and  C_19
REMARK    8  A    between atoms: C_23  and  S_25
REMARK    9  A    between atoms: S_25  and  N_28
REMARK   10  A    between atoms: N_28  and  C_29
REMARK                            x       y       z     vdW  Elec       q    Type
REMARK                         _______ _______ _______ _____ _____    ______ ____
ROOT
ATOM      1  C   UNL     1       4.513   1.698  -0.119  0.00  0.00    +0.340 C 
ATOM      2  O   UNL     1       4.630   2.901  -0.002  0.00  0.00    -0.245 OA
ENDROOT
BRANCH   1   3
ATOM      3  C   UNL     1       5.710   0.855  -0.317  0.00  0.00    +0.061 A 
ATOM      4  C   UNL     1       5.580  -0.529  -0.446  0.00  0.00    +0.015 A 
ATOM      5  C   UNL     1       6.701  -1.310  -0.636  0.00  0.00    +0.003 A 
ATOM      6  C   UNL     1       7.954  -0.725  -0.687  0.00  0.00    +0.029 A 
ATOM      7  C   UNL     1       8.091   0.645  -0.554  0.00  0.00    +0.109 A 
ATOM      8  C   UNL     1       6.978   1.438  -0.369  0.00  0.00    +0.043 A 
BRANCH   7   9
ATOM      9  S   UNL     1       9.692   1.379  -0.620  0.00  0.00    +0.072 S 
ATOM     10  O   UNL     1      10.493   0.534  -1.434  0.00  0.00    -0.150 OA
ATOM     11  O   UNL     1       9.496   2.756  -0.913  0.00  0.00    -0.150 OA
BRANCH   9  12
ATOM     12  N   UNL     1      10.328   1.306   0.907  0.00  0.00    -0.216 N 
ATOM     13  H   UNL     1      10.488   2.123   1.406  0.00  0.00    +0.174 HD
BRANCH  12  14
ATOM     14  C   UNL     1      10.634   0.067   1.479  0.00  0.00    +0.048 A 
ATOM     15  C   UNL     1       9.812  -0.467   2.462  0.00  0.00    +0.027 A 
ATOM     16  C   UNL     1      10.114  -1.694   3.022  0.00  0.00    +0.040 A 
ATOM     17  C   UNL     1      11.240  -2.385   2.610  0.00  0.00    +0.124 A 
ATOM     18  C   UNL     1      12.064  -1.852   1.633  0.00  0.00    +0.040 A 
ATOM     19  C   UNL     1      11.763  -0.628   1.067  0.00  0.00    +0.027 A 
ATOM     20  F   UNL     1      11.536  -3.582   3.162  0.00  0.00    -0.205 F 
ENDBRANCH  12  14
ENDBRANCH   9  12
ENDBRANCH   7   9
ENDBRANCH   1   3
BRANCH   1  21
ATOM     21  O   UNL     1       3.292   1.132  -0.069  0.00  0.00    -0.452 OA
BRANCH  21  22
ATOM     22  C   UNL     1       2.161   2.021   0.127  0.00  0.00    +0.328 C 
BRANCH  22  27
ATOM     23  N   UNL     1      -2.622   1.733   0.522  0.00  0.00    -0.269 N 
ATOM     24  C   UNL     1      -1.436   1.114   0.355  0.00  0.00    +0.310 C 
ATOM     25  O   UNL     1      -1.395  -0.094   0.223  0.00  0.00    -0.252 OA
ATOM     26  N   UNL     1      -0.297   1.834   0.329  0.00  0.00    -0.237 N 
ATOM     27  C   UNL     1       0.887   1.216   0.156  0.00  0.00    +0.258 C 
ATOM     28  O   UNL     1       0.929   0.011   0.024  0.00  0.00    -0.272 OA
ATOM     29  H   UNL     1      -2.650   2.684   0.709  0.00  0.00    +0.156 HD
ATOM     30  H   UNL     1      -0.331   2.798   0.434  0.00  0.00    +0.159 HD
BRANCH  23  35
ATOM     31  C   UNL     1      -7.446  -1.227   0.133  0.00  0.00    +0.044 C 
ATOM     32  C   UNL     1      -6.165  -0.440   0.236  0.00  0.00    -0.050 A 
ATOM     33  C   UNL     1      -5.006  -0.931  -0.339  0.00  0.00    +0.005 A 
ATOM     34  C   UNL     1      -3.830  -0.213  -0.246  0.00  0.00    +0.024 A 
ATOM     35  C   UNL     1      -3.812   1.003   0.425  0.00  0.00    +0.038 A 
ATOM     36  C   UNL     1      -4.975   1.490   1.006  0.00  0.00    -0.029 A 
ATOM     37  C   UNL     1      -6.149   0.769   0.905  0.00  0.00    +0.008 A 
ATOM     38  C   UNL     1      -4.959   2.806   1.740  0.00  0.00    +0.045 C 
ENDBRANCH  23  35
ENDBRANCH  22  27
ENDBRANCH  21  22
ENDBRANCH   1  21
TORSDOF 8
