REMARK  Name = ZINC04565435
REMARK  7 active torsions:
REMARK  status: ('A' for Active; 'I' for Inactive)
REMARK    1  A    between atoms: C_1  and  C_2
REMARK    2  A    between atoms: C_9  and  N_24
REMARK    3  A    between atoms: C_10  and  C_22
REMARK    4  A    between atoms: C_11  and  C_13
REMARK    5  A    between atoms: C_16  and  N_19
REMARK    6  A    between atoms: N_19  and  C_20
REMARK    7  A    between atoms: N_19  and  C_21
REMARK                            x       y       z     vdW  Elec       q    Type
REMARK                         _______ _______ _______ _____ _____    ______ ____
ROOT
ATOM      1  C   UNL     1      -0.005   1.532  -0.007  0.00  0.00    +0.065 C 
ATOM      2  C   UNL     1       0.011   0.026   0.002  0.00  0.00    +0.041 A 
ATOM      3  C   UNL     1       0.011  -0.772  -1.077  0.00  0.00    +0.049 A 
ATOM      4  C   UNL     1       0.031  -2.112  -0.631  0.00  0.00    +0.245 A 
ATOM      5  N   UNL     1       0.041  -2.104   0.670  0.00  0.00    -0.135 NA
ATOM      6  N   UNL     1       0.035  -0.767   1.098  0.00  0.00    -0.278 N 
ATOM      7  H   UNL     1       0.043  -0.464   2.020  0.00  0.00    +0.189 HD
ATOM      8  O   UNL     1       0.040  -3.160  -1.498  0.00  0.00    -0.421 OA
ATOM      9  C   UNL     1       0.301  -2.893  -2.793  0.00  0.00    +0.201 C 
ATOM     10  C   UNL     1       0.298  -1.657  -3.334  0.00  0.00    +0.098 C 
ATOM     11  C   UNL     1      -0.007  -0.412  -2.540  0.00  0.00    +0.101 C 
ENDROOT
BRANCH  11  12
ATOM     12  C   UNL     1      -1.368   0.112  -2.918  0.00  0.00    -0.034 A 
ATOM     13  C   UNL     1      -2.485  -0.688  -2.756  0.00  0.00    +0.006 A 
ATOM     14  C   UNL     1      -3.734  -0.211  -3.101  0.00  0.00    +0.023 A 
ATOM     15  C   UNL     1      -3.868   1.074  -3.613  0.00  0.00    +0.029 A 
ATOM     16  C   UNL     1      -2.744   1.874  -3.775  0.00  0.00    +0.023 A 
ATOM     17  C   UNL     1      -1.499   1.393  -3.422  0.00  0.00    +0.006 A 
BRANCH  15  18
ATOM     18  N   UNL     1      -5.130   1.559  -3.964  0.00  0.00    -0.336 N 
ATOM     19  C   UNL     1      -6.296   0.674  -3.912  0.00  0.00    +0.129 C 
ATOM     20  C   UNL     1      -5.287   2.954  -4.384  0.00  0.00    +0.129 C 
ENDBRANCH  15  18
ENDBRANCH  11  12
BRANCH   9  21
ATOM     21  N   UNL     1       0.590  -3.951  -3.618  0.00  0.00    -0.328 N 
ATOM     22  H   UNL     1       0.601  -4.854  -3.263  0.00  0.00    +0.145 HD
ATOM     23  H   UNL     1       0.783  -3.796  -4.556  0.00  0.00    +0.145 HD
ENDBRANCH   9  21
BRANCH  10  24
ATOM     24  C   UNL     1       0.599  -1.522  -4.728  0.00  0.00    +0.101 C 
ATOM     25  N   UNL     1       0.838  -1.414  -5.833  0.00  0.00    -0.191 NA
ENDBRANCH  10  24
TORSDOF 4
