REMARK  Name = ZINC08835686
REMARK  8 active torsions:
REMARK  status: ('A' for Active; 'I' for Inactive)
REMARK    1  A    between atoms: C_1  and  O_2
REMARK    2  A    between atoms: O_2  and  C_3
REMARK    3  A    between atoms: C_12  and  C_13
REMARK    4  A    between atoms: N_15  and  C_16
REMARK    5  A    between atoms: C_16  and  N_18
REMARK    6  A    between atoms: N_18  and  C_19
REMARK    7  A    between atoms: C_22  and  N_25
REMARK    8  A    between atoms: C_26  and  C_28
REMARK                            x       y       z     vdW  Elec       q    Type
REMARK                         _______ _______ _______ _____ _____    ______ ____
ROOT
ATOM      1  N   UNL     1      -5.060   5.255   0.101  0.00  0.00    -0.297 N 
ATOM      2  H   UNL     1      -4.220   5.696  -0.103  0.00  0.00    +0.154 HD
ENDROOT
BRANCH   1   3
ATOM      3  C   UNL     1      -6.264   5.964   0.005  0.00  0.00    +0.033 A 
ATOM      4  C   UNL     1      -6.494   6.799  -1.081  0.00  0.00    +0.025 A 
ATOM      5  C   UNL     1      -7.683   7.494  -1.177  0.00  0.00    +0.025 A 
ATOM      6  C   UNL     1      -8.644   7.367  -0.183  0.00  0.00    +0.034 A 
ATOM      7  C   UNL     1      -8.412   6.536   0.906  0.00  0.00    +0.025 A 
ATOM      8  C   UNL     1      -7.225   5.837   0.999  0.00  0.00    +0.025 A 
BRANCH   6   9
ATOM      9  N   UNL     1      -9.848   8.075  -0.278  0.00  0.00    -0.279 N 
ATOM     10  C   UNL     1     -10.430   8.567   0.834  0.00  0.00    +0.284 C 
ATOM     11  O   UNL     1      -9.937   8.351   1.925  0.00  0.00    -0.266 OA
ATOM     12  H   UNL     1     -10.262   8.213  -1.144  0.00  0.00    +0.155 HD
BRANCH  10  13
ATOM     13  C   UNL     1     -11.659   9.365   0.727  0.00  0.00    +0.191 A 
ATOM     14  C   UNL     1     -12.331   9.909   1.775  0.00  0.00    +0.063 A 
ATOM     15  C   UNL     1     -13.480  10.608   1.201  0.00  0.00    +0.021 A 
ATOM     16  C   UNL     1     -14.533  11.354   1.736  0.00  0.00    +0.011 A 
ATOM     17  C   UNL     1     -15.474  11.891   0.903  0.00  0.00    +0.001 A 
ATOM     18  C   UNL     1     -15.389  11.701  -0.469  0.00  0.00    +0.004 A 
ATOM     19  C   UNL     1     -14.358  10.969  -1.017  0.00  0.00    +0.047 A 
ATOM     20  C   UNL     1     -13.389  10.412  -0.190  0.00  0.00    +0.136 A 
ATOM     21  O   UNL     1     -12.288   9.672  -0.426  0.00  0.00    -0.450 OA
ENDBRANCH  10  13
ENDBRANCH   6   9
ENDBRANCH   1   3
BRANCH   1  22
ATOM     22  C   UNL     1      -5.068   3.961   0.475  0.00  0.00    +0.141 C 
ATOM     23  S   UNL     1      -6.539   3.209   0.926  0.00  0.00    -0.018 S 
BRANCH  22  26
ATOM     24  C   UNL     1      -3.926   1.963   0.868  0.00  0.00    +0.253 C 
ATOM     25  O   UNL     1      -4.971   1.429   1.188  0.00  0.00    -0.270 OA
ATOM     26  N   UNL     1      -3.918   3.257   0.494  0.00  0.00    -0.263 N 
ATOM     27  H   UNL     1      -3.085   3.683   0.238  0.00  0.00    +0.157 HD
BRANCH  24  37
ATOM     28  C   UNL     1      -2.682  -0.162   1.282  0.00  0.00    +0.133 A 
ATOM     29  C   UNL     1      -1.529  -0.891   1.308  0.00  0.00    +0.055 A 
ATOM     30  C   UNL     1      -0.312  -0.293   0.942  0.00  0.00    -0.014 A 
ATOM     31  C   UNL     1       0.888  -1.025   0.961  0.00  0.00    +0.008 A 
ATOM     32  C   UNL     1       2.053  -0.420   0.602  0.00  0.00    +0.001 A 
ATOM     33  C   UNL     1       2.077   0.918   0.212  0.00  0.00    +0.001 A 
ATOM     34  C   UNL     1       0.937   1.659   0.181  0.00  0.00    +0.008 A 
ATOM     35  C   UNL     1      -0.288   1.069   0.546  0.00  0.00    -0.017 A 
ATOM     36  C   UNL     1      -1.479   1.807   0.529  0.00  0.00    +0.025 A 
ATOM     37  C   UNL     1      -2.668   1.193   0.889  0.00  0.00    +0.079 A 
BRANCH  28  39
ATOM     38  C   UNL     1      -3.803  -2.122   2.024  0.00  0.00    +0.277 C 
ATOM     39  O   UNL     1      -3.854  -0.747   1.637  0.00  0.00    -0.494 OA
ENDBRANCH  28  39
ENDBRANCH  24  37
ENDBRANCH  22  26
ENDBRANCH   1  22
TORSDOF 7
