REMARK  Name = ZINC10585515
REMARK  3 active torsions:
REMARK  status: ('A' for Active; 'I' for Inactive)
REMARK    1  A    between atoms: C_6  and  N_7
REMARK    2  A    between atoms: C_9  and  N_14
REMARK    3  A    between atoms: N_17  and  C_18
REMARK                            x       y       z     vdW  Elec       q    Type
REMARK                         _______ _______ _______ _____ _____    ______ ____
ROOT
ATOM      1  N   UNL     1      -2.427   3.895   0.034  0.00  0.00    -0.269 N 
ATOM      2  C   UNL     1      -3.736   3.235  -0.042  0.00  0.00    +0.136 C 
ATOM      3  C   UNL     1      -4.736   4.348  -0.426  0.00  0.00    +0.101 C 
ATOM      4  C   UNL     1      -4.021   5.612   0.103  0.00  0.00    +0.120 C 
ATOM      5  C   UNL     1      -2.557   5.230   0.127  0.00  0.00    +0.222 C 
ATOM      6  O   UNL     1      -1.635   6.013   0.216  0.00  0.00    -0.275 OA
ENDROOT
BRANCH   1  12
ATOM      7  C   UNL     1      -0.012   3.938  -0.023  0.00  0.00    +0.027 A 
ATOM      8  C   UNL     1       1.198   3.273  -0.048  0.00  0.00    +0.051 A 
ATOM      9  C   UNL     1       1.232   1.887  -0.021  0.00  0.00    +0.162 A 
ATOM     10  C   UNL     1       0.045   1.165   0.026  0.00  0.00    +0.164 A 
ATOM     11  C   UNL     1      -1.169   1.833   0.044  0.00  0.00    +0.073 A 
ATOM     12  C   UNL     1      -1.199   3.220   0.016  0.00  0.00    +0.040 A 
ATOM     13  O   UNL     1       0.059  -0.196   0.057  0.00  0.00    -0.485 OA
ATOM     14  C   UNL     1       1.276  -0.837  -0.339  0.00  0.00    +0.270 C 
ATOM     15  C   UNL     1       2.443  -0.125   0.358  0.00  0.00    +0.270 C 
ATOM     16  O   UNL     1       2.435   1.249  -0.044  0.00  0.00    -0.485 OA
ENDBRANCH   1  12
BRANCH   3  17
ATOM     17  N   UNL     1      -4.913   4.415  -1.879  0.00  0.00    -0.294 N 
ATOM     18  C   UNL     1      -6.050   4.920  -2.397  0.00  0.00    +0.304 C 
ATOM     19  O   UNL     1      -6.930   5.319  -1.658  0.00  0.00    -0.252 OA
ATOM     20  N   UNL     1      -6.213   4.982  -3.733  0.00  0.00    -0.268 N 
ATOM     21  H   UNL     1      -4.211   4.096  -2.468  0.00  0.00    +0.151 HD
ATOM     22  H   UNL     1      -5.550   4.588  -4.321  0.00  0.00    +0.156 HD
BRANCH  20  23
ATOM     23  C   UNL     1      -7.339   5.615  -4.273  0.00  0.00    +0.053 A 
ATOM     24  C   UNL     1      -7.890   6.718  -3.634  0.00  0.00    +0.026 A 
ATOM     25  C   UNL     1      -8.998   7.344  -4.171  0.00  0.00    +0.022 A 
ATOM     26  C   UNL     1      -9.566   6.867  -5.340  0.00  0.00    +0.042 A 
ATOM     27  C   UNL     1      -9.023   5.765  -5.976  0.00  0.00    +0.041 A 
ATOM     28  C   UNL     1      -7.911   5.138  -5.446  0.00  0.00    +0.064 A 
ATOM     29 CL   UNL     1      -7.230   3.755  -6.245  0.00  0.00    -0.082 Cl
ATOM     30 CL   UNL     1     -10.962   7.653  -6.008  0.00  0.00    -0.083 Cl
ENDBRANCH  20  23
ENDBRANCH   3  17
TORSDOF 3
