REMARK  Name = ZINC50252566
REMARK  6 active torsions:
REMARK  status: ('A' for Active; 'I' for Inactive)
REMARK    1  A    between atoms: C_1  and  N_2
REMARK    2  A    between atoms: C_4  and  S_7
REMARK    3  A    between atoms: S_7  and  N_10
REMARK    4  A    between atoms: N_10  and  C_11
REMARK    5  A    between atoms: C_14  and  C_18
REMARK    6  A    between atoms: C_16  and  N_17
REMARK                            x       y       z     vdW  Elec       q    Type
REMARK                         _______ _______ _______ _____ _____    ______ ____
ROOT
ATOM      1  C   UNL     1       1.948  -4.980  -2.811  0.00  0.00    +0.095 A 
ATOM      2  C   UNL     1       0.939  -5.754  -3.365  0.00  0.00    +0.029 A 
ATOM      3  C   UNL     1       1.258  -6.840  -4.159  0.00  0.00    +0.014 A 
ATOM      4  C   UNL     1       2.582  -7.158  -4.403  0.00  0.00    +0.057 A 
ATOM      5  C   UNL     1       3.593  -6.392  -3.854  0.00  0.00    +0.037 A 
ATOM      6  C   UNL     1       3.282  -5.298  -3.061  0.00  0.00    +0.050 A 
ENDROOT
BRANCH   4   7
ATOM      7  C   UNL     1       2.922  -8.344  -5.269  0.00  0.00    +0.417 C 
ATOM      8  F   UNL     1       1.743  -8.957  -5.704  0.00  0.00    -0.166 F 
ATOM      9  F   UNL     1       3.661  -7.915  -6.376  0.00  0.00    -0.166 F 
ATOM     10  F   UNL     1       3.679  -9.259  -4.529  0.00  0.00    -0.166 F 
ENDBRANCH   4   7
BRANCH   6  11
ATOM     11  N   UNL     1       4.305  -4.517  -2.509  0.00  0.00    -0.356 N 
ATOM     12  H   UNL     1       4.086  -3.755  -1.952  0.00  0.00    +0.142 HD
ATOM     13  H   UNL     1       5.233  -4.739  -2.684  0.00  0.00    +0.142 HD
ENDBRANCH   6  11
BRANCH   1  14
ATOM     14  N   UNL     1       1.627  -3.880  -2.007  0.00  0.00    -0.096 NA
BRANCH  14  15
ATOM     15  S   UNL     1       0.041  -3.505  -1.711  0.00  0.00    +0.095 S 
ATOM     16  O   UNL     1      -0.492  -4.572  -0.939  0.00  0.00    -0.148 OA
ATOM     17  O   UNL     1      -0.521  -3.109  -2.955  0.00  0.00    -0.148 OA
BRANCH  15  21
ATOM     18  C   UNL     1      -0.018   1.461   0.010  0.00  0.00    +0.172 C 
ATOM     19  N   UNL     1       0.002  -0.004   0.002  0.00  0.00    -0.273 N 
ATOM     20  C   UNL     1       0.008  -0.792  -1.094  0.00  0.00    +0.136 A 
ATOM     21  C   UNL     1       0.027  -2.079  -0.676  0.00  0.00    +0.148 A 
ATOM     22  C   UNL     1       0.034  -2.078   0.723  0.00  0.00    +0.163 A 
ATOM     23  N   UNL     1       0.025  -0.834   1.130  0.00  0.00    -0.178 NA
ENDBRANCH  15  21
ENDBRANCH  14  15
ENDBRANCH   1  14
TORSDOF 5
