REMARK  Name = ZINC61682292
REMARK  6 active torsions:
REMARK  status: ('A' for Active; 'I' for Inactive)
REMARK    1  A    between atoms: C_1  and  C_2
REMARK    2  A    between atoms: C_2  and  C_3
REMARK    3  A    between atoms: C_2  and  N_4
REMARK    4  A    between atoms: C_6  and  N_9
REMARK    5  A    between atoms: C_10  and  C_12
REMARK    6  A    between atoms: C_16  and  N_21
REMARK                            x       y       z     vdW  Elec       q    Type
REMARK                         _______ _______ _______ _____ _____    ______ ____
ROOT
ATOM      1  N   UNL     1       3.567  -1.411   3.098  0.00  0.00    -0.279 N 
ATOM      2  C   UNL     1       3.672  -1.873   4.359  0.00  0.00    +0.255 C 
ATOM      3  O   UNL     1       2.671  -2.034   5.033  0.00  0.00    -0.269 OA
ATOM      4  H   UNL     1       4.365  -1.283   2.561  0.00  0.00    +0.155 HD
ENDROOT
BRANCH   2   5
ATOM      5  C   UNL     1       4.994  -2.184   4.921  0.00  0.00    +0.075 A 
ATOM      6  C   UNL     1       5.298  -2.661   6.158  0.00  0.00    +0.029 A 
ATOM      7  C   UNL     1       6.639  -2.896   6.509  0.00  0.00    -0.008 A 
ATOM      8  C   UNL     1       7.152  -3.386   7.738  0.00  0.00    +0.031 A 
ATOM      9  C   UNL     1       8.505  -3.556   7.910  0.00  0.00    +0.025 A 
ATOM     10  C   UNL     1       9.409  -3.256   6.890  0.00  0.00    +0.024 A 
ATOM     11  C   UNL     1       8.944  -2.782   5.692  0.00  0.00    +0.017 A 
ATOM     12  C   UNL     1       7.590  -2.605   5.502  0.00  0.00    +0.020 A 
ATOM     13  S   UNL     1       6.594  -2.037   4.146  0.00  0.00    -0.084 S 
BRANCH   9  14
ATOM     14  N   UNL     1       8.986  -4.040   9.132  0.00  0.00    -0.358 N 
ATOM     15  H   UNL     1       8.366  -4.251   9.847  0.00  0.00    +0.142 HD
ATOM     16  H   UNL     1       9.939  -4.163   9.263  0.00  0.00    +0.142 HD
ENDBRANCH   9  14
ENDBRANCH   2   5
BRANCH   1  19
ATOM     17  N   UNL     1       0.711  -0.489   1.189  0.00  0.00    -0.267 N 
ATOM     18  C   UNL     1       2.055  -0.643   1.310  0.00  0.00    +0.132 A 
ATOM     19  C   UNL     1       2.302  -1.113   2.560  0.00  0.00    +0.072 A 
ATOM     20  C   UNL     1       1.071  -1.250   3.219  0.00  0.00    +0.157 A 
ATOM     21  N   UNL     1       0.122  -0.871   2.401  0.00  0.00    -0.178 NA
BRANCH  17  23
ATOM     22  C   UNL     1      -0.019   1.526   0.010  0.00  0.00    +0.032 C 
ATOM     23  C   UNL     1       0.002  -0.004   0.002  0.00  0.00    +0.101 C 
ATOM     24  C   UNL     1       0.718  -0.497  -1.257  0.00  0.00    +0.032 C 
ENDBRANCH  17  23
ENDBRANCH   1  19
TORSDOF 4
