REMARK  Name = ZINC36218191
REMARK  9 active torsions:
REMARK  status: ('A' for Active; 'I' for Inactive)
REMARK    1  A    between atoms: C_1  and  C_2
REMARK    2  A    between atoms: C_5  and  C_8
REMARK    3  A    between atoms: N_10  and  C_11
REMARK    4  A    between atoms: C_15  and  C_17
REMARK    5  A    between atoms: C_19  and  C_33
REMARK    6  A    between atoms: N_21  and  C_25
REMARK    7  A    between atoms: C_25  and  C_26
REMARK    8  A    between atoms: N_35  and  C_36
REMARK    9  A    between atoms: C_36  and  C_37
REMARK                            x       y       z     vdW  Elec       q    Type
REMARK                         _______ _______ _______ _____ _____    ______ ____
ROOT
ATOM      1  C   UNL     1      -0.260  -9.040   3.812  0.00  0.00    +0.238 C 
ATOM      2  C   UNL     1       1.141  -9.550   4.227  0.00  0.00    +0.210 C 
ATOM      3  N   UNL     1       0.829 -10.859   4.834  0.00  0.00    -0.248 N 
ATOM      4  C   UNL     1      -0.429 -11.185   4.484  0.00  0.00    +0.405 C 
ATOM      5  O   UNL     1      -0.989 -12.198   4.853  0.00  0.00    -0.226 OA
ATOM      6  O   UNL     1      -1.002 -10.269   3.684  0.00  0.00    -0.440 OA
ENDROOT
BRANCH   1  11
ATOM      7  C   UNL     1      -0.078  -6.256   1.262  0.00  0.00    +0.034 A 
ATOM      8  C   UNL     1      -0.087  -6.973   0.072  0.00  0.00    +0.023 A 
ATOM      9  C   UNL     1      -0.152  -8.352   0.100  0.00  0.00    +0.002 A 
ATOM     10  C   UNL     1      -0.208  -9.020   1.310  0.00  0.00    +0.007 A 
ATOM     11  C   UNL     1      -0.199  -8.309   2.496  0.00  0.00    -0.003 A 
ATOM     12  C   UNL     1      -0.128  -6.930   2.476  0.00  0.00    +0.030 A 
BRANCH   7  15
ATOM     13  C   UNL     1      -0.639  -4.172   0.263  0.00  0.00    +0.248 C 
ATOM     14  O   UNL     1      -1.200  -4.768  -0.636  0.00  0.00    -0.270 OA
ATOM     15  N   UNL     1      -0.013  -4.859   1.238  0.00  0.00    -0.281 N 
ATOM     16  H   UNL     1       0.484  -4.385   1.923  0.00  0.00    +0.155 HD
BRANCH  13  21
ATOM     17  C   UNL     1      -0.662   1.581   0.356  0.00  0.00    +0.044 C 
ATOM     18  C   UNL     1      -0.656   0.075   0.332  0.00  0.00    -0.050 A 
ATOM     19  C   UNL     1      -1.295  -0.600  -0.694  0.00  0.00    +0.004 A 
ATOM     20  C   UNL     1      -1.293  -1.979  -0.722  0.00  0.00    +0.013 A 
ATOM     21  C   UNL     1      -0.645  -2.694   0.287  0.00  0.00    +0.037 A 
ATOM     22  C   UNL     1      -0.002  -2.007   1.318  0.00  0.00    +0.013 A 
ATOM     23  C   UNL     1      -0.007  -0.628   1.331  0.00  0.00    +0.004 A 
ENDBRANCH  13  21
ENDBRANCH   7  15
ENDBRANCH   1  11
BRANCH   2  24
ATOM     24  C   UNL     1       1.773  -8.623   5.233  0.00  0.00    +0.238 C 
ATOM     25  O   UNL     1       1.805  -8.932   6.405  0.00  0.00    -0.274 OA
ATOM     26  N   UNL     1       2.302  -7.451   4.830  0.00  0.00    -0.313 N 
ATOM     27  H   UNL     1       2.276  -7.204   3.892  0.00  0.00    +0.149 HD
BRANCH  26  28
ATOM     28  C   UNL     1       2.917  -6.550   5.808  0.00  0.00    +0.107 C 
BRANCH  28  29
ATOM     29  C   UNL     1       3.435  -5.300   5.095  0.00  0.00    +0.006 C 
ATOM     30  C   UNL     1       4.944  -5.048   5.119  0.00  0.00    +0.005 C 
ATOM     31  C   UNL     1       4.010  -4.179   5.962  0.00  0.00    +0.005 C 
ENDBRANCH  28  29
ENDBRANCH  26  28
ENDBRANCH   2  24
BRANCH   3  32
ATOM     32  C   UNL     1       1.728 -11.660   5.668  0.00  0.00    +0.147 C 
BRANCH  32  33
ATOM     33  C   UNL     1       2.439 -12.675   4.811  0.00  0.00    -0.030 A 
ATOM     34  C   UNL     1       1.834 -13.885   4.528  0.00  0.00    +0.008 A 
ATOM     35  C   UNL     1       2.484 -14.816   3.741  0.00  0.00    +0.038 A 
ATOM     36  C   UNL     1       3.743 -14.537   3.235  0.00  0.00    +0.123 A 
ATOM     37  C   UNL     1       4.348 -13.324   3.519  0.00  0.00    +0.038 A 
ATOM     38  C   UNL     1       3.693 -12.392   4.302  0.00  0.00    +0.008 A 
ATOM     39  F   UNL     1       4.380 -15.447   2.466  0.00  0.00    -0.205 F 
ENDBRANCH  32  33
ENDBRANCH   3  32
TORSDOF 8
