REMARK  Name = ZINC46330168
REMARK  6 active torsions:
REMARK  status: ('A' for Active; 'I' for Inactive)
REMARK    1  A    between atoms: C_1  and  C_2
REMARK    2  A    between atoms: C_10  and  C_16
REMARK    3  A    between atoms: N_18  and  C_19
REMARK    4  A    between atoms: C_22  and  S_25
REMARK    5  A    between atoms: S_25  and  N_28
REMARK    6  A    between atoms: C_32  and  C_35
REMARK                            x       y       z     vdW  Elec       q    Type
REMARK                         _______ _______ _______ _____ _____    ______ ____
ROOT
ATOM      1  C   UNL     1       3.961  -3.947   4.544  0.00  0.00    +0.248 C 
ATOM      2  O   UNL     1       4.497  -2.881   4.774  0.00  0.00    -0.270 OA
ATOM      3  N   UNL     1       4.415  -5.071   5.133  0.00  0.00    -0.282 N 
ATOM      4  H   UNL     1       3.947  -5.910   5.003  0.00  0.00    +0.155 HD
ENDROOT
BRANCH   1  13
ATOM      5  C   UNL     1      -0.021   1.524   0.010  0.00  0.00    +0.008 C 
ATOM      6  C   UNL     1      -0.006  -0.006   0.007  0.00  0.00    -0.009 C 
ATOM      7  C   UNL     1      -1.444  -0.531   0.029  0.00  0.00    +0.009 C 
ATOM      8  C   UNL     1      -1.438  -2.042  -0.225  0.00  0.00    +0.054 C 
ATOM      9  C   UNL     1      -0.441  -2.684   0.711  0.00  0.00    +0.020 A 
ATOM     10  C   UNL     1       0.523  -2.000   1.363  0.00  0.00    -0.019 A 
ATOM     11  C   UNL     1       1.265  -2.961   2.154  0.00  0.00    +0.004 A 
ATOM     12  C   UNL     1       2.353  -2.837   3.017  0.00  0.00    +0.023 A 
ATOM     13  C   UNL     1       2.812  -4.012   3.619  0.00  0.00    +0.038 A 
ATOM     14  C   UNL     1       2.207  -5.249   3.367  0.00  0.00    +0.015 A 
ATOM     15  C   UNL     1       1.138  -5.381   2.521  0.00  0.00    +0.027 A 
ATOM     16  C   UNL     1       0.660  -4.223   1.905  0.00  0.00    +0.047 A 
ATOM     17  N   UNL     1      -0.363  -4.015   1.030  0.00  0.00    -0.358 N 
ATOM     18  H   UNL     1      -0.950  -4.706   0.686  0.00  0.00    +0.166 HD
ATOM     19  C   UNL     1       0.739  -0.513   1.248  0.00  0.00    +0.040 C 
ENDBRANCH   1  13
BRANCH   3  20
ATOM     20  C   UNL     1       5.562  -5.026   5.932  0.00  0.00    +0.034 A 
ATOM     21  C   UNL     1       6.445  -6.099   5.943  0.00  0.00    +0.025 A 
ATOM     22  C   UNL     1       7.577  -6.051   6.733  0.00  0.00    +0.030 A 
ATOM     23  C   UNL     1       7.832  -4.938   7.513  0.00  0.00    +0.106 A 
ATOM     24  C   UNL     1       6.955  -3.869   7.504  0.00  0.00    +0.030 A 
ATOM     25  C   UNL     1       5.825  -3.907   6.711  0.00  0.00    +0.025 A 
BRANCH  23  26
ATOM     26  S   UNL     1       9.276  -4.882   8.520  0.00  0.00    +0.061 S 
ATOM     27  O   UNL     1       9.005  -3.962   9.568  0.00  0.00    -0.153 OA
ATOM     28  O   UNL     1       9.652  -6.230   8.768  0.00  0.00    -0.153 OA
BRANCH  26  29
ATOM     29  N   UNL     1      10.485  -4.215   7.605  0.00  0.00    -0.176 NA
ATOM     30  C   UNL     1      11.355  -5.064   6.781  0.00  0.00    +0.109 C 
ATOM     31  C   UNL     1      11.336  -4.540   5.341  0.00  0.00    +0.018 C 
ATOM     32  C   UNL     1      11.717  -3.058   5.337  0.00  0.00    +0.017 C 
ATOM     33  C   UNL     1      10.695  -2.264   6.155  0.00  0.00    +0.118 C 
ATOM     34  C   UNL     1      10.704  -2.762   7.598  0.00  0.00    +0.124 C 
BRANCH  33  35
ATOM     35  C   UNL     1      11.053  -0.800   6.123  0.00  0.00    +0.360 C 
ATOM     36  O   UNL     1      11.102  -0.208   5.058  0.00  0.00    -0.246 OA
ATOM     37  O   UNL     1      11.293  -0.209   7.161  0.00  0.00    -0.246 OA
ENDBRANCH  33  35
ENDBRANCH  26  29
ENDBRANCH  23  26
ENDBRANCH   3  20
TORSDOF 5
