REMARK  Name = ZINC04177465
REMARK  6 active torsions:
REMARK  status: ('A' for Active; 'I' for Inactive)
REMARK    1  A    between atoms: C_1  and  C_2
REMARK    2  A    between atoms: C_8  and  C_27
REMARK    3  A    between atoms: C_9  and  N_11
REMARK    4  A    between atoms: C_12  and  C_14
REMARK    5  A    between atoms: C_18  and  O_20
REMARK    6  A    between atoms: O_20  and  C_21
REMARK                            x       y       z     vdW  Elec       q    Type
REMARK                         _______ _______ _______ _____ _____    ______ ____
ROOT
ATOM      1  N   UNL     1      -8.330   2.446   0.122  0.00  0.00    -0.275 N 
ATOM      2  C   UNL     1      -7.257   3.260   0.081  0.00  0.00    +0.249 C 
ATOM      3  O   UNL     1      -7.410   4.465   0.026  0.00  0.00    -0.270 OA
ATOM      4  H   UNL     1      -8.208   1.485   0.166  0.00  0.00    +0.156 HD
ENDROOT
BRANCH   1  12
ATOM      5  C   UNL     1     -15.853   3.119   0.393  0.00  0.00    +0.008 C 
ATOM      6  C   UNL     1     -14.421   3.636   0.540  0.00  0.00    -0.009 C 
ATOM      7  C   UNL     1     -14.228   4.863  -0.355  0.00  0.00    +0.009 C 
ATOM      8  C   UNL     1     -12.884   5.520  -0.011  0.00  0.00    +0.043 C 
ATOM      9  C   UNL     1     -11.835   4.452   0.037  0.00  0.00    -0.004 A 
ATOM     10  C   UNL     1     -12.033   3.118   0.100  0.00  0.00    -0.023 A 
ATOM     11  C   UNL     1     -10.824   2.313   0.128  0.00  0.00    +0.068 A 
ATOM     12  C   UNL     1      -9.608   2.982   0.100  0.00  0.00    +0.085 A 
ATOM     13  S   UNL     1     -10.075   4.648   0.023  0.00  0.00    -0.077 S 
ATOM     14  C   UNL     1     -13.441   2.535   0.132  0.00  0.00    +0.040 C 
BRANCH  11  15
ATOM     15  C   UNL     1     -10.886   0.850   0.188  0.00  0.00    +0.244 C 
ATOM     16  O   UNL     1     -10.911   0.285   1.266  0.00  0.00    -0.270 OA
ATOM     17  N   UNL     1     -10.915   0.129  -0.951  0.00  0.00    -0.325 N 
ATOM     18  H   UNL     1     -10.894   0.579  -1.810  0.00  0.00    +0.145 HD
ATOM     19  H   UNL     1     -10.956  -0.839  -0.911  0.00  0.00    +0.145 HD
ENDBRANCH  11  15
ENDBRANCH   1  12
BRANCH   2  20
ATOM     20  C   UNL     1      -5.894   2.689   0.104  0.00  0.00    +0.041 A 
ATOM     21  C   UNL     1      -5.716   1.306   0.168  0.00  0.00    +0.013 A 
ATOM     22  C   UNL     1      -4.442   0.775   0.190  0.00  0.00    +0.004 A 
ATOM     23  C   UNL     1      -3.340   1.610   0.143  0.00  0.00    +0.046 A 
ATOM     24  C   UNL     1      -3.508   2.987   0.085  0.00  0.00    +0.129 A 
ATOM     25  C   UNL     1      -4.782   3.530   0.063  0.00  0.00    +0.059 A 
BRANCH  24  26
ATOM     26  O   UNL     1      -2.421   3.802   0.045  0.00  0.00    -0.456 OA
BRANCH  26  27
ATOM     27  C   UNL     1      -1.909   4.242   1.225  0.00  0.00    +0.128 A 
ATOM     28  C   UNL     1      -2.482   3.840   2.423  0.00  0.00    +0.046 A 
ATOM     29  C   UNL     1      -1.962   4.292   3.621  0.00  0.00    +0.004 A 
ATOM     30  C   UNL     1      -0.867   5.135   3.626  0.00  0.00    +0.000 A 
ATOM     31  C   UNL     1      -0.291   5.532   2.433  0.00  0.00    +0.004 A 
ATOM     32  C   UNL     1      -0.809   5.087   1.233  0.00  0.00    +0.046 A 
ENDBRANCH  26  27
ENDBRANCH  24  26
ENDBRANCH   2  20
TORSDOF 5
