REMARK  Name = ZINC39666295
REMARK  10 active torsions:
REMARK  status: ('A' for Active; 'I' for Inactive)
REMARK    1  A    between atoms: C_1  and  C_2
REMARK    2  A    between atoms: C_5  and  O_8
REMARK    3  A    between atoms: O_8  and  C_9
REMARK    4  A    between atoms: C_9  and  C_11
REMARK    5  A    between atoms: C_9  and  C_12
REMARK    6  A    between atoms: C_12  and  N_13
REMARK    7  A    between atoms: C_14  and  C_16
REMARK    8  A    between atoms: C_27  and  C_29
REMARK    9  A    between atoms: C_29  and  C_30
REMARK   10  A    between atoms: C_34  and  C_36
REMARK                            x       y       z     vdW  Elec       q    Type
REMARK                         _______ _______ _______ _____ _____    ______ ____
ROOT
ATOM      1  C   UNL     1       4.756  -6.780  -0.060  0.00  0.00    +0.100 C 
ATOM      2  C   UNL     1       5.589  -6.113   1.058  0.00  0.00    +0.121 C 
ATOM      3  N   UNL     1       6.218  -7.243   1.781  0.00  0.00    -0.300 N 
ATOM      4  C   UNL     1       6.595  -8.201   0.714  0.00  0.00    +0.115 C 
ATOM      5  C   UNL     1       5.422  -8.149  -0.285  0.00  0.00    -0.004 C 
ATOM      6  C   UNL     1       5.941  -8.255  -1.715  0.00  0.00    -0.010 C 
ATOM      7  C   UNL     1       6.546  -9.645  -1.932  0.00  0.00    -0.082 C 
ATOM      8  N   UNL     1       5.524 -10.669  -1.684  0.00  0.00    +0.379 N 
ATOM      9  C   UNL     1       5.097 -10.621  -0.280  0.00  0.00    -0.082 C 
ATOM     10  C   UNL     1       4.431  -9.272   0.006  0.00  0.00    -0.010 C 
ATOM     11  C   UNL     1       6.405  -7.371   3.110  0.00  0.00    +0.220 C 
ATOM     12  O   UNL     1       6.941  -8.365   3.554  0.00  0.00    -0.275 OA
ATOM     13  H   UNL     1       4.729 -10.501  -2.282  0.00  0.00    -0.086 HD
ATOM     14  H   UNL     1       5.907 -11.581  -1.886  0.00  0.00    -0.086 HD
ENDROOT
BRANCH   1  16
ATOM     15  N   UNL     1       2.334  -6.970  -0.525  0.00  0.00    -0.312 N 
ATOM     16  C   UNL     1       3.328  -6.959   0.386  0.00  0.00    +0.218 C 
ATOM     17  O   UNL     1       3.072  -7.092   1.564  0.00  0.00    -0.275 OA
ATOM     18  H   UNL     1       2.539  -6.864  -1.467  0.00  0.00    +0.149 HD
BRANCH  15  19
ATOM     19  C   UNL     1       0.946  -7.143  -0.091  0.00  0.00    +0.148 C 
BRANCH  19  20
ATOM     20  C   UNL     1       0.024  -7.119  -1.312  0.00  0.00    +0.187 C 
ATOM     21  C   UNL     1      -1.434  -7.175  -0.852  0.00  0.00    +0.053 C 
BRANCH  20  22
ATOM     22  O   UNL     1       0.304  -8.247  -2.143  0.00  0.00    -0.488 OA
BRANCH  22  27
ATOM     23  C   UNL     1      -0.969  -7.776  -7.610  0.00  0.00    +0.044 C 
ATOM     24  C   UNL     1      -0.628  -7.902  -6.147  0.00  0.00    -0.050 A 
ATOM     25  C   UNL     1      -0.973  -6.892  -5.269  0.00  0.00    +0.007 A 
ATOM     26  C   UNL     1      -0.662  -7.005  -3.928  0.00  0.00    +0.046 A 
ATOM     27  C   UNL     1      -0.004  -8.134  -3.462  0.00  0.00    +0.121 A 
ATOM     28  C   UNL     1       0.341  -9.147  -4.346  0.00  0.00    +0.046 A 
ATOM     29  C   UNL     1       0.023  -9.031  -5.685  0.00  0.00    +0.007 A 
ENDBRANCH  22  27
ENDBRANCH  20  22
ENDBRANCH  19  20
ENDBRANCH  15  19
ENDBRANCH   1  16
BRANCH  11  30
ATOM     30  C   UNL     1       5.950  -6.280   4.044  0.00  0.00    +0.131 C 
BRANCH  30  31
ATOM     31  C   UNL     1       6.274  -6.666   5.464  0.00  0.00    -0.038 A 
ATOM     32  C   UNL     1       5.356  -7.379   6.213  0.00  0.00    +0.004 A 
ATOM     33  C   UNL     1       5.654  -7.733   7.516  0.00  0.00    +0.001 A 
ATOM     34  C   UNL     1       6.869  -7.374   8.069  0.00  0.00    +0.003 A 
ATOM     35  C   UNL     1       7.787  -6.662   7.320  0.00  0.00    -0.050 A 
ATOM     36  C   UNL     1       7.491  -6.312   6.016  0.00  0.00    +0.007 A 
ATOM     37  C   UNL     1       9.111  -6.271   7.923  0.00  0.00    +0.044 C 
ENDBRANCH  30  31
ENDBRANCH  11  30
TORSDOF 7
