REMARK  Name = ZINC01874671
REMARK  6 active torsions:
REMARK  status: ('A' for Active; 'I' for Inactive)
REMARK    1  A    between atoms: C_1  and  C_2
REMARK    2  A    between atoms: C_5  and  S_8
REMARK    3  A    between atoms: S_8  and  N_11
REMARK    4  A    between atoms: N_11  and  C_12
REMARK    5  A    between atoms: C_12  and  C_31
REMARK    6  A    between atoms: N_20  and  C_25
REMARK                            x       y       z     vdW  Elec       q    Type
REMARK                         _______ _______ _______ _____ _____    ______ ____
ROOT
ATOM      1  C   UNL     1       2.539  -4.973   0.517  0.00  0.00    +0.245 C 
ATOM      2  C   UNL     1       4.038  -5.100   0.660  0.00  0.00    +0.092 C 
ATOM      3  C   UNL     1       5.098  -4.678  -0.078  0.00  0.00    +0.253 C 
ATOM      4  O   UNL     1       4.899  -3.978  -1.215  0.00  0.00    -0.270 OA
ATOM      5  N   UNL     1       6.371  -4.967   0.342  0.00  0.00    -0.236 N 
ATOM      6  H   UNL     1       7.131  -4.668  -0.181  0.00  0.00    +0.159 HD
ATOM      7  C   UNL     1       6.572  -5.665   1.474  0.00  0.00    +0.318 C 
ATOM      8  O   UNL     1       7.709  -5.910   1.827  0.00  0.00    -0.251 OA
ATOM      9  N   UNL     1       5.543  -6.096   2.225  0.00  0.00    -0.209 N 
ATOM     10  C   UNL     1       4.242  -5.827   1.841  0.00  0.00    +0.137 C 
ATOM     11  N   UNL     1       3.079  -6.141   2.405  0.00  0.00    -0.162 NA
ATOM     12  C   UNL     1       2.022  -5.706   1.740  0.00  0.00    +0.273 C 
ATOM     13  O   UNL     1       0.857  -5.865   2.050  0.00  0.00    -0.271 OA
ENDROOT
BRANCH   9  14
ATOM     14  C   UNL     1       5.789  -6.819   3.399  0.00  0.00    +0.044 A 
ATOM     15  C   UNL     1       6.333  -8.095   3.328  0.00  0.00    +0.024 A 
ATOM     16  C   UNL     1       6.576  -8.805   4.488  0.00  0.00    +0.002 A 
ATOM     17  C   UNL     1       6.277  -8.248   5.717  0.00  0.00    +0.000 A 
ATOM     18  C   UNL     1       5.735  -6.978   5.791  0.00  0.00    +0.002 A 
ATOM     19  C   UNL     1       5.496  -6.260   4.635  0.00  0.00    +0.024 A 
ENDBRANCH   9  14
BRANCH   1  20
ATOM     20  C   UNL     1       2.111  -3.505   0.544  0.00  0.00    +0.422 C 
ATOM     21  F   UNL     1       0.715  -3.425   0.490  0.00  0.00    -0.168 F 
ATOM     22  F   UNL     1       2.567  -2.907   1.724  0.00  0.00    -0.168 F 
ATOM     23  F   UNL     1       2.659  -2.839  -0.558  0.00  0.00    -0.168 F 
ENDBRANCH   1  20
BRANCH   1  24
ATOM     24  N   UNL     1       2.078  -5.624  -0.712  0.00  0.00    -0.162 NA
ATOM     25  H   UNL     1       1.529  -5.134  -1.344  0.00  0.00    +0.150 HD
BRANCH  24  26
ATOM     26  S   UNL     1       2.493  -7.197  -1.022  0.00  0.00    +0.060 S 
ATOM     27  O   UNL     1       3.885  -7.309  -0.759  0.00  0.00    -0.153 OA
ATOM     28  O   UNL     1       1.927  -7.525  -2.283  0.00  0.00    -0.153 OA
BRANCH  26  33
ATOM     29  C   UNL     1      -0.316 -10.627   3.071  0.00  0.00    +0.044 C 
ATOM     30  C   UNL     1       0.386  -9.770   2.049  0.00  0.00    -0.050 A 
ATOM     31  C   UNL     1      -0.281  -9.373   0.905  0.00  0.00    +0.005 A 
ATOM     32  C   UNL     1       0.362  -8.587  -0.033  0.00  0.00    +0.029 A 
ATOM     33  C   UNL     1       1.672  -8.198   0.174  0.00  0.00    +0.105 A 
ATOM     34  C   UNL     1       2.339  -8.595   1.318  0.00  0.00    +0.029 A 
ATOM     35  C   UNL     1       1.694  -9.377   2.257  0.00  0.00    +0.005 A 
ENDBRANCH  26  33
ENDBRANCH  24  26
ENDBRANCH   1  24
TORSDOF 5
