REMARK  Name = ZINC35684478
REMARK  8 active torsions:
REMARK  status: ('A' for Active; 'I' for Inactive)
REMARK    1  A    between atoms: C_1  and  C_2
REMARK    2  A    between atoms: C_5  and  C_8
REMARK    3  A    between atoms: C_9  and  C_31
REMARK    4  A    between atoms: C_13  and  C_19
REMARK    5  A    between atoms: C_16  and  O_18
REMARK    6  A    between atoms: N_21  and  C_22
REMARK    7  A    between atoms: C_26  and  C_28
REMARK    8  A    between atoms: C_28  and  C_30
REMARK                            x       y       z     vdW  Elec       q    Type
REMARK                         _______ _______ _______ _____ _____    ______ ____
ROOT
ATOM      1  C   UNL     1       0.059  -4.257  -0.016  0.00  0.00    +0.098 A 
ATOM      2  C   UNL     1       0.732  -5.081   0.908  0.00  0.00    +0.021 A 
ATOM      3  C   UNL     1       0.505  -6.368   0.551  0.00  0.00    +0.159 A 
ATOM      4  N   UNL     1      -0.287  -6.355  -0.570  0.00  0.00    -0.233 N 
ATOM      5  N   UNL     1      -0.554  -5.030  -0.894  0.00  0.00    -0.168 NA
ATOM      6  C   UNL     1      -0.719  -7.590  -1.231  0.00  0.00    +0.204 C 
ATOM      7  C   UNL     1       0.356  -8.655  -0.996  0.00  0.00    +0.131 C 
ATOM      8  C   UNL     1       0.854  -8.630   0.420  0.00  0.00    +0.191 C 
ATOM      9  N   UNL     1       0.928  -7.536   1.121  0.00  0.00    -0.198 NA
ATOM     10  C   UNL     1       1.556  -4.614   2.080  0.00  0.00    +0.050 C 
ENDROOT
BRANCH   1  15
ATOM     11  C   UNL     1      -0.027   1.502   0.041  0.00  0.00    +0.044 C 
ATOM     12  C   UNL     1      -0.004  -0.005   0.026  0.00  0.00    -0.050 A 
ATOM     13  C   UNL     1      -0.007  -0.682  -1.180  0.00  0.00    +0.004 A 
ATOM     14  C   UNL     1       0.013  -2.062  -1.199  0.00  0.00    +0.010 A 
ATOM     15  C   UNL     1       0.037  -2.773  -0.001  0.00  0.00    +0.002 A 
ATOM     16  C   UNL     1       0.040  -2.086   1.210  0.00  0.00    +0.010 A 
ATOM     17  C   UNL     1       0.025  -0.706   1.218  0.00  0.00    +0.004 A 
ENDBRANCH   1  15
BRANCH   6  18
ATOM     18  C   UNL     1      -2.029  -8.049  -0.645  0.00  0.00    +0.242 C 
ATOM     19  O   UNL     1      -2.555  -7.408   0.241  0.00  0.00    -0.273 OA
ATOM     20  N   UNL     1      -2.616  -9.172  -1.104  0.00  0.00    -0.284 N 
ATOM     21  H   UNL     1      -2.231  -9.647  -1.857  0.00  0.00    +0.155 HD
BRANCH  20  22
ATOM     22  C   UNL     1      -3.782  -9.652  -0.496  0.00  0.00    +0.034 A 
ATOM     23  C   UNL     1      -3.997 -11.021  -0.388  0.00  0.00    +0.023 A 
ATOM     24  C   UNL     1      -5.146 -11.501   0.212  0.00  0.00    +0.002 A 
ATOM     25  C   UNL     1      -6.089 -10.626   0.709  0.00  0.00    +0.011 A 
ATOM     26  C   UNL     1      -5.883  -9.246   0.606  0.00  0.00    +0.019 A 
ATOM     27  C   UNL     1      -4.718  -8.762   0.005  0.00  0.00    +0.034 A 
BRANCH  26  28
ATOM     28  C   UNL     1      -6.887  -8.308   1.135  0.00  0.00    +0.160 C 
ATOM     29  O   UNL     1      -6.706  -7.112   1.045  0.00  0.00    -0.292 OA
ATOM     30  C   UNL     1      -8.139  -8.834   1.788  0.00  0.00    +0.091 C 
ENDBRANCH  26  28
ENDBRANCH  20  22
ENDBRANCH   6  18
BRANCH   8  31
ATOM     31  O   UNL     1       1.240  -9.790   0.991  0.00  0.00    -0.495 OA
ATOM     32  H   UNL     1       1.548  -9.697   1.902  0.00  0.00    +0.293 HD
ENDBRANCH   8  31
TORSDOF 5
