REMARK  Name = ZINC49167792
REMARK  5 active torsions:
REMARK  status: ('A' for Active; 'I' for Inactive)
REMARK    1  A    between atoms: C_1  and  C_2
REMARK    2  A    between atoms: C_5  and  N_9
REMARK    3  A    between atoms: C_7  and  C_8
REMARK    4  A    between atoms: C_10  and  C_12
REMARK    5  A    between atoms: C_14  and  C_18
REMARK                            x       y       z     vdW  Elec       q    Type
REMARK                         _______ _______ _______ _____ _____    ______ ____
ROOT
ATOM      1  N   UNL     1       0.059  -4.169  -0.021  0.00  0.00    -0.280 N 
ATOM      2  C   UNL     1      -0.039  -4.838  -1.187  0.00  0.00    +0.267 C 
ATOM      3  O   UNL     1      -0.053  -4.227  -2.239  0.00  0.00    -0.268 OA
ATOM      4  H   UNL     1       0.148  -4.657   0.812  0.00  0.00    +0.155 HD
ENDROOT
BRANCH   1   9
ATOM      5  C   UNL     1      -0.040   1.502   0.012  0.00  0.00    +0.044 C 
ATOM      6  C   UNL     1      -0.014  -0.004   0.003  0.00  0.00    -0.047 A 
ATOM      7  C   UNL     1       0.749  -0.686   0.934  0.00  0.00    +0.005 A 
ATOM      8  C   UNL     1       0.775  -2.067   0.929  0.00  0.00    +0.023 A 
ATOM      9  C   UNL     1       0.035  -2.771  -0.013  0.00  0.00    +0.034 A 
ATOM     10  C   UNL     1      -0.730  -2.083  -0.946  0.00  0.00    +0.027 A 
ATOM     11  C   UNL     1      -0.756  -0.702  -0.932  0.00  0.00    -0.046 A 
ATOM     12  C   UNL     1      -1.590   0.045  -1.941  0.00  0.00    +0.044 C 
ENDBRANCH   1   9
BRANCH   2  13
ATOM     13  C   UNL     1      -0.130  -6.305  -1.187  0.00  0.00    +0.135 A 
ATOM     14  C   UNL     1      -0.230  -7.132  -2.294  0.00  0.00    +0.071 A 
ATOM     15  C   UNL     1      -0.287  -8.431  -1.781  0.00  0.00    +0.081 A 
ATOM     16  N   UNL     1      -0.224  -8.351  -0.476  0.00  0.00    -0.177 NA
ATOM     17  N   UNL     1      -0.127  -7.128  -0.095  0.00  0.00    -0.271 N 
ATOM     18  H   UNL     1      -0.064  -6.833   0.827  0.00  0.00    +0.189 HD
ATOM     19 BR   UNL     1      -0.279  -6.614  -4.112  0.00  0.00    -0.046 Br
BRANCH  15  20
ATOM     20  C   UNL     1      -0.401  -9.699  -2.587  0.00  0.00    +0.041 C 
ATOM     21  C   UNL     1      -0.651 -11.002  -1.824  0.00  0.00    +0.010 C 
ATOM     22  C   UNL     1       0.721 -10.730  -2.445  0.00  0.00    +0.010 C 
ENDBRANCH  15  20
ENDBRANCH   2  13
TORSDOF 3
