REMARK  Name = ZINC36555920
REMARK  9 active torsions:
REMARK  status: ('A' for Active; 'I' for Inactive)
REMARK    1  A    between atoms: C_1  and  C_2
REMARK    2  A    between atoms: C_5  and  C_7
REMARK    3  A    between atoms: C_7  and  N_8
REMARK    4  A    between atoms: N_8  and  C_9
REMARK    5  A    between atoms: C_9  and  C_11
REMARK    6  A    between atoms: C_9  and  C_20
REMARK    7  A    between atoms: C_14  and  N_17
REMARK    8  A    between atoms: N_22  and  C_23
REMARK    9  A    between atoms: C_29  and  C_31
REMARK                            x       y       z     vdW  Elec       q    Type
REMARK                         _______ _______ _______ _____ _____    ______ ____
ROOT
ATOM      1  C   UNL     1       3.257  -3.515  -2.296  0.00  0.00    +0.193 C 
ENDROOT
BRANCH   1   2
ATOM      2  C   UNL     1       4.325  -4.577  -2.255  0.00  0.00    -0.018 A 
ATOM      3  C   UNL     1       3.972  -5.913  -2.262  0.00  0.00    +0.008 A 
ATOM      4  C   UNL     1       4.952  -6.888  -2.224  0.00  0.00    +0.033 A 
ATOM      5  C   UNL     1       6.285  -6.525  -2.179  0.00  0.00    +0.126 A 
ATOM      6  C   UNL     1       6.639  -5.189  -2.173  0.00  0.00    +0.033 A 
ATOM      7  C   UNL     1       5.659  -4.215  -2.216  0.00  0.00    +0.008 A 
BRANCH   5   8
ATOM      8  N   UNL     1       7.334  -7.569  -2.138  0.00  0.00    +0.056 N 
ATOM      9  O   UNL     1       7.025  -8.737  -2.143  0.00  0.00    -0.126 OA
ATOM     10  O   UNL     1       8.501  -7.252  -2.099  0.00  0.00    -0.126 OA
ENDBRANCH   5   8
ENDBRANCH   1   2
BRANCH   1  11
ATOM     11  C   UNL     1       2.853  -3.264  -3.726  0.00  0.00    +0.238 C 
ATOM     12  O   UNL     1       1.693  -3.388  -4.059  0.00  0.00    -0.273 OA
ATOM     13  N   UNL     1       3.780  -2.904  -4.635  0.00  0.00    -0.311 N 
ATOM     14  H   UNL     1       4.708  -2.805  -4.369  0.00  0.00    +0.149 HD
BRANCH  13  15
ATOM     15  C   UNL     1       3.387  -2.660  -6.026  0.00  0.00    +0.073 C 
ATOM     16  C   UNL     1       3.366  -3.986  -6.789  0.00  0.00    +0.022 C 
ATOM     17  C   UNL     1       2.956  -3.732  -8.241  0.00  0.00    +0.002 C 
ATOM     18  C   UNL     1       3.960  -2.781  -8.896  0.00  0.00    +0.000 C 
ATOM     19  C   UNL     1       3.981  -1.456  -8.132  0.00  0.00    +0.002 C 
ATOM     20  C   UNL     1       4.391  -1.710  -6.681  0.00  0.00    +0.022 C 
ENDBRANCH  13  15
ENDBRANCH   1  11
BRANCH   1  21
ATOM     21  N   UNL     1       2.092  -3.964  -1.531  0.00  0.00    -0.278 N 
ATOM     22  C   UNL     1       2.205  -4.204  -0.209  0.00  0.00    +0.220 C 
ATOM     23  O   UNL     1       3.245  -3.960   0.364  0.00  0.00    -0.275 OA
BRANCH  22  24
ATOM     24  C   UNL     1       1.039  -4.777   0.555  0.00  0.00    +0.075 C 
ATOM     25  C   UNL     1       0.002  -3.679   0.801  0.00  0.00    +0.013 C 
ATOM     26  C   UNL     1      -1.181  -4.261   1.577  0.00  0.00    +0.001 C 
ATOM     27  C   UNL     1      -0.691  -4.809   2.919  0.00  0.00    +0.000 C 
ATOM     28  C   UNL     1       0.346  -5.907   2.673  0.00  0.00    +0.001 C 
ATOM     29  C   UNL     1       1.529  -5.325   1.897  0.00  0.00    +0.013 C 
ENDBRANCH  22  24
BRANCH  21  30
ATOM     30  C   UNL     1       0.803  -4.152  -2.202  0.00  0.00    +0.183 C 
BRANCH  30  35
ATOM     31  C   UNL     1       1.485  -7.257  -6.118  0.00  0.00    +0.086 C 
ATOM     32  C   UNL     1       1.145  -6.758  -4.737  0.00  0.00    +0.102 A 
ATOM     33  C   UNL     1       0.704  -7.512  -3.714  0.00  0.00    +0.045 A 
ATOM     34  C   UNL     1       0.513  -6.641  -2.616  0.00  0.00    +0.046 A 
ATOM     35  C   UNL     1       0.849  -5.408  -3.034  0.00  0.00    +0.122 A 
ATOM     36  O   UNL     1       1.236  -5.485  -4.318  0.00  0.00    -0.463 OA
ENDBRANCH  30  35
ENDBRANCH  21  30
ENDBRANCH   1  21
TORSDOF 8
