REMARK  Name = ZINC07738543
REMARK  4 active torsions:
REMARK  status: ('A' for Active; 'I' for Inactive)
REMARK    1  A    between atoms: C_1  and  C_2
REMARK    2  A    between atoms: C_6  and  C_15
REMARK    3  A    between atoms: N_17  and  C_18
REMARK    4  A    between atoms: C_21  and  C_24
REMARK                            x       y       z     vdW  Elec       q    Type
REMARK                         _______ _______ _______ _____ _____    ______ ____
ROOT
ATOM      1  C   UNL     1       2.266  -6.759   0.114  0.00  0.00    +0.260 C 
ATOM      2  O   UNL     1       1.078  -6.516   0.130  0.00  0.00    -0.271 OA
ATOM      3  N   UNL     1       3.158  -5.753   0.031  0.00  0.00    -0.282 N 
ATOM      4  H   UNL     1       4.104  -5.949  -0.056  0.00  0.00    +0.155 HD
ENDROOT
BRANCH   1  10
ATOM      5  C   UNL     1       6.041  -9.389  -2.002  0.00  0.00    +0.109 C 
ATOM      6  C   UNL     1       5.048 -10.391  -1.470  0.00  0.00    +0.217 C 
ATOM      7  O   UNL     1       5.333 -11.570  -1.442  0.00  0.00    -0.276 OA
ATOM      8  N   UNL     1       3.845  -9.977  -1.026  0.00  0.00    -0.264 N 
ATOM      9  C   UNL     1       3.439  -8.565  -1.128  0.00  0.00    +0.168 C 
ATOM     10  C   UNL     1       2.744  -8.186   0.188  0.00  0.00    +0.276 C 
ATOM     11  O   UNL     1       1.627  -9.056   0.386  0.00  0.00    -0.476 OA
ATOM     12  C   UNL     1       1.835 -10.393   0.255  0.00  0.00    +0.143 A 
ATOM     13  C   UNL     1       2.933 -10.878  -0.450  0.00  0.00    +0.078 A 
ATOM     14  C   UNL     1       3.129 -12.243  -0.580  0.00  0.00    +0.027 A 
ATOM     15  C   UNL     1       2.233 -13.126  -0.005  0.00  0.00    +0.002 A 
ATOM     16  C   UNL     1       1.143 -12.647   0.697  0.00  0.00    +0.004 A 
ATOM     17  C   UNL     1       0.942 -11.285   0.829  0.00  0.00    +0.047 A 
ENDBRANCH   1  10
BRANCH   3  18
ATOM     18  C   UNL     1       2.721  -4.427   0.069  0.00  0.00    +0.034 A 
ATOM     19  C   UNL     1       1.616  -4.082   0.839  0.00  0.00    +0.024 A 
ATOM     20  C   UNL     1       1.183  -2.775   0.879  0.00  0.00    +0.013 A 
ATOM     21  C   UNL     1       1.854  -1.796   0.145  0.00  0.00    +0.017 A 
ATOM     22  C   UNL     1       2.960  -2.146  -0.633  0.00  0.00    +0.013 A 
ATOM     23  C   UNL     1       3.392  -3.454  -0.664  0.00  0.00    +0.024 A 
BRANCH  21  24
ATOM     24  C   UNL     1       1.392  -0.393   0.185  0.00  0.00    +0.139 A 
ATOM     25  N   UNL     1       1.971   0.647  -0.492  0.00  0.00    -0.338 N 
ATOM     26  H   UNL     1       2.769   0.594  -1.092  0.00  0.00    +0.167 HD
ATOM     27  C   UNL     1       1.246   1.784  -0.191  0.00  0.00    +0.066 A 
ATOM     28  C   UNL     1       1.342   3.116  -0.570  0.00  0.00    +0.028 A 
ATOM     29  C   UNL     1       0.438   4.034  -0.077  0.00  0.00    +0.002 A 
ATOM     30  C   UNL     1      -0.571   3.633   0.788  0.00  0.00    +0.002 A 
ATOM     31  C   UNL     1      -0.684   2.326   1.168  0.00  0.00    +0.030 A 
ATOM     32  C   UNL     1       0.223   1.378   0.684  0.00  0.00    +0.089 A 
ATOM     33  N   UNL     1       0.365   0.044   0.874  0.00  0.00    -0.228 NA
ENDBRANCH  21  24
ENDBRANCH   3  18
TORSDOF 3
