REMARK  Name = ZINC09264916
REMARK  14 active torsions:
REMARK  status: ('A' for Active; 'I' for Inactive)
REMARK    1  A    between atoms: C_1  and  C_2
REMARK    2  A    between atoms: C_5  and  N_9
REMARK    3  A    between atoms: C_6  and  C_8
REMARK    4  A    between atoms: C_10  and  C_27
REMARK    5  A    between atoms: C_11  and  C_14
REMARK    6  A    between atoms: N_16  and  C_17
REMARK    7  A    between atoms: C_20  and  C_23
REMARK    8  A    between atoms: C_23  and  O_25
REMARK    9  A    between atoms: O_25  and  C_26
REMARK   10  A    between atoms: C_33  and  O_35
REMARK   11  A    between atoms: O_35  and  C_36
REMARK   12  A    between atoms: C_36  and  C_37
REMARK   13  A    between atoms: C_36  and  C_38
REMARK   14  A    between atoms: C_36  and  C_39
REMARK                            x       y       z     vdW  Elec       q    Type
REMARK                         _______ _______ _______ _____ _____    ______ ____
ROOT
ATOM      1  N   UNL     1       3.073  -6.324  -0.553  0.00  0.00    -0.235 N 
ATOM      2  C   UNL     1       3.500  -5.067  -0.340  0.00  0.00    +0.060 A 
ATOM      3  C   UNL     1       2.382  -4.274  -0.172  0.00  0.00    +0.078 A 
ATOM      4  C   UNL     1       1.252  -5.114  -0.302  0.00  0.00    +0.148 A 
ATOM      5  N   UNL     1       1.674  -6.328  -0.528  0.00  0.00    -0.174 NA
ENDROOT
BRANCH   1  10
ATOM      6  C   UNL     1       6.386 -10.849  -1.429  0.00  0.00    +0.044 C 
ATOM      7  C   UNL     1       5.506  -9.647  -1.196  0.00  0.00    -0.050 A 
ATOM      8  C   UNL     1       5.716  -8.488  -1.920  0.00  0.00    +0.005 A 
ATOM      9  C   UNL     1       4.912  -7.385  -1.710  0.00  0.00    +0.028 A 
ATOM     10  C   UNL     1       3.891  -7.442  -0.770  0.00  0.00    +0.069 A 
ATOM     11  C   UNL     1       3.686  -8.605  -0.041  0.00  0.00    -0.025 A 
ATOM     12  C   UNL     1       4.491  -9.707  -0.260  0.00  0.00    +0.008 A 
ATOM     13  C   UNL     1       2.583  -8.669   0.984  0.00  0.00    +0.046 C 
ENDBRANCH   1  10
BRANCH   2  14
ATOM     14  C   UNL     1       4.935  -4.607  -0.291  0.00  0.00    +0.042 C 
ATOM     15  C   UNL     1       5.215  -3.954   1.064  0.00  0.00    +0.029 C 
ATOM     16  C   UNL     1       6.683  -3.520   1.124  0.00  0.00    +0.112 C 
ATOM     17  N   UNL     1       6.968  -2.659  -0.032  0.00  0.00    -0.267 N 
ATOM     18  C   UNL     1       6.651  -3.154  -1.378  0.00  0.00    +0.112 C 
ATOM     19  C   UNL     1       5.184  -3.593  -1.409  0.00  0.00    +0.029 C 
ATOM     20  C   UNL     1       7.510  -1.437   0.140  0.00  0.00    +0.403 C 
ATOM     21  O   UNL     1       7.741  -0.733  -0.823  0.00  0.00    -0.226 OA
BRANCH  20  22
ATOM     22  O   UNL     1       7.795  -0.995   1.380  0.00  0.00    -0.445 OA
BRANCH  22  23
ATOM     23  C   UNL     1       8.377   0.331   1.490  0.00  0.00    +0.107 C 
ATOM     24  C   UNL     1       7.413   1.361   0.898  0.00  0.00    +0.055 C 
ATOM     25  C   UNL     1       8.630   0.656   2.963  0.00  0.00    +0.055 C 
ATOM     26  C   UNL     1       9.701   0.372   0.724  0.00  0.00    +0.055 C 
ENDBRANCH  22  23
ENDBRANCH  20  22
ENDBRANCH   2  14
BRANCH   3  27
ATOM     27  C   UNL     1       2.368  -2.824   0.089  0.00  0.00    +0.252 C 
ATOM     28  O   UNL     1       3.408  -2.194   0.074  0.00  0.00    -0.270 OA
ATOM     29  N   UNL     1       1.204  -2.196   0.344  0.00  0.00    -0.281 N 
ATOM     30  H   UNL     1       0.385  -2.709   0.433  0.00  0.00    +0.155 HD
BRANCH  29  31
ATOM     31  C   UNL     1       1.175  -0.809   0.480  0.00  0.00    +0.034 A 
ATOM     32  C   UNL     1       0.289  -0.217   1.375  0.00  0.00    +0.024 A 
ATOM     33  C   UNL     1       0.258   1.152   1.511  0.00  0.00    +0.017 A 
ATOM     34  C   UNL     1       1.117   1.948   0.749  0.00  0.00    +0.059 A 
ATOM     35  C   UNL     1       2.006   1.350  -0.150  0.00  0.00    +0.017 A 
ATOM     36  C   UNL     1       2.032  -0.019  -0.281  0.00  0.00    +0.024 A 
BRANCH  34  37
ATOM     37  C   UNL     1       1.087   3.415   0.892  0.00  0.00    +0.339 C 
ATOM     38  O   UNL     1       0.313   3.934   1.673  0.00  0.00    -0.245 OA
BRANCH  37  39
ATOM     39  O   UNL     1       1.916   4.182   0.156  0.00  0.00    -0.464 OA
ATOM     40  C   UNL     1       1.831   5.618   0.349  0.00  0.00    +0.280 C 
ENDBRANCH  37  39
ENDBRANCH  34  37
ENDBRANCH  29  31
ENDBRANCH   3  27
TORSDOF 8
