REMARK  Name = ZINC35646702
REMARK  11 active torsions:
REMARK  status: ('A' for Active; 'I' for Inactive)
REMARK    1  A    between atoms: C_1  and  C_2
REMARK    2  A    between atoms: C_2  and  O_3
REMARK    3  A    between atoms: O_3  and  C_4
REMARK    4  A    between atoms: C_4  and  C_6
REMARK    5  A    between atoms: C_7  and  C_23
REMARK    6  A    between atoms: N_8  and  C_22
REMARK    7  A    between atoms: C_12  and  C_14
REMARK    8  A    between atoms: C_17  and  C_21
REMARK    9  A    between atoms: C_19  and  C_20
REMARK   10  A    between atoms: C_23  and  N_24
REMARK   11  A    between atoms: C_31  and  C_33
REMARK                            x       y       z     vdW  Elec       q    Type
REMARK                         _______ _______ _______ _____ _____    ______ ____
ROOT
ATOM      1  C   UNL     1      -3.114  -2.429   0.335  0.00  0.00    +0.076 C 
ATOM      2  C   UNL     1      -3.206  -3.757   0.111  0.00  0.00    +0.010 C 
ATOM      3  N   UNL     1      -4.386  -4.328  -0.271  0.00  0.00    -0.264 N 
ATOM      4  C   UNL     1      -5.520  -3.639  -0.451  0.00  0.00    +0.307 C 
ATOM      5  O   UNL     1      -6.522  -4.236  -0.792  0.00  0.00    -0.252 OA
ATOM      6  N   UNL     1      -5.586  -2.306  -0.265  0.00  0.00    -0.288 N 
ATOM      7  C   UNL     1      -4.367  -1.595   0.154  0.00  0.00    +0.144 C 
ATOM      8  C   UNL     1      -4.413  -5.775  -0.498  0.00  0.00    +0.139 C 
ATOM      9  H   UNL     1      -6.418  -1.826  -0.401  0.00  0.00    +0.151 HD
ENDROOT
BRANCH   7  10
ATOM     10  C   UNL     1      -4.655  -0.900   1.460  0.00  0.00    -0.020 A 
ATOM     11  C   UNL     1      -5.469  -1.503   2.400  0.00  0.00    +0.006 A 
ATOM     12  C   UNL     1      -5.733  -0.866   3.598  0.00  0.00    +0.004 A 
ATOM     13  C   UNL     1      -5.182   0.376   3.856  0.00  0.00    -0.050 A 
ATOM     14  C   UNL     1      -4.367   0.979   2.917  0.00  0.00    +0.007 A 
ATOM     15  C   UNL     1      -4.100   0.339   1.720  0.00  0.00    -0.045 A 
ATOM     16  C   UNL     1      -3.207   0.994   0.699  0.00  0.00    +0.044 C 
ATOM     17  C   UNL     1      -5.471   1.072   5.161  0.00  0.00    +0.044 C 
ENDBRANCH   7  10
BRANCH   1  18
ATOM     18  C   UNL     1      -1.893  -1.836   0.732  0.00  0.00    +0.339 C 
ATOM     19  O   UNL     1      -1.721  -1.513   1.892  0.00  0.00    -0.245 OA
BRANCH  18  20
ATOM     20  O   UNL     1      -0.917  -1.629  -0.178  0.00  0.00    -0.462 OA
BRANCH  20  22
ATOM     21  C   UNL     1       1.263  -0.846  -0.868  0.00  0.00    +0.048 C 
ATOM     22  C   UNL     1       0.330  -1.131   0.311  0.00  0.00    +0.229 C 
ENDBRANCH  20  22
ENDBRANCH  18  20
ENDBRANCH   1  18
BRANCH   2  23
ATOM     23  C   UNL     1      -1.985  -4.624   0.284  0.00  0.00    -0.026 C 
BRANCH  23  24
ATOM     24  N   UNL     1      -1.835  -4.980   1.701  0.00  0.00    +0.384 N 
ATOM     25  C   UNL     1      -0.535  -5.624   1.879  0.00  0.00    -0.077 C 
ATOM     26  C   UNL     1      -0.033  -5.357   3.281  0.00  0.00    +0.000 C 
ATOM     27  C   UNL     1      -0.451  -6.516   4.204  0.00  0.00    +0.106 C 
ATOM     28  N   UNL     1      -1.821  -6.974   3.896  0.00  0.00    -0.299 N 
ATOM     29  C   UNL     1      -2.899  -6.051   3.603  0.00  0.00    +0.089 C 
ATOM     30  C   UNL     1      -2.945  -5.764   2.084  0.00  0.00    -0.059 C 
ATOM     31  C   UNL     1      -2.077  -8.297   3.886  0.00  0.00    +0.247 C 
ATOM     32  O   UNL     1      -3.167  -8.702   3.533  0.00  0.00    -0.270 OA
ATOM     33  H   UNL     1      -1.843  -4.129   2.244  0.00  0.00    -0.081 HD
BRANCH  31  34
ATOM     34  C   UNL     1      -1.033  -9.254   4.303  0.00  0.00    +0.037 A 
ATOM     35  C   UNL     1      -0.175  -8.939   5.359  0.00  0.00    +0.016 A 
ATOM     36  C   UNL     1       0.798  -9.836   5.745  0.00  0.00    +0.039 A 
ATOM     37  C   UNL     1       0.926 -11.050   5.087  0.00  0.00    +0.123 A 
ATOM     38  C   UNL     1       0.077 -11.368   4.038  0.00  0.00    +0.039 A 
ATOM     39  C   UNL     1      -0.904 -10.481   3.648  0.00  0.00    +0.016 A 
ATOM     40  F   UNL     1       1.881 -11.925   5.468  0.00  0.00    -0.205 F 
ENDBRANCH  31  34
ENDBRANCH  23  24
ENDBRANCH   2  23
TORSDOF 7
