REMARK  Name = ZINC13262025
REMARK  7 active torsions:
REMARK  status: ('A' for Active; 'I' for Inactive)
REMARK    1  A    between atoms: C_1  and  O_2
REMARK    2  A    between atoms: O_2  and  C_3
REMARK    3  A    between atoms: C_3  and  C_5
REMARK    4  A    between atoms: C_10  and  N_11
REMARK    5  A    between atoms: N_11  and  S_12
REMARK    6  A    between atoms: S_12  and  C_15
REMARK    7  A    between atoms: C_19  and  C_21
REMARK                            x       y       z     vdW  Elec       q    Type
REMARK                         _______ _______ _______ _____ _____    ______ ____
ROOT
ATOM      1  N   UNL     1      -1.048   5.690   1.781  0.00  0.00    -0.215 N 
ATOM      2  H   UNL     1      -1.130   5.473   0.839  0.00  0.00    +0.174 HD
ENDROOT
BRANCH   1   8
ATOM      3  C   UNL     1      -1.153   3.386   2.518  0.00  0.00    +0.082 A 
ATOM      4  C   UNL     1      -1.503   2.452   3.497  0.00  0.00    +0.032 A 
ATOM      5  C   UNL     1      -2.088   2.874   4.671  0.00  0.00    +0.019 A 
ATOM      6  C   UNL     1      -2.332   4.222   4.887  0.00  0.00    +0.017 A 
ATOM      7  C   UNL     1      -1.993   5.156   3.931  0.00  0.00    +0.026 A 
ATOM      8  C   UNL     1      -1.397   4.751   2.743  0.00  0.00    +0.062 A 
ATOM      9 BR   UNL     1      -2.561   1.608   5.994  0.00  0.00    -0.050 Br
BRANCH   3  10
ATOM     10  C   UNL     1      -0.527   2.943   1.260  0.00  0.00    +0.341 C 
ATOM     11  O   UNL     1      -0.225   3.759   0.411  0.00  0.00    -0.245 OA
BRANCH  10  13
ATOM     12  C   UNL     1       0.329   1.268  -0.211  0.00  0.00    +0.280 C 
ATOM     13  O   UNL     1      -0.290   1.633   1.051  0.00  0.00    -0.464 OA
ENDBRANCH  10  13
ENDBRANCH   3  10
ENDBRANCH   1   8
BRANCH   1  14
ATOM     14  S   UNL     1      -0.493   7.181   2.242  0.00  0.00    +0.072 S 
ATOM     15  O   UNL     1      -0.102   7.853   1.053  0.00  0.00    -0.150 OA
ATOM     16  O   UNL     1      -1.459   7.715   3.137  0.00  0.00    -0.150 OA
BRANCH  14  17
ATOM     17  C   UNL     1       0.975   6.922   3.181  0.00  0.00    +0.109 A 
ATOM     18  C   UNL     1       0.896   6.760   4.554  0.00  0.00    +0.031 A 
ATOM     19  C   UNL     1       2.041   6.551   5.299  0.00  0.00    +0.041 A 
ATOM     20  C   UNL     1       3.276   6.514   4.678  0.00  0.00    +0.138 A 
ATOM     21  C   UNL     1       3.363   6.683   3.292  0.00  0.00    +0.100 A 
ATOM     22  C   UNL     1       2.199   6.888   2.547  0.00  0.00    +0.046 A 
ATOM     23  F   UNL     1       4.396   6.315   5.408  0.00  0.00    -0.205 F 
BRANCH  21  24
ATOM     24  C   UNL     1       4.676   6.645   2.621  0.00  0.00    +0.389 C 
ATOM     25  O   UNL     1       5.686   6.467   3.272  0.00  0.00    -0.240 OA
ATOM     26  O   UNL     1       4.755   6.808   1.286  0.00  0.00    -0.240 OA
ENDBRANCH  21  24
ENDBRANCH  14  17
ENDBRANCH   1  14
TORSDOF 6
