REMARK  Name = ZINC38688459
REMARK  11 active torsions:
REMARK  status: ('A' for Active; 'I' for Inactive)
REMARK    1  A    between atoms: C_1  and  C_2
REMARK    2  A    between atoms: C_10  and  C_11
REMARK    3  A    between atoms: C_11  and  O_13
REMARK    4  A    between atoms: O_13  and  C_14
REMARK    5  A    between atoms: C_21  and  N_37
REMARK    6  A    between atoms: C_22  and  C_35
REMARK    7  A    between atoms: C_23  and  C_25
REMARK    8  A    between atoms: C_28  and  O_33
REMARK    9  A    between atoms: C_30  and  O_31
REMARK   10  A    between atoms: O_31  and  C_32
REMARK   11  A    between atoms: O_33  and  C_34
REMARK                            x       y       z     vdW  Elec       q    Type
REMARK                         _______ _______ _______ _____ _____    ______ ____
ROOT
ATOM      1  C   UNL     1       0.026  -0.746   4.722  0.00  0.00    +0.136 A 
ATOM      2  C   UNL     1      -0.069   0.630   4.874  0.00  0.00    +0.047 A 
ATOM      3  C   UNL     1      -0.098   1.185   6.138  0.00  0.00    +0.012 A 
ATOM      4  C   UNL     1      -0.034   0.373   7.257  0.00  0.00    +0.008 A 
ATOM      5  C   UNL     1       0.061  -1.002   7.111  0.00  0.00    +0.138 A 
ATOM      6  C   UNL     1       0.085  -1.562   5.840  0.00  0.00    +0.093 A 
ATOM      7  O   UNL     1       0.126  -1.814   8.195  0.00  0.00    -0.441 OA
ATOM      8  C   UNL     1       0.482  -1.311   9.389  0.00  0.00    +0.199 C 
ATOM      9  C   UNL     1       0.415   0.015   9.657  0.00  0.00    +0.098 C 
ATOM     10  C   UNL     1      -0.067   0.997   8.627  0.00  0.00    +0.101 C 
ENDROOT
BRANCH  10  11
ATOM     11  C   UNL     1      -1.479   1.410   8.953  0.00  0.00    +0.007 A 
ATOM     12  C   UNL     1      -2.483   0.461   8.996  0.00  0.00    +0.012 A 
ATOM     13  C   UNL     1      -3.779   0.836   9.295  0.00  0.00    +0.046 A 
ATOM     14  C   UNL     1      -4.075   2.168   9.552  0.00  0.00    +0.124 A 
ATOM     15  C   UNL     1      -3.070   3.121   9.510  0.00  0.00    +0.091 A 
ATOM     16  C   UNL     1      -1.769   2.741   9.215  0.00  0.00    +0.128 A 
BRANCH  16  17
ATOM     17  O   UNL     1      -0.780   3.672   9.179  0.00  0.00    -0.495 OA
ATOM     18  C   UNL     1      -1.151   5.024   9.459  0.00  0.00    +0.277 C 
ENDBRANCH  16  17
BRANCH  14  19
ATOM     19  O   UNL     1      -5.350   2.536   9.845  0.00  0.00    -0.495 OA
ATOM     20  C   UNL     1      -6.335   1.501   9.871  0.00  0.00    +0.277 C 
ENDBRANCH  14  19
ENDBRANCH  10  11
BRANCH   8  21
ATOM     21  N   UNL     1       0.929  -2.166  10.365  0.00  0.00    -0.328 N 
ATOM     22  H   UNL     1       0.983  -3.118  10.188  0.00  0.00    +0.145 HD
ATOM     23  H   UNL     1       1.190  -1.818  11.232  0.00  0.00    +0.145 HD
ENDBRANCH   8  21
BRANCH   9  24
ATOM     24  C   UNL     1       0.810   0.490  10.949  0.00  0.00    +0.101 C 
ATOM     25  N   UNL     1       1.123   0.867  11.974  0.00  0.00    -0.191 NA
ENDBRANCH   9  24
BRANCH   1  26
ATOM     26  O   UNL     1       0.054  -1.293   3.478  0.00  0.00    -0.420 OA
BRANCH  26  27
ATOM     27  C   UNL     1      -1.073  -1.869   3.014  0.00  0.00    +0.380 C 
ATOM     28  O   UNL     1      -2.047  -1.968   3.735  0.00  0.00    -0.241 OA
BRANCH  27  38
ATOM     29  C   UNL     1      -3.542  -3.235   1.704  0.00  0.00    +0.048 C 
ATOM     30  C   UNL     1      -2.203  -2.974   1.064  0.00  0.00    +0.010 A 
ATOM     31  C   UNL     1      -1.802  -3.306  -0.303  0.00  0.00    +0.027 A 
ATOM     32  C   UNL     1      -2.444  -3.916  -1.384  0.00  0.00    +0.050 A 
ATOM     33  C   UNL     1      -1.765  -4.085  -2.571  0.00  0.00    +0.124 A 
ATOM     34  C   UNL     1      -0.449  -3.652  -2.693  0.00  0.00    +0.042 A 
ATOM     35  C   UNL     1       0.195  -3.049  -1.635  0.00  0.00    +0.050 A 
ATOM     36  C   UNL     1      -0.471  -2.868  -0.428  0.00  0.00    +0.136 A 
ATOM     37  O   UNL     1      -0.108  -2.325   0.752  0.00  0.00    -0.448 OA
ATOM     38  C   UNL     1      -1.125  -2.377   1.638  0.00  0.00    +0.216 A 
ATOM     39  F   UNL     1      -2.379  -4.675  -3.619  0.00  0.00    -0.205 F 
ENDBRANCH  27  38
ENDBRANCH  26  27
ENDBRANCH   1  26
TORSDOF 8
