REMARK  Name = ZINC33695519
REMARK  12 active torsions:
REMARK  status: ('A' for Active; 'I' for Inactive)
REMARK    1  A    between atoms: C_1  and  C_2
REMARK    2  A    between atoms: C_8  and  N_10
REMARK    3  A    between atoms: C_11  and  C_13
REMARK    4  A    between atoms: C_21  and  C_32
REMARK    5  A    between atoms: N_27  and  C_28
REMARK    6  A    between atoms: C_28  and  C_29
REMARK    7  A    between atoms: C_28  and  C_30
REMARK    8  A    between atoms: C_28  and  C_31
REMARK    9  A    between atoms: N_34  and  C_35
REMARK   10  A    between atoms: C_38  and  C_41
REMARK   11  A    between atoms: C_41  and  C_42
REMARK   12  A    between atoms: C_41  and  C_43
REMARK                            x       y       z     vdW  Elec       q    Type
REMARK                         _______ _______ _______ _____ _____    ______ ____
ROOT
ATOM      1  C   UNL     1       2.021   4.955  -0.699  0.00  0.00    +0.199 C 
ATOM      2  C   UNL     1       1.380   5.560  -1.909  0.00  0.00    +0.127 C 
ATOM      3  C   UNL     1       1.706   4.809  -3.186  0.00  0.00    +0.009 C 
ATOM      4  C   UNL     1       1.068   5.460  -4.173  0.00  0.00    +0.004 C 
ATOM      5  C   UNL     1       0.398   6.644  -3.465  0.00  0.00    +0.155 C 
ATOM      6  O   UNL     1       0.086   6.069  -2.128  0.00  0.00    -0.358 OA
ATOM      7  C   UNL     1       1.629   7.578  -3.143  0.00  0.00    +0.123 C 
ATOM      8  C   UNL     1       2.185   6.922  -1.905  0.00  0.00    +0.128 C 
ATOM      9  C   UNL     1       3.556   6.417  -1.707  0.00  0.00    +0.224 C 
ATOM     10  O   UNL     1       4.573   6.890  -2.167  0.00  0.00    -0.275 OA
ATOM     11  N   UNL     1       3.461   5.307  -0.902  0.00  0.00    -0.281 N 
ENDROOT
BRANCH   1  13
ATOM     12  N   UNL     1       0.903   2.910   0.132  0.00  0.00    -0.311 N 
ATOM     13  C   UNL     1       1.829   3.461  -0.678  0.00  0.00    +0.237 C 
ATOM     14  O   UNL     1       2.508   2.752  -1.392  0.00  0.00    -0.274 OA
ATOM     15  H   UNL     1       0.287   3.553   0.779  0.00  0.00    +0.149 HD
BRANCH  12  22
ATOM     16  C   UNL     1      -1.711   1.762  -0.352  0.00  0.00    +0.009 C 
ATOM     17  C   UNL     1      -0.705   1.131   0.613  0.00  0.00    +0.006 C 
ATOM     18  C   UNL     1      -0.926   1.693   2.019  0.00  0.00    +0.005 C 
ATOM     19  C   UNL     1       0.081   1.063   2.984  0.00  0.00    +0.000 C 
ATOM     20  C   UNL     1       1.503   1.389   2.523  0.00  0.00    +0.002 C 
ATOM     21  C   UNL     1       1.724   0.827   1.117  0.00  0.00    +0.022 C 
ATOM     22  C   UNL     1       0.717   1.458   0.152  0.00  0.00    +0.076 C 
ENDBRANCH  12  22
ENDBRANCH   1  13
BRANCH  11  23
ATOM     23  C   UNL     1       4.597   4.580  -0.330  0.00  0.00    +0.030 C 
ATOM     24  C   UNL     1       5.239   3.707  -1.410  0.00  0.00    +0.031 C 
ATOM     25  C   UNL     1       5.628   5.579   0.199  0.00  0.00    +0.031 C 
ATOM     26  C   UNL     1       4.109   3.694   0.818  0.00  0.00    +0.031 C 
ENDBRANCH  11  23
BRANCH   7  27
ATOM     27  C   UNL     1       2.634   7.555  -4.266  0.00  0.00    +0.224 C 
ATOM     28  O   UNL     1       3.723   7.051  -4.094  0.00  0.00    -0.275 OA
ATOM     29  N   UNL     1       2.322   8.096  -5.460  0.00  0.00    -0.285 N 
ATOM     30  H   UNL     1       1.307   8.477  -5.643  0.00  0.00    +0.155 HD
BRANCH  29  31
ATOM     31  C   UNL     1       3.291   8.173  -6.467  0.00  0.00    +0.033 A 
ATOM     32  C   UNL     1       4.625   8.372  -6.136  0.00  0.00    +0.023 A 
ATOM     33  C   UNL     1       5.579   8.442  -7.133  0.00  0.00    +0.006 A 
ATOM     34  C   UNL     1       5.205   8.325  -8.459  0.00  0.00    -0.045 A 
ATOM     35  C   UNL     1       3.877   8.133  -8.792  0.00  0.00    +0.006 A 
ATOM     36  C   UNL     1       2.919   8.056  -7.800  0.00  0.00    +0.023 A 
BRANCH  34  37
ATOM     37  C   UNL     1       6.248   8.408  -9.543  0.00  0.00    +0.013 C 
ATOM     38  C   UNL     1       6.950   9.766  -9.474  0.00  0.00    +0.012 C 
ATOM     39  C   UNL     1       7.277   7.292  -9.348  0.00  0.00    +0.012 C 
ENDBRANCH  34  37
ENDBRANCH  29  31
ENDBRANCH   7  27
TORSDOF 6
