REMARK  Name = ZINC46938544
REMARK  3 active torsions:
REMARK  status: ('A' for Active; 'I' for Inactive)
REMARK    1  A    between atoms: C_10  and  C_12
REMARK    2  A    between atoms: C_12  and  N_13
REMARK    3  A    between atoms: C_19  and  C_22
REMARK                            x       y       z     vdW  Elec       q    Type
REMARK                         _______ _______ _______ _____ _____    ______ ____
ROOT
ATOM      1  N   UNL     1       5.025   1.364   0.350  0.00  0.00    -0.299 N 
ATOM      2  C   UNL     1       5.933   2.143   0.972  0.00  0.00    +0.302 C 
ATOM      3  O   UNL     1       6.473   1.754   1.989  0.00  0.00    -0.253 OA
ATOM      4  N   UNL     1       6.242   3.353   0.465  0.00  0.00    -0.285 N 
ATOM      5  C   UNL     1       5.663   3.947  -0.749  0.00  0.00    +0.110 C 
ATOM      6  C   UNL     1       6.294   5.345  -0.920  0.00  0.00    +0.033 C 
ATOM      7  C   UNL     1       6.771   5.690   0.515  0.00  0.00    +0.094 C 
ATOM      8  C   UNL     1       7.212   4.303   1.040  0.00  0.00    +0.122 C 
ATOM      9  H   UNL     1       4.594   1.675  -0.462  0.00  0.00    +0.150 HD
ENDROOT
BRANCH   7  10
ATOM     10  C   UNL     1       7.931   6.652   0.483  0.00  0.00    +0.215 C 
ATOM     11  O   UNL     1       8.361   7.047  -0.580  0.00  0.00    -0.276 OA
ATOM     12  N   UNL     1       8.489   7.074   1.635  0.00  0.00    -0.329 N 
ATOM     13  H   UNL     1       8.144   6.758   2.485  0.00  0.00    +0.145 HD
ATOM     14  H   UNL     1       9.235   7.693   1.614  0.00  0.00    +0.145 HD
ENDBRANCH   7  10
BRANCH   1  15
ATOM     15  C   UNL     1       4.689   0.049   0.901  0.00  0.00    +0.114 C 
BRANCH  15  25
ATOM     16  C   UNL     1       2.535  -4.339   1.796  0.00  0.00    +0.000 A 
ATOM     17  C   UNL     1       2.625  -3.171   2.530  0.00  0.00    +0.000 A 
ATOM     18  C   UNL     1       3.018  -2.002   1.911  0.00  0.00    +0.004 A 
ATOM     19  C   UNL     1       3.326  -1.989   0.557  0.00  0.00    -0.040 A 
ATOM     20  C   UNL     1       3.241  -3.154  -0.173  0.00  0.00    -0.044 A 
ATOM     21  C   UNL     1       2.842  -4.329   0.451  0.00  0.00    +0.004 A 
ATOM     22  C   UNL     1       3.575  -3.217  -1.640  0.00  0.00    +0.035 C 
ATOM     23  C   UNL     1       3.569  -1.818  -2.253  0.00  0.00    +0.005 C 
ATOM     24  C   UNL     1       4.449  -0.907  -1.389  0.00  0.00    +0.010 C 
ATOM     25  C   UNL     1       3.741  -0.677  -0.056  0.00  0.00    +0.036 C 
ENDBRANCH  15  25
ENDBRANCH   1  15
TORSDOF 3
