REMARK  Name = ZINC34681165
REMARK  3 active torsions:
REMARK  status: ('A' for Active; 'I' for Inactive)
REMARK    1  A    between atoms: C_4  and  N_7
REMARK    2  A    between atoms: N_10  and  C_11
REMARK    3  A    between atoms: C_24  and  C_26
REMARK                            x       y       z     vdW  Elec       q    Type
REMARK                         _______ _______ _______ _____ _____    ______ ____
ROOT
ATOM      1  C   UNL     1       4.103  -3.659   1.445  0.00  0.00    +0.051 A 
ATOM      2  C   UNL     1       3.049  -4.533   1.185  0.00  0.00    +0.028 A 
ATOM      3  C   UNL     1       3.339  -5.867   0.966  0.00  0.00    +0.043 A 
ATOM      4  C   UNL     1       4.664  -6.290   1.014  0.00  0.00    +0.099 A 
ATOM      5  N   UNL     1       5.639  -5.431   1.264  0.00  0.00    -0.348 N 
ATOM      6  C   UNL     1       5.399  -4.150   1.471  0.00  0.00    +0.107 A 
ATOM      7  N   UNL     1       4.967  -7.631   0.796  0.00  0.00    -0.315 N 
ATOM      8  C   UNL     1       6.354  -8.076   0.997  0.00  0.00    +0.108 C 
ATOM      9  C   UNL     1       6.442  -9.411   1.741  0.00  0.00    +0.038 C 
ATOM     10  C   UNL     1       5.433  -9.452   2.871  0.00  0.00    +0.109 C 
ATOM     11  N   UNL     1       4.163  -9.930   2.326  0.00  0.00    -0.296 N 
ATOM     12  C   UNL     1       3.218  -9.112   1.649  0.00  0.00    +0.127 C 
ATOM     13  C   UNL     1       3.896  -8.523   0.388  0.00  0.00    +0.125 C 
ATOM     14  C   UNL     1       3.868 -11.236   2.477  0.00  0.00    +0.247 C 
ATOM     15  O   UNL     1       2.882 -11.703   1.940  0.00  0.00    -0.270 OA
ATOM     16  H   UNL     1       6.555  -5.751   1.292  0.00  0.00    +0.167 HD
ENDROOT
BRANCH  14  17
ATOM     17  C   UNL     1       4.742 -12.102   3.295  0.00  0.00    +0.037 A 
ATOM     18  C   UNL     1       4.184 -13.062   4.141  0.00  0.00    +0.016 A 
ATOM     19  C   UNL     1       5.004 -13.867   4.902  0.00  0.00    +0.039 A 
ATOM     20  C   UNL     1       6.382 -13.724   4.828  0.00  0.00    +0.123 A 
ATOM     21  C   UNL     1       6.941 -12.772   3.990  0.00  0.00    +0.039 A 
ATOM     22  C   UNL     1       6.130 -11.966   3.220  0.00  0.00    +0.016 A 
ATOM     23  F   UNL     1       7.181 -14.515   5.577  0.00  0.00    -0.205 F 
ENDBRANCH  14  17
BRANCH   1  27
ATOM     24  N   UNL     1       2.390  -0.589   2.289  0.00  0.00    -0.269 N 
ATOM     25  C   UNL     1       2.668  -1.902   2.171  0.00  0.00    +0.308 C 
ATOM     26  O   UNL     1       1.847  -2.731   2.514  0.00  0.00    -0.252 OA
ATOM     27  N   UNL     1       3.856  -2.297   1.671  0.00  0.00    -0.268 N 
ATOM     28  H   UNL     1       3.012   0.072   1.946  0.00  0.00    +0.156 HD
ATOM     29  H   UNL     1       4.540  -1.640   1.469  0.00  0.00    +0.156 HD
BRANCH  24  33
ATOM     30  C   UNL     1      -1.141   0.636   4.130  0.00  0.00    +0.000 A 
ATOM     31  C   UNL     1      -0.569  -0.575   4.472  0.00  0.00    +0.002 A 
ATOM     32  C   UNL     1       0.601  -0.985   3.863  0.00  0.00    +0.023 A 
ATOM     33  C   UNL     1       1.204  -0.177   2.907  0.00  0.00    +0.035 A 
ATOM     34  C   UNL     1       0.627   1.039   2.567  0.00  0.00    +0.023 A 
ATOM     35  C   UNL     1      -0.543   1.442   3.179  0.00  0.00    +0.002 A 
ENDBRANCH  24  33
ENDBRANCH   1  27
TORSDOF 3
