REMARK  Name = ZINC01118485
REMARK  9 active torsions:
REMARK  status: ('A' for Active; 'I' for Inactive)
REMARK    1  A    between atoms: C_1  and  C_2
REMARK    2  A    between atoms: C_5  and  S_8
REMARK    3  A    between atoms: S_8  and  N_11
REMARK    4  A    between atoms: N_11  and  C_12
REMARK    5  A    between atoms: N_11  and  C_13
REMARK    6  A    between atoms: C_18  and  C_19
REMARK    7  A    between atoms: N_21  and  C_22
REMARK    8  A    between atoms: C_25  and  N_28
REMARK    9  A    between atoms: C_29  and  C_31
REMARK                            x       y       z     vdW  Elec       q    Type
REMARK                         _______ _______ _______ _____ _____    ______ ____
ROOT
ATOM      1  C   UNL     1       1.460  -5.062  -1.841  0.00  0.00    +0.063 A 
ATOM      2  C   UNL     1       1.518  -6.389  -2.251  0.00  0.00    +0.025 A 
ATOM      3  C   UNL     1       2.547  -6.816  -3.064  0.00  0.00    +0.002 A 
ATOM      4  C   UNL     1       3.530  -5.930  -3.477  0.00  0.00    +0.001 A 
ATOM      5  C   UNL     1       3.489  -4.611  -3.081  0.00  0.00    +0.015 A 
ATOM      6  C   UNL     1       2.450  -4.161  -2.262  0.00  0.00    +0.060 A 
ENDROOT
BRANCH   6   7
ATOM      7  C   UNL     1       2.397  -2.750  -1.839  0.00  0.00    +0.250 C 
ATOM      8  O   UNL     1       1.541  -2.381  -1.058  0.00  0.00    -0.270 OA
ATOM      9  N   UNL     1       3.298  -1.869  -2.317  0.00  0.00    -0.281 N 
ATOM     10  H   UNL     1       3.932  -2.145  -2.998  0.00  0.00    +0.155 HD
BRANCH   9  11
ATOM     11  C   UNL     1       3.320  -0.556  -1.831  0.00  0.00    +0.034 A 
ATOM     12  C   UNL     1       3.004  -0.302  -0.502  0.00  0.00    +0.025 A 
ATOM     13  C   UNL     1       3.026   0.992  -0.023  0.00  0.00    +0.025 A 
ATOM     14  C   UNL     1       3.363   2.040  -0.869  0.00  0.00    +0.033 A 
ATOM     15  C   UNL     1       3.678   1.786  -2.198  0.00  0.00    +0.025 A 
ATOM     16  C   UNL     1       3.662   0.491  -2.676  0.00  0.00    +0.025 A 
BRANCH  14  17
ATOM     17  N   UNL     1       3.384   3.354  -0.383  0.00  0.00    -0.286 N 
ATOM     18  C   UNL     1       3.048   4.377  -1.192  0.00  0.00    +0.214 C 
ATOM     19  O   UNL     1       2.632   4.156  -2.310  0.00  0.00    -0.276 OA
ATOM     20  C   UNL     1       3.188   5.798  -0.708  0.00  0.00    +0.109 C 
ATOM     21  H   UNL     1       3.641   3.526   0.536  0.00  0.00    +0.155 HD
ENDBRANCH  14  17
ENDBRANCH   9  11
ENDBRANCH   6   7
BRANCH   1  22
ATOM     22  N   UNL     1       0.425  -4.630  -1.022  0.00  0.00    -0.205 N 
ATOM     23  C   UNL     1      -0.866  -4.260  -1.607  0.00  0.00    +0.157 C 
BRANCH  22  24
ATOM     24  S   UNL     1       0.650  -4.531   0.616  0.00  0.00    +0.074 S 
ATOM     25  O   UNL     1      -0.347  -3.648   1.111  0.00  0.00    -0.150 OA
ATOM     26  O   UNL     1       2.038  -4.306   0.822  0.00  0.00    -0.150 OA
BRANCH  24  31
ATOM     27  C   UNL     1      -0.571  -9.973   2.918  0.00  0.00    +0.044 C 
ATOM     28  C   UNL     1      -0.266  -8.614   2.343  0.00  0.00    -0.050 A 
ATOM     29  C   UNL     1       1.038  -8.269   2.038  0.00  0.00    +0.005 A 
ATOM     30  C   UNL     1       1.317  -7.022   1.511  0.00  0.00    +0.029 A 
ATOM     31  C   UNL     1       0.294  -6.121   1.287  0.00  0.00    +0.109 A 
ATOM     32  C   UNL     1      -1.010  -6.466   1.591  0.00  0.00    +0.029 A 
ATOM     33  C   UNL     1      -1.290  -7.715   2.114  0.00  0.00    +0.005 A 
ENDBRANCH  24  31
ENDBRANCH  22  24
ENDBRANCH   1  22
TORSDOF 6
