REMARK  Name = ZINC36698263
REMARK  18 active torsions:
REMARK  status: ('A' for Active; 'I' for Inactive)
REMARK    1  A    between atoms: C_1  and  C_2
REMARK    2  A    between atoms: C_2  and  C_3
REMARK    3  A    between atoms: C_3  and  C_4
REMARK    4  A    between atoms: C_4  and  N_5
REMARK    5  A    between atoms: N_5  and  C_6
REMARK    6  A    between atoms: N_5  and  S_10
REMARK    7  A    between atoms: C_6  and  C_7
REMARK    8  A    between atoms: C_7  and  C_8
REMARK    9  A    between atoms: C_8  and  C_9
REMARK   10  A    between atoms: S_10  and  C_13
REMARK   11  A    between atoms: C_16  and  C_19
REMARK   12  A    between atoms: C_19  and  N_21
REMARK   13  A    between atoms: N_23  and  C_33
REMARK   14  A    between atoms: C_26  and  C_32
REMARK   15  A    between atoms: C_27  and  C_31
REMARK   16  A    between atoms: C_33  and  C_34
REMARK   17  A    between atoms: C_34  and  O_35
REMARK   18  A    between atoms: O_35  and  C_36
REMARK                            x       y       z     vdW  Elec       q    Type
REMARK                         _______ _______ _______ _____ _____    ______ ____
ROOT
ATOM      1  C   UNL     1       3.978  -1.430   2.715  0.00  0.00    +0.106 A 
ATOM      2  C   UNL     1       4.328  -0.550   1.706  0.00  0.00    +0.029 A 
ATOM      3  C   UNL     1       5.029   0.600   2.002  0.00  0.00    +0.015 A 
ATOM      4  C   UNL     1       5.386   0.875   3.322  0.00  0.00    +0.039 A 
ATOM      5  C   UNL     1       5.031  -0.016   4.335  0.00  0.00    +0.015 A 
ATOM      6  C   UNL     1       4.325  -1.160   4.027  0.00  0.00    +0.029 A 
ENDROOT
BRANCH   1   7
ATOM      7  S   UNL     1       3.083  -2.898   2.328  0.00  0.00    +0.061 S 
ATOM      8  O   UNL     1       3.346  -3.822   3.375  0.00  0.00    -0.153 OA
ATOM      9  O   UNL     1       3.354  -3.192   0.965  0.00  0.00    -0.153 OA
BRANCH   7  10
ATOM     10  N   UNL     1       1.471  -2.526   2.420  0.00  0.00    -0.177 NA
BRANCH  10  11
ATOM     11  C   UNL     1       0.763  -2.041   1.233  0.00  0.00    +0.109 C 
BRANCH  11  12
ATOM     12  C   UNL     1       0.742  -0.511   1.242  0.00  0.00    +0.017 C 
BRANCH  12  14
ATOM     13  C   UNL     1      -0.019   1.526   0.010  0.00  0.00    +0.004 C 
ATOM     14  C   UNL     1       0.002  -0.004   0.002  0.00  0.00    -0.002 C 
ENDBRANCH  12  14
ENDBRANCH  11  12
ENDBRANCH  10  11
BRANCH  10  15
ATOM     15  C   UNL     1       0.755  -2.683   3.688  0.00  0.00    +0.109 C 
BRANCH  15  16
ATOM     16  C   UNL     1       0.067  -4.049   3.720  0.00  0.00    +0.017 C 
BRANCH  16  17
ATOM     17  C   UNL     1      -0.681  -4.213   5.044  0.00  0.00    -0.002 C 
ATOM     18  C   UNL     1      -1.369  -5.579   5.076  0.00  0.00    +0.004 C 
ENDBRANCH  16  17
ENDBRANCH  15  16
ENDBRANCH  10  15
ENDBRANCH   7  10
ENDBRANCH   1   7
BRANCH   4  19
ATOM     19  C   UNL     1       6.140   2.108   3.647  0.00  0.00    +0.269 C 
ATOM     20  O   UNL     1       6.449   2.885   2.761  0.00  0.00    -0.268 OA
BRANCH  19  21
ATOM     21  N   UNL     1       6.480   2.369   4.913  0.00  0.00    -0.152 NA
ATOM     22  C   UNL     1       7.156   3.476   5.205  0.00  0.00    +0.167 A 
ATOM     23  N   UNL     1       7.585   3.893   6.424  0.00  0.00    -0.319 N 
ATOM     24  C   UNL     1       8.281   5.082   6.538  0.00  0.00    +0.058 A 
ATOM     25  C   UNL     1       8.809   5.692   7.684  0.00  0.00    +0.030 A 
ATOM     26  C   UNL     1       9.477   6.891   7.594  0.00  0.00    -0.046 A 
ATOM     27  C   UNL     1       9.648   7.527   6.376  0.00  0.00    -0.046 A 
ATOM     28  C   UNL     1       9.137   6.945   5.229  0.00  0.00    +0.020 A 
ATOM     29  C   UNL     1       8.469   5.747   5.318  0.00  0.00    +0.039 A 
ATOM     30  S   UNL     1       7.680   4.672   4.147  0.00  0.00    -0.052 S 
ATOM     31  C   UNL     1      10.382   8.841   6.300  0.00  0.00    +0.044 C 
ATOM     32  C   UNL     1      10.033   7.524   8.844  0.00  0.00    +0.044 C 
BRANCH  23  33
ATOM     33  C   UNL     1       7.312   3.085   7.615  0.00  0.00    +0.152 C 
BRANCH  33  34
ATOM     34  C   UNL     1       8.458   2.096   7.836  0.00  0.00    +0.181 C 
BRANCH  34  35
ATOM     35  O   UNL     1       9.657   2.814   8.134  0.00  0.00    -0.381 OA
ATOM     36  C   UNL     1      10.794   1.980   8.358  0.00  0.00    +0.194 C 
ENDBRANCH  34  35
ENDBRANCH  33  34
ENDBRANCH  23  33
ENDBRANCH  19  21
ENDBRANCH   4  19
TORSDOF 13
