REMARK  Name = ZINC20504582
REMARK  11 active torsions:
REMARK  status: ('A' for Active; 'I' for Inactive)
REMARK    1  A    between atoms: C_1  and  C_2
REMARK    2  A    between atoms: N_9  and  C_10
REMARK    3  A    between atoms: C_10  and  C_12
REMARK    4  A    between atoms: C_12  and  N_13
REMARK    5  A    between atoms: N_13  and  C_14
REMARK    6  A    between atoms: N_13  and  C_15
REMARK    7  A    between atoms: C_17  and  C_37
REMARK    8  A    between atoms: C_20  and  O_36
REMARK    9  A    between atoms: C_22  and  C_26
REMARK   10  A    between atoms: C_26  and  C_28
REMARK   11  A    between atoms: C_26  and  C_29
REMARK                            x       y       z     vdW  Elec       q    Type
REMARK                         _______ _______ _______ _____ _____    ______ ____
ROOT
ATOM      1  C   UNL     1       2.585  -1.550  -1.538  0.00  0.00    +0.014 C 
ATOM      2  C   UNL     1       1.728  -0.366  -1.084  0.00  0.00    +0.039 C 
ATOM      3  C   UNL     1       0.357  -0.453  -1.735  0.00  0.00    +0.031 A 
ATOM      4  C   UNL     1      -0.243   0.667  -2.213  0.00  0.00    +0.013 A 
ATOM      5  S   UNL     1      -1.779   0.047  -2.846  0.00  0.00    -0.057 S 
ATOM      6  C   UNL     1      -1.517  -1.623  -2.440  0.00  0.00    +0.163 A 
ATOM      7  N   UNL     1      -0.328  -1.586  -1.875  0.00  0.00    -0.339 N 
ATOM      8  N   UNL     1      -2.348  -2.715  -2.656  0.00  0.00    -0.158 NA
ATOM      9  C   UNL     1       0.286   2.053  -2.212  0.00  0.00    +0.051 C 
ATOM     10  C   UNL     1       1.477   2.131  -1.237  0.00  0.00    -0.022 C 
ATOM     11  C   UNL     1       2.410   0.946  -1.496  0.00  0.00    +0.033 C 
ATOM     12  C   UNL     1       3.689   1.080  -0.664  0.00  0.00    +0.123 C 
ATOM     13  C   UNL     1       4.392   2.390  -0.954  0.00  0.00    +0.029 C 
ATOM     14  C   UNL     1       3.452   3.553  -0.619  0.00  0.00    +0.007 C 
ATOM     15  C   UNL     1       2.210   3.449  -1.501  0.00  0.00    +0.008 C 
ATOM     16  C   UNL     1       0.974   2.093   0.208  0.00  0.00    +0.012 C 
ATOM     17  H   UNL     1       0.097  -2.534  -1.512  0.00  0.00    +0.167 HD
ENDROOT
BRANCH   8  18
ATOM     18  C   UNL     1      -3.542  -2.545  -3.258  0.00  0.00    +0.222 C 
ATOM     19  O   UNL     1      -3.891  -1.438  -3.611  0.00  0.00    -0.276 OA
BRANCH  18  20
ATOM     20  C   UNL     1      -4.444  -3.729  -3.493  0.00  0.00    +0.020 C 
BRANCH  20  21
ATOM     21  N   UNL     1      -5.675  -3.284  -4.159  0.00  0.00    +0.382 N 
ATOM     22  C   UNL     1      -6.471  -4.430  -4.616  0.00  0.00    -0.096 C 
ATOM     23  C   UNL     1      -6.464  -2.413  -3.277  0.00  0.00    -0.096 C 
ATOM     24  H   UNL     1      -5.387  -2.697  -5.044  0.00  0.00    -0.082 HD
ENDBRANCH  20  21
ENDBRANCH  18  20
ENDBRANCH   8  18
BRANCH  13  25
ATOM     25  C   UNL     1       4.758   2.439  -2.439  0.00  0.00    +0.078 C 
ATOM     26  C   UNL     1       5.807   1.367  -2.740  0.00  0.00    +0.017 C 
BRANCH  25  27
ATOM     27  C   UNL     1       5.317   3.797  -2.775  0.00  0.00    +0.219 C 
ATOM     28  O   UNL     1       5.981   4.399  -1.957  0.00  0.00    -0.275 OA
ATOM     29  N   UNL     1       5.080   4.344  -3.984  0.00  0.00    -0.301 N 
ATOM     30  C   UNL     1       5.634   5.614  -4.474  0.00  0.00    +0.108 C 
ATOM     31  C   UNL     1       5.070   5.844  -5.891  0.00  0.00    +0.020 C 
ATOM     32  C   UNL     1       3.780   4.981  -5.894  0.00  0.00    +0.020 C 
ATOM     33  C   UNL     1       4.216   3.770  -5.031  0.00  0.00    +0.108 C 
ENDBRANCH  25  27
ENDBRANCH  13  25
BRANCH  12  34
ATOM     34  O   UNL     1       4.561  -0.014  -0.957  0.00  0.00    -0.391 OA
ATOM     35  H   UNL     1       5.536  -0.090  -0.453  0.00  0.00    +0.210 HD
ENDBRANCH  12  34
TORSDOF 6
