REMARK  Name = ZINC16568881
REMARK  9 active torsions:
REMARK  status: ('A' for Active; 'I' for Inactive)
REMARK    1  A    between atoms: C_1  and  C_2
REMARK    2  A    between atoms: C_5  and  N_8
REMARK    3  A    between atoms: C_9  and  C_21
REMARK    4  A    between atoms: C_12  and  S_13
REMARK    5  A    between atoms: S_13  and  C_14
REMARK    6  A    between atoms: C_14  and  C_15
REMARK    7  A    between atoms: C_21  and  C_23
REMARK    8  A    between atoms: C_21  and  N_24
REMARK    9  A    between atoms: N_27  and  C_28
REMARK                            x       y       z     vdW  Elec       q    Type
REMARK                         _______ _______ _______ _____ _____    ______ ____
ROOT
ATOM      1  N   UNL     1      -8.223   3.357   1.126  0.00  0.00    -0.273 N 
ATOM      2  C   UNL     1      -7.230   3.781   0.283  0.00  0.00    +0.159 A 
ATOM      3  N   UNL     1      -7.457   5.037   0.018  0.00  0.00    -0.131 NA
ATOM      4  N   UNL     1      -8.519   5.432   0.624  0.00  0.00    -0.122 NA
ATOM      5  C   UNL     1      -9.030   4.444   1.321  0.00  0.00    +0.196 A 
ENDROOT
BRANCH   1  10
ATOM      6  C   UNL     1      -8.854  -1.828   3.349  0.00  0.00    +0.044 C 
ATOM      7  C   UNL     1      -8.686  -0.451   2.759  0.00  0.00    -0.050 A 
ATOM      8  C   UNL     1      -8.426   0.627   3.585  0.00  0.00    +0.005 A 
ATOM      9  C   UNL     1      -8.272   1.889   3.047  0.00  0.00    +0.026 A 
ATOM     10  C   UNL     1      -8.378   2.076   1.676  0.00  0.00    +0.050 A 
ATOM     11  C   UNL     1      -8.645   0.993   0.849  0.00  0.00    +0.026 A 
ATOM     12  C   UNL     1      -8.793  -0.269   1.393  0.00  0.00    +0.005 A 
ENDBRANCH   1  10
BRANCH   2  13
ATOM     13  C   UNL     1      -6.084   2.951  -0.236  0.00  0.00    +0.140 C 
ATOM     14  C   UNL     1      -6.340   2.588  -1.700  0.00  0.00    +0.036 C 
BRANCH  13  15
ATOM     15  N   UNL     1      -4.840   3.718  -0.134  0.00  0.00    -0.290 N 
ATOM     16  C   UNL     1      -3.658   3.076  -0.047  0.00  0.00    +0.304 C 
ATOM     17  O   UNL     1      -3.624   1.861  -0.054  0.00  0.00    -0.252 OA
ATOM     18  N   UNL     1      -2.513   3.781   0.047  0.00  0.00    -0.269 N 
ATOM     19  H   UNL     1      -4.867   4.687  -0.129  0.00  0.00    +0.151 HD
ATOM     20  H   UNL     1      -2.544   4.748   0.118  0.00  0.00    +0.156 HD
BRANCH  18  21
ATOM     21  C   UNL     1      -1.284   3.120   0.042  0.00  0.00    +0.042 A 
ATOM     22  C   UNL     1      -1.157   1.882   0.634  0.00  0.00    +0.024 A 
ATOM     23  C   UNL     1       0.066   1.218   0.639  0.00  0.00    +0.002 A 
ATOM     24  C   UNL     1       1.165   1.764   0.051  0.00  0.00    +0.008 A 
ATOM     25  C   UNL     1       1.077   3.021  -0.570  0.00  0.00    -0.016 A 
ATOM     26  C   UNL     1      -0.161   3.710  -0.577  0.00  0.00    +0.003 A 
ATOM     27  C   UNL     1      -0.247   4.966  -1.197  0.00  0.00    +0.010 A 
ATOM     28  C   UNL     1       0.857   5.506  -1.784  0.00  0.00    +0.001 A 
ATOM     29  C   UNL     1       2.075   4.829  -1.778  0.00  0.00    +0.001 A 
ATOM     30  C   UNL     1       2.196   3.610  -1.186  0.00  0.00    +0.008 A 
ENDBRANCH  18  21
ENDBRANCH  13  15
ENDBRANCH   2  13
BRANCH   5  31
ATOM     31  S   UNL     1     -10.481   4.506   2.320  0.00  0.00    -0.081 S 
BRANCH  31  32
ATOM     32  C   UNL     1     -10.962   6.232   2.067  0.00  0.00    +0.112 C 
BRANCH  32  33
ATOM     33  C   UNL     1     -12.217   6.523   2.849  0.00  0.00    -0.037 A 
ATOM     34  C   UNL     1     -13.456   6.339   2.263  0.00  0.00    +0.004 A 
ATOM     35  C   UNL     1     -14.607   6.601   2.982  0.00  0.00    +0.000 A 
ATOM     36  C   UNL     1     -14.519   7.058   4.284  0.00  0.00    +0.000 A 
ATOM     37  C   UNL     1     -13.281   7.248   4.868  0.00  0.00    +0.000 A 
ATOM     38  C   UNL     1     -12.130   6.980   4.151  0.00  0.00    +0.004 A 
ENDBRANCH  32  33
ENDBRANCH  31  32
ENDBRANCH   5  31
TORSDOF 7
