REMARK  Name = ZINC34899740
REMARK  9 active torsions:
REMARK  status: ('A' for Active; 'I' for Inactive)
REMARK    1  A    between atoms: C_1  and  C_2
REMARK    2  A    between atoms: C_2  and  C_3
REMARK    3  A    between atoms: C_3  and  C_5
REMARK    4  A    between atoms: C_3  and  C_11
REMARK    5  A    between atoms: C_16  and  C_19
REMARK    6  A    between atoms: N_21  and  C_22
REMARK    7  A    between atoms: C_28  and  N_30
REMARK    8  A    between atoms: C_31  and  C_33
REMARK    9  A    between atoms: C_38  and  C_39
REMARK                            x       y       z     vdW  Elec       q    Type
REMARK                         _______ _______ _______ _____ _____    ______ ____
ROOT
ATOM      1  C   UNL     1       3.171   5.671  -3.630  0.00  0.00    +0.216 C 
ATOM      2  O   UNL     1       2.307   6.116  -4.357  0.00  0.00    -0.276 OA
ATOM      3  N   UNL     1       4.329   6.342  -3.473  0.00  0.00    -0.310 N 
ATOM      4  H   UNL     1       5.020   5.986  -2.892  0.00  0.00    +0.149 HD
ENDROOT
BRANCH   1  10
ATOM      5  C   UNL     1       2.188   0.346  -3.228  0.00  0.00    +0.223 C 
ATOM      6  O   UNL     1       3.110  -0.379  -3.538  0.00  0.00    -0.275 OA
ATOM      7  N   UNL     1       2.434   1.591  -2.776  0.00  0.00    -0.301 N 
ATOM      8  C   UNL     1       1.328   2.515  -2.489  0.00  0.00    +0.108 C 
ATOM      9  C   UNL     1       1.564   3.820  -3.255  0.00  0.00    +0.032 C 
ATOM     10  C   UNL     1       2.948   4.370  -2.904  0.00  0.00    +0.078 C 
ATOM     11  C   UNL     1       4.021   3.362  -3.325  0.00  0.00    +0.032 C 
ATOM     12  C   UNL     1       3.812   2.050  -2.554  0.00  0.00    +0.108 C 
BRANCH   5  13
ATOM     13  C   UNL     1       0.769  -0.146  -3.348  0.00  0.00    +0.105 C 
BRANCH  13  14
ATOM     14  C   UNL     1       0.248   0.155  -4.730  0.00  0.00    -0.036 A 
ATOM     15  C   UNL     1       0.878  -0.381  -5.838  0.00  0.00    +0.004 A 
ATOM     16  C   UNL     1       0.401  -0.105  -7.105  0.00  0.00    +0.000 A 
ATOM     17  C   UNL     1      -0.707   0.707  -7.265  0.00  0.00    +0.000 A 
ATOM     18  C   UNL     1      -1.337   1.243  -6.157  0.00  0.00    +0.000 A 
ATOM     19  C   UNL     1      -0.862   0.963  -4.889  0.00  0.00    +0.004 A 
ENDBRANCH  13  14
BRANCH  13  21
ATOM     20  C   UNL     1       1.197  -1.957  -1.681  0.00  0.00    +0.005 C 
ATOM     21  C   UNL     1       0.731  -1.657  -3.107  0.00  0.00    +0.014 C 
ENDBRANCH  13  21
ENDBRANCH   5  13
ENDBRANCH   1  10
BRANCH   3  22
ATOM     22  C   UNL     1       4.545   7.607  -4.178  0.00  0.00    +0.093 C 
ATOM     23  C   UNL     1       3.941   8.754  -3.366  0.00  0.00    +0.024 C 
ATOM     24  C   UNL     1       4.167  10.076  -4.103  0.00  0.00    +0.002 C 
ATOM     25  C   UNL     1       5.668  10.312  -4.279  0.00  0.00    +0.002 C 
ATOM     26  C   UNL     1       6.272   9.165  -5.092  0.00  0.00    +0.024 C 
ATOM     27  C   UNL     1       6.047   7.843  -4.355  0.00  0.00    +0.093 C 
BRANCH  27  28
ATOM     28  N   UNL     1       6.690   7.901  -3.040  0.00  0.00    -0.307 N 
ATOM     29  C   UNL     1       7.997   7.599  -2.915  0.00  0.00    +0.245 C 
ATOM     30  O   UNL     1       8.643   7.277  -3.893  0.00  0.00    -0.270 OA
ATOM     31  H   UNL     1       6.174   8.158  -2.259  0.00  0.00    +0.149 HD
BRANCH  29  32
ATOM     32  C   UNL     1       8.646   7.658  -1.588  0.00  0.00    +0.040 A 
ATOM     33  C   UNL     1       7.948   8.159  -0.488  0.00  0.00    +0.013 A 
ATOM     34  C   UNL     1       8.559   8.211   0.748  0.00  0.00    +0.001 A 
ATOM     35  C   UNL     1       9.861   7.767   0.898  0.00  0.00    +0.000 A 
ATOM     36  C   UNL     1      10.558   7.269  -0.188  0.00  0.00    +0.004 A 
ATOM     37  C   UNL     1       9.957   7.206  -1.428  0.00  0.00    -0.038 A 
ATOM     38  C   UNL     1      10.716   6.658  -2.609  0.00  0.00    +0.044 C 
ENDBRANCH  29  32
ENDBRANCH  27  28
ENDBRANCH   3  22
TORSDOF 7
