REMARK  Name = ZINC20246662
REMARK  4 active torsions:
REMARK  status: ('A' for Active; 'I' for Inactive)
REMARK    1  A    between atoms: C_4  and  N_17
REMARK    2  A    between atoms: C_5  and  C_7
REMARK    3  A    between atoms: N_9  and  C_10
REMARK    4  A    between atoms: N_20  and  C_21
REMARK                            x       y       z     vdW  Elec       q    Type
REMARK                         _______ _______ _______ _____ _____    ______ ____
ROOT
ATOM      1  C   UNL     1      -0.294   1.219  -0.049  0.00  0.00    +0.001 A 
ATOM      2  C   UNL     1       0.791   2.070  -0.192  0.00  0.00    +0.002 A 
ATOM      3  C   UNL     1       2.076   1.567  -0.212  0.00  0.00    +0.024 A 
ATOM      4  C   UNL     1       2.290   0.200  -0.090  0.00  0.00    +0.047 A 
ATOM      5  C   UNL     1       1.195  -0.664   0.055  0.00  0.00    +0.058 A 
ATOM      6  C   UNL     1      -0.100  -0.140   0.074  0.00  0.00    +0.015 A 
ENDROOT
BRANCH   4   7
ATOM      7  N   UNL     1       3.586  -0.309  -0.111  0.00  0.00    -0.268 N 
ATOM      8  C   UNL     1       4.622   0.469   0.257  0.00  0.00    +0.308 C 
ATOM      9  O   UNL     1       4.418   1.580   0.707  0.00  0.00    -0.252 OA
ATOM     10  N   UNL     1       5.885   0.016   0.127  0.00  0.00    -0.269 N 
ATOM     11  H   UNL     1       3.742  -1.225  -0.391  0.00  0.00    +0.156 HD
ATOM     12  H   UNL     1       6.052  -0.837  -0.303  0.00  0.00    +0.156 HD
BRANCH  10  13
ATOM     13  C   UNL     1       6.955   0.778   0.611  0.00  0.00    +0.035 A 
ATOM     14  C   UNL     1       6.806   1.530   1.769  0.00  0.00    +0.024 A 
ATOM     15  C   UNL     1       7.864   2.280   2.244  0.00  0.00    +0.017 A 
ATOM     16  C   UNL     1       9.071   2.282   1.568  0.00  0.00    +0.018 A 
ATOM     17  C   UNL     1       9.222   1.534   0.414  0.00  0.00    +0.017 A 
ATOM     18  C   UNL     1       8.169   0.778  -0.063  0.00  0.00    +0.024 A 
ATOM     19 BR   UNL     1      10.517   3.311   2.222  0.00  0.00    -0.050 Br
ENDBRANCH  10  13
ENDBRANCH   4   7
BRANCH   5  20
ATOM     20  C   UNL     1       1.409  -2.117   0.186  0.00  0.00    +0.250 C 
ATOM     21  O   UNL     1       2.538  -2.561   0.267  0.00  0.00    -0.270 OA
ATOM     22  N   UNL     1       0.353  -2.954   0.215  0.00  0.00    -0.281 N 
ATOM     23  H   UNL     1      -0.542  -2.611   0.067  0.00  0.00    +0.155 HD
BRANCH  22  24
ATOM     24  C   UNL     1       0.547  -4.318   0.460  0.00  0.00    +0.034 A 
ATOM     25  C   UNL     1      -0.365  -5.248  -0.020  0.00  0.00    +0.024 A 
ATOM     26  C   UNL     1      -0.170  -6.593   0.223  0.00  0.00    +0.017 A 
ATOM     27  C   UNL     1       0.932  -7.015   0.945  0.00  0.00    +0.018 A 
ATOM     28  C   UNL     1       1.842  -6.090   1.425  0.00  0.00    +0.017 A 
ATOM     29  C   UNL     1       1.656  -4.744   1.180  0.00  0.00    +0.024 A 
ATOM     30 BR   UNL     1       1.195  -8.858   1.276  0.00  0.00    -0.050 Br
ENDBRANCH  22  24
ENDBRANCH   5  20
TORSDOF 4
