REMARK  Name = ZINC34755944
REMARK  6 active torsions:
REMARK  status: ('A' for Active; 'I' for Inactive)
REMARK    1  A    between atoms: C_1  and  C_2
REMARK    2  A    between atoms: C_2  and  S_3
REMARK    3  A    between atoms: S_3  and  C_4
REMARK    4  A    between atoms: N_20  and  C_23
REMARK    5  A    between atoms: C_23  and  C_24
REMARK    6  A    between atoms: N_26  and  C_27
REMARK                            x       y       z     vdW  Elec       q    Type
REMARK                         _______ _______ _______ _____ _____    ______ ____
ROOT
ATOM      1  C   UNL     1       1.528  -3.322   0.166  0.00  0.00    +0.191 A 
ATOM      2  N   UNL     1       2.064  -4.046   1.142  0.00  0.00    -0.206 NA
ATOM      3  C   UNL     1       1.363  -4.436   2.193  0.00  0.00    +0.134 A 
ATOM      4  C   UNL     1      -0.010  -4.074   2.287  0.00  0.00    +0.051 A 
ATOM      5  C   UNL     1      -0.971  -4.392   3.346  0.00  0.00    -0.025 A 
ATOM      6  C   UNL     1      -2.225  -3.924   3.195  0.00  0.00    -0.004 A 
ATOM      7  S   UNL     1      -2.208  -3.042   1.657  0.00  0.00    -0.073 S 
ATOM      8  C   UNL     1      -0.510  -3.306   1.217  0.00  0.00    +0.115 A 
ATOM      9  N   UNL     1       0.256  -2.951   0.203  0.00  0.00    -0.215 NA
ATOM     10  C   UNL     1      -3.383  -4.111   4.128  0.00  0.00    +0.043 C 
ATOM     11  C   UNL     1      -3.034  -5.236   5.114  0.00  0.00    +0.005 C 
ATOM     12  C   UNL     1      -1.629  -4.983   5.669  0.00  0.00    +0.005 C 
ATOM     13  C   UNL     1      -0.588  -5.216   4.573  0.00  0.00    +0.037 C 
ATOM     14  N   UNL     1       1.957  -5.189   3.189  0.00  0.00    -0.318 N 
ATOM     15  C   UNL     1       1.860  -6.657   3.188  0.00  0.00    +0.088 C 
ATOM     16  C   UNL     1       3.268  -7.237   3.358  0.00  0.00    -0.059 C 
ATOM     17  N   UNL     1       3.886  -6.672   4.564  0.00  0.00    +0.387 N 
ATOM     18  C   UNL     1       4.072  -5.225   4.399  0.00  0.00    -0.059 C 
ATOM     19  C   UNL     1       2.709  -4.546   4.277  0.00  0.00    +0.088 C 
ATOM     20  H   UNL     1       3.289  -6.845   5.359  0.00  0.00    -0.081 HD
ENDROOT
BRANCH   1  21
ATOM     21  S   UNL     1       2.529  -2.841  -1.202  0.00  0.00    -0.086 S 
BRANCH  21  23
ATOM     22  C   UNL     1       2.155  -1.399  -3.496  0.00  0.00    +0.016 C 
ATOM     23  C   UNL     1       1.403  -1.884  -2.255  0.00  0.00    +0.074 C 
ENDBRANCH  21  23
ENDBRANCH   1  21
BRANCH  17  24
ATOM     24  C   UNL     1       5.190  -7.310   4.788  0.00  0.00    +0.019 C 
BRANCH  24  25
ATOM     25  C   UNL     1       5.771  -6.821   6.090  0.00  0.00    +0.197 C 
ATOM     26  O   UNL     1       5.159  -6.021   6.765  0.00  0.00    -0.278 OA
ATOM     27  N   UNL     1       6.971  -7.274   6.504  0.00  0.00    -0.314 N 
ATOM     28  H   UNL     1       7.461  -7.914   5.965  0.00  0.00    +0.149 HD
BRANCH  27  29
ATOM     29  C   UNL     1       7.536  -6.799   7.770  0.00  0.00    +0.073 C 
ATOM     30  C   UNL     1       8.278  -5.482   7.535  0.00  0.00    +0.022 C 
ATOM     31  C   UNL     1       8.868  -4.986   8.857  0.00  0.00    +0.002 C 
ATOM     32  C   UNL     1       9.843  -6.030   9.403  0.00  0.00    +0.000 C 
ATOM     33  C   UNL     1       9.101  -7.347   9.639  0.00  0.00    +0.002 C 
ATOM     34  C   UNL     1       8.511  -7.843   8.317  0.00  0.00    +0.022 C 
ENDBRANCH  27  29
ENDBRANCH  24  25
ENDBRANCH  17  24
TORSDOF 5
