REMARK  Name = ZINC02204880
REMARK  9 active torsions:
REMARK  status: ('A' for Active; 'I' for Inactive)
REMARK    1  A    between atoms: C_1  and  O_2
REMARK    2  A    between atoms: O_2  and  C_3
REMARK    3  A    between atoms: C_6  and  O_33
REMARK    4  A    between atoms: C_7  and  C_9
REMARK    5  A    between atoms: C_17  and  O_32
REMARK    6  A    between atoms: C_20  and  C_21
REMARK    7  A    between atoms: C_20  and  N_63
REMARK    8  A    between atoms: N_23  and  C_24
REMARK    9  A    between atoms: O_33  and  C_34
REMARK                            x       y       z     vdW  Elec       q    Type
REMARK                         _______ _______ _______ _____ _____    ______ ____
ROOT
ATOM      1  C   UNL     1      -1.016  -0.636  -0.042  0.00  0.00    -0.027 C 
ATOM      2  C   UNL     1      -1.327  -0.665   1.455  0.00  0.00    +0.011 C 
ATOM      3  C   UNL     1      -1.100   0.720   2.063  0.00  0.00    +0.005 C 
ATOM      4  C   UNL     1      -1.423   0.673   3.559  0.00  0.00    +0.000 C 
ATOM      5  C   UNL     1      -0.516  -0.346   4.250  0.00  0.00    +0.003 C 
ATOM      6  C   UNL     1      -0.735  -1.730   3.633  0.00  0.00    +0.035 C 
ATOM      7  C   UNL     1      -0.402  -1.675   2.141  0.00  0.00    +0.066 C 
ATOM      8  C   UNL     1      -0.610  -3.052   1.508  0.00  0.00    +0.016 C 
ATOM      9  C   UNL     1      -0.326  -2.961   0.007  0.00  0.00    -0.075 C 
ATOM     10  N   UNL     1      -1.254  -1.984  -0.603  0.00  0.00    +0.390 N 
ATOM     11  H   UNL     1      -2.218  -2.266  -0.394  0.00  0.00    -0.080 HD
ENDROOT
BRANCH   1  16
ATOM     12  C   UNL     1       2.763  -0.652  -0.015  0.00  0.00    +0.121 A 
ATOM     13  C   UNL     1       3.050   0.553  -0.637  0.00  0.00    +0.049 A 
ATOM     14  C   UNL     1       2.023   1.371  -1.065  0.00  0.00    +0.049 A 
ATOM     15  C   UNL     1       0.704   0.987  -0.873  0.00  0.00    +0.122 A 
ATOM     16  C   UNL     1       0.417  -0.218  -0.251  0.00  0.00    -0.015 A 
ATOM     17  C   UNL     1       1.444  -1.036   0.178  0.00  0.00    +0.051 A 
BRANCH  12  19
ATOM     18  C   UNL     1       5.107  -0.999   0.177  0.00  0.00    +0.277 C 
ATOM     19  O   UNL     1       3.774  -1.458   0.408  0.00  0.00    -0.495 OA
ENDBRANCH  12  19
BRANCH  15  20
ATOM     20  O   UNL     1      -0.307   1.790  -1.300  0.00  0.00    -0.495 OA
ATOM     21  C   UNL     1       0.062   3.017  -1.933  0.00  0.00    +0.277 C 
ENDBRANCH  15  20
ENDBRANCH   1  16
BRANCH   7  22
ATOM     22  O   UNL     1       0.957  -1.270   1.970  0.00  0.00    -0.388 OA
ATOM     23  H   UNL     1       1.602  -1.890   2.337  0.00  0.00    +0.210 HD
ENDBRANCH   7  22
BRANCH  10  24
ATOM     24  C   UNL     1      -1.068  -1.960  -2.068  0.00  0.00    +0.020 C 
BRANCH  24  25
ATOM     25  C   UNL     1      -2.184  -1.155  -2.684  0.00  0.00    +0.201 C 
ATOM     26  O   UNL     1      -3.097  -0.757  -1.993  0.00  0.00    -0.278 OA
ATOM     27  N   UNL     1      -2.166  -0.879  -4.003  0.00  0.00    -0.286 N 
ATOM     28  H   UNL     1      -1.472  -1.252  -4.568  0.00  0.00    +0.155 HD
BRANCH  27  29
ATOM     29  C   UNL     1      -3.151  -0.052  -4.558  0.00  0.00    +0.052 A 
ATOM     30  C   UNL     1      -3.696   0.981  -3.807  0.00  0.00    +0.026 A 
ATOM     31  C   UNL     1      -4.668   1.794  -4.357  0.00  0.00    +0.022 A 
ATOM     32  C   UNL     1      -5.099   1.581  -5.655  0.00  0.00    +0.042 A 
ATOM     33  C   UNL     1      -4.558   0.552  -6.405  0.00  0.00    +0.041 A 
ATOM     34  C   UNL     1      -3.581  -0.261  -5.863  0.00  0.00    +0.064 A 
ATOM     35 CL   UNL     1      -2.898  -1.548  -6.807  0.00  0.00    -0.082 Cl
ATOM     36 CL   UNL     1      -6.320   2.606  -6.342  0.00  0.00    -0.083 Cl
ENDBRANCH  27  29
ENDBRANCH  24  25
ENDBRANCH  10  24
TORSDOF 7
