REMARK  Name = ZINC38737195
REMARK  9 active torsions:
REMARK  status: ('A' for Active; 'I' for Inactive)
REMARK    1  A    between atoms: C_1  and  C_2
REMARK    2  A    between atoms: C_9  and  C_10
REMARK    3  A    between atoms: C_9  and  C_11
REMARK    4  A    between atoms: C_13  and  N_15
REMARK    5  A    between atoms: C_16  and  C_18
REMARK    6  A    between atoms: C_21  and  N_24
REMARK    7  A    between atoms: C_25  and  N_39
REMARK    8  A    between atoms: C_27  and  C_29
REMARK    9  A    between atoms: C_33  and  C_35
REMARK                            x       y       z     vdW  Elec       q    Type
REMARK                         _______ _______ _______ _____ _____    ______ ____
ROOT
ATOM      1  C   UNL     1      -1.774   0.108   4.092  0.00  0.00    +0.037 A 
ATOM      2  C   UNL     1      -3.059  -0.033   3.563  0.00  0.00    +0.015 A 
ATOM      3  C   UNL     1      -4.153  -0.013   4.399  0.00  0.00    +0.028 A 
ATOM      4  C   UNL     1      -3.979   0.147   5.770  0.00  0.00    +0.067 A 
ATOM      5  C   UNL     1      -2.701   0.288   6.301  0.00  0.00    +0.028 A 
ATOM      6  C   UNL     1      -1.603   0.264   5.470  0.00  0.00    +0.015 A 
ENDROOT
BRANCH   4   7
ATOM      7  N   UNL     1      -5.090   0.168   6.616  0.00  0.00    -0.218 N 
ATOM      8  C   UNL     1      -5.142  -0.330   7.883  0.00  0.00    +0.120 A 
ATOM      9  C   UNL     1      -6.396  -0.113   8.361  0.00  0.00    +0.073 A 
ATOM     10  C   UNL     1      -7.133   0.539   7.354  0.00  0.00    +0.095 A 
ATOM     11  N   UNL     1      -6.346   0.709   6.312  0.00  0.00    -0.165 NA
BRANCH  10  12
ATOM     12  C   UNL     1      -8.551   0.965   7.451  0.00  0.00    +0.003 A 
ATOM     13  C   UNL     1      -9.273   0.733   8.621  0.00  0.00    +0.010 A 
ATOM     14  C   UNL     1     -10.591   1.131   8.706  0.00  0.00    +0.001 A 
ATOM     15  C   UNL     1     -11.197   1.760   7.633  0.00  0.00    +0.012 A 
ATOM     16  C   UNL     1     -10.486   1.993   6.470  0.00  0.00    +0.055 A 
ATOM     17  C   UNL     1      -9.165   1.603   6.375  0.00  0.00    +0.022 A 
BRANCH  16  18
ATOM     18  C   UNL     1     -11.153   2.678   5.305  0.00  0.00    +0.417 C 
ATOM     19  F   UNL     1     -12.478   2.979   5.638  0.00  0.00    -0.166 F 
ATOM     20  F   UNL     1     -10.468   3.860   5.004  0.00  0.00    -0.166 F 
ATOM     21  F   UNL     1     -11.133   1.831   4.192  0.00  0.00    -0.166 F 
ENDBRANCH  16  18
ENDBRANCH  10  12
BRANCH   8  22
ATOM     22  N   UNL     1      -4.100  -0.950   8.565  0.00  0.00    -0.343 N 
ATOM     23  H   UNL     1      -3.236  -1.059   8.136  0.00  0.00    +0.144 HD
ATOM     24  H   UNL     1      -4.236  -1.272   9.470  0.00  0.00    +0.144 HD
ENDBRANCH   8  22
ENDBRANCH   4   7
BRANCH   1  26
ATOM     25  N   UNL     1      -0.766  -0.063   1.869  0.00  0.00    -0.308 N 
ATOM     26  C   UNL     1      -0.599   0.087   3.198  0.00  0.00    +0.244 C 
ATOM     27  O   UNL     1       0.519   0.205   3.661  0.00  0.00    -0.270 OA
ATOM     28  H   UNL     1      -1.658  -0.157   1.500  0.00  0.00    +0.149 HD
BRANCH  25  38
ATOM     29  C   UNL     1       0.134   1.872  -0.578  0.00  0.00    +0.009 C 
ATOM     30  C   UNL     1      -0.027   0.357  -0.416  0.00  0.00    +0.010 C 
ATOM     31  C   UNL     1       0.720  -0.389  -1.520  0.00  0.00    -0.000 C 
ATOM     32  C   UNL     1       0.388  -1.900  -1.431  0.00  0.00    +0.008 C 
ATOM     33  C   UNL     1       1.517  -1.927  -0.379  0.00  0.00    -0.003 C 
ATOM     34  C   UNL     1       2.158  -0.798  -1.198  0.00  0.00    -0.029 C 
ATOM     35  C   UNL     1       2.933  -1.312  -2.428  0.00  0.00    +0.011 C 
ATOM     36  C   UNL     1       3.000   0.193  -0.401  0.00  0.00    +0.011 C 
ATOM     37  C   UNL     1       1.010  -1.484   0.993  0.00  0.00    +0.026 C 
ATOM     38  C   UNL     1       0.408  -0.084   0.976  0.00  0.00    +0.077 C 
ENDBRANCH  25  38
ENDBRANCH   1  26
TORSDOF 6
