REMARK  Name = ZINC12416365
REMARK  9 active torsions:
REMARK  status: ('A' for Active; 'I' for Inactive)
REMARK    1  A    between atoms: C_1  and  C_2
REMARK    2  A    between atoms: C_3  and  C_30
REMARK    3  A    between atoms: C_4  and  C_20
REMARK    4  A    between atoms: C_10  and  C_15
REMARK    5  A    between atoms: C_24  and  O_28
REMARK    6  A    between atoms: C_25  and  O_26
REMARK    7  A    between atoms: O_26  and  C_27
REMARK    8  A    between atoms: O_28  and  C_29
REMARK    9  A    between atoms: N_32  and  C_33
REMARK                            x       y       z     vdW  Elec       q    Type
REMARK                         _______ _______ _______ _____ _____    ______ ____
ROOT
ATOM      1  C   UNL     1       0.229  -0.539  -0.735  0.00  0.00    +0.061 C 
ATOM      2  C   UNL     1       1.310   0.220  -0.008  0.00  0.00    +0.014 C 
ATOM      3  C   UNL     1       1.065   1.461   0.443  0.00  0.00    +0.043 C 
ATOM      4  C   UNL     1       2.115   2.244   1.176  0.00  0.00    +0.094 C 
ATOM      5  C   UNL     1       3.486   1.663   0.941  0.00  0.00    +0.024 C 
ATOM      6  C   UNL     1       3.631   0.404   0.475  0.00  0.00    +0.016 C 
ATOM      7  N   UNL     1       2.532  -0.361   0.189  0.00  0.00    -0.321 N 
ATOM      8  C   UNL     1       5.000  -0.193   0.261  0.00  0.00    +0.060 C 
ATOM      9  C   UNL     1       5.988   0.913  -0.116  0.00  0.00    +0.039 C 
ATOM     10  C   UNL     1       6.004   1.955   1.008  0.00  0.00    +0.088 C 
ATOM     11  C   UNL     1       4.605   2.465   1.224  0.00  0.00    +0.162 C 
ATOM     12  O   UNL     1       4.440   3.591   1.650  0.00  0.00    -0.292 OA
ATOM     13  H   UNL     1       2.640  -1.454   0.118  0.00  0.00    +0.152 HD
ENDROOT
BRANCH   4  14
ATOM     14  C   UNL     1       1.812   2.215   2.652  0.00  0.00    +0.010 A 
ATOM     15  C   UNL     1       1.647   1.005   3.301  0.00  0.00    +0.008 A 
ATOM     16  C   UNL     1       1.370   0.975   4.655  0.00  0.00    +0.004 A 
ATOM     17  C   UNL     1       1.256   2.155   5.366  0.00  0.00    +0.049 A 
ATOM     18  C   UNL     1       1.419   3.371   4.723  0.00  0.00    +0.162 A 
ATOM     19  C   UNL     1       1.704   3.401   3.361  0.00  0.00    +0.166 A 
BRANCH  19  20
ATOM     20  O   UNL     1       1.871   4.592   2.725  0.00  0.00    -0.491 OA
ATOM     21  C   UNL     1       0.688   5.264   2.286  0.00  0.00    +0.277 C 
ENDBRANCH  19  20
BRANCH  18  22
ATOM     22  O   UNL     1       1.308   4.532   5.421  0.00  0.00    -0.491 OA
ATOM     23  C   UNL     1       1.021   4.425   6.817  0.00  0.00    +0.277 C 
ENDBRANCH  18  22
ENDBRANCH   4  14
BRANCH   9  24
ATOM     24  C   UNL     1       7.366   0.326  -0.281  0.00  0.00    -0.006 A 
ATOM     25  C   UNL     1       8.166   0.321  -1.375  0.00  0.00    +0.011 A 
ATOM     26  C   UNL     1       9.407  -0.284  -1.296  0.00  0.00    +0.008 A 
ATOM     27  C   UNL     1       9.786  -0.854  -0.126  0.00  0.00    +0.045 A 
ATOM     28  S   UNL     1       8.371  -0.537   0.916  0.00  0.00    -0.101 S 
ENDBRANCH   9  24
BRANCH   3  29
ATOM     29  C   UNL     1      -0.205   2.045   0.216  0.00  0.00    +0.247 C 
ATOM     30  O   UNL     1      -0.359   2.831  -0.702  0.00  0.00    -0.270 OA
ATOM     31  N   UNL     1      -1.244   1.731   1.015  0.00  0.00    -0.282 N 
ATOM     32  H   UNL     1      -1.081   1.113   1.911  0.00  0.00    +0.155 HD
BRANCH  31  33
ATOM     33  C   UNL     1      -2.528   2.191   0.706  0.00  0.00    +0.034 A 
ATOM     34  C   UNL     1      -2.901   2.374  -0.619  0.00  0.00    +0.023 A 
ATOM     35  C   UNL     1      -4.172   2.823  -0.921  0.00  0.00    +0.002 A 
ATOM     36  C   UNL     1      -5.068   3.100   0.095  0.00  0.00    +0.000 A 
ATOM     37  C   UNL     1      -4.698   2.924   1.416  0.00  0.00    +0.002 A 
ATOM     38  C   UNL     1      -3.430   2.470   1.724  0.00  0.00    +0.023 A 
ENDBRANCH  31  33
ENDBRANCH   3  29
TORSDOF 6
