REMARK  Name = ZINC39678269
REMARK  8 active torsions:
REMARK  status: ('A' for Active; 'I' for Inactive)
REMARK    1  A    between atoms: C_1  and  C_2
REMARK    2  A    between atoms: C_2  and  C_3
REMARK    3  A    between atoms: C_3  and  C_5
REMARK    4  A    between atoms: C_3  and  C_6
REMARK    5  A    between atoms: C_10  and  C_19
REMARK    6  A    between atoms: N_21  and  C_22
REMARK    7  A    between atoms: C_22  and  C_23
REMARK    8  A    between atoms: C_28  and  N_29
REMARK                            x       y       z     vdW  Elec       q    Type
REMARK                         _______ _______ _______ _____ _____    ______ ____
ROOT
ATOM      1  C   UNL     1       0.578  -2.864   1.184  0.00  0.00    +0.218 C 
ATOM      2  O   UNL     1      -0.221  -3.533   0.564  0.00  0.00    -0.275 OA
ATOM      3  N   UNL     1       1.089  -3.326   2.343  0.00  0.00    -0.300 N 
ATOM      4  C   UNL     1       2.063  -2.657   3.237  0.00  0.00    +0.121 C 
ATOM      5  C   UNL     1       1.572  -2.985   4.664  0.00  0.00    +0.100 C 
ATOM      6  C   UNL     1       0.748  -4.274   4.510  0.00  0.00    -0.004 C 
ATOM      7  C   UNL     1       0.799  -4.616   3.013  0.00  0.00    +0.115 C 
ATOM      8  C   UNL     1       1.367  -5.399   5.332  0.00  0.00    -0.010 C 
ATOM      9  C   UNL     1       0.498  -6.654   5.208  0.00  0.00    -0.082 C 
ATOM     10  N   UNL     1      -0.858  -6.361   5.687  0.00  0.00    +0.379 N 
ATOM     11  C   UNL     1      -1.482  -5.343   4.833  0.00  0.00    -0.082 C 
ATOM     12  C   UNL     1      -0.696  -4.033   4.941  0.00  0.00    -0.010 C 
ATOM     13  H   UNL     1      -1.412  -7.204   5.661  0.00  0.00    -0.086 HD
ATOM     14  H   UNL     1      -0.812  -6.021   6.636  0.00  0.00    -0.086 HD
ENDROOT
BRANCH   5  15
ATOM     15  C   UNL     1       2.744  -3.216   5.583  0.00  0.00    +0.218 C 
ATOM     16  O   UNL     1       3.697  -3.860   5.199  0.00  0.00    -0.275 OA
ATOM     17  N   UNL     1       2.733  -2.707   6.830  0.00  0.00    -0.311 N 
ATOM     18  H   UNL     1       1.971  -2.192   7.138  0.00  0.00    +0.149 HD
BRANCH  17  19
ATOM     19  C   UNL     1       3.873  -2.932   7.723  0.00  0.00    +0.141 C 
BRANCH  19  20
ATOM     20  C   UNL     1       3.613  -2.263   9.049  0.00  0.00    -0.009 A 
ATOM     21  C   UNL     1       4.179  -1.034   9.326  0.00  0.00    +0.007 A 
ATOM     22  C   UNL     1       3.941  -0.420  10.542  0.00  0.00    +0.000 A 
ATOM     23  C   UNL     1       3.135  -1.034  11.484  0.00  0.00    +0.002 A 
ATOM     24  C   UNL     1       2.566  -2.262  11.213  0.00  0.00    +0.023 A 
ATOM     25  C   UNL     1       2.799  -2.879   9.990  0.00  0.00    +0.034 A 
BRANCH  25  26
ATOM     26  N   UNL     1       2.220  -4.120   9.710  0.00  0.00    -0.330 N 
ATOM     27  C   UNL     1       2.916  -5.366  10.058  0.00  0.00    +0.105 C 
ATOM     28  C   UNL     1       1.979  -6.236  10.901  0.00  0.00    +0.019 C 
ATOM     29  C   UNL     1       0.663  -6.440  10.147  0.00  0.00    +0.003 C 
ATOM     30  C   UNL     1      -0.011  -5.085   9.918  0.00  0.00    +0.019 C 
ATOM     31  C   UNL     1       0.901  -4.202   9.069  0.00  0.00    +0.105 C 
ENDBRANCH  25  26
ENDBRANCH  19  20
ENDBRANCH  17  19
ENDBRANCH   5  15
BRANCH   1  32
ATOM     32  C   UNL     1       1.000  -1.516   0.660  0.00  0.00    +0.072 C 
ATOM     33  C   UNL     1       2.512  -1.510   0.425  0.00  0.00    +0.017 C 
BRANCH  32  35
ATOM     34  C   UNL     1       0.609   0.185  -1.129  0.00  0.00    +0.004 C 
ATOM     35  C   UNL     1       0.278  -1.233  -0.659  0.00  0.00    +0.009 C 
ENDBRANCH  32  35
ENDBRANCH   1  32
TORSDOF 6
