REMARK  Name = ZINC27520941
REMARK  7 active torsions:
REMARK  status: ('A' for Active; 'I' for Inactive)
REMARK    1  A    between atoms: C_1  and  C_2
REMARK    2  A    between atoms: C_2  and  O_3
REMARK    3  A    between atoms: O_3  and  C_4
REMARK    4  A    between atoms: C_4  and  C_6
REMARK    5  A    between atoms: C_10  and  N_11
REMARK    6  A    between atoms: C_13  and  C_22
REMARK    7  A    between atoms: N_24  and  C_25
REMARK                            x       y       z     vdW  Elec       q    Type
REMARK                         _______ _______ _______ _____ _____    ______ ____
ROOT
ATOM      1  N   UNL     1       2.613   0.101   0.972  0.00  0.00    -0.319 N 
ATOM      2  C   UNL     1       2.537   1.253   0.332  0.00  0.00    +0.212 A 
ATOM      3  C   UNL     1       1.248   1.947   0.162  0.00  0.00    +0.098 A 
ATOM      4  C   UNL     1       1.281   3.325  -0.005  0.00  0.00    +0.030 A 
ATOM      5  C   UNL     1       2.549   3.964  -0.040  0.00  0.00    +0.018 A 
ATOM      6  C   UNL     1       2.641   5.362  -0.006  0.00  0.00    +0.011 A 
ATOM      7  C   UNL     1       3.869   5.961   0.002  0.00  0.00    +0.001 A 
ATOM      8  C   UNL     1       5.027   5.198  -0.031  0.00  0.00    +0.004 A 
ATOM      9  C   UNL     1       4.959   3.820  -0.085  0.00  0.00    +0.047 A 
ATOM     10  C   UNL     1       3.723   3.190  -0.102  0.00  0.00    +0.137 A 
ATOM     11  O   UNL     1       3.642   1.840  -0.199  0.00  0.00    -0.439 OA
ATOM     12  H   UNL     1       1.704  -0.357   1.390  0.00  0.00    +0.169 HD
ENDROOT
BRANCH   1  17
ATOM     13  C   UNL     1       4.098  -1.724   1.756  0.00  0.00    +0.093 A 
ATOM     14  C   UNL     1       5.483  -2.163   1.759  0.00  0.00    -0.021 A 
ATOM     15  C   UNL     1       6.371  -1.351   1.144  0.00  0.00    -0.004 A 
ATOM     16  S   UNL     1       5.409   0.009   0.539  0.00  0.00    -0.075 S 
ATOM     17  C   UNL     1       3.803  -0.513   1.114  0.00  0.00    +0.095 A 
ATOM     18  C   UNL     1       7.848  -1.560   1.008  0.00  0.00    +0.043 C 
ATOM     19  C   UNL     1       8.275  -2.657   1.994  0.00  0.00    +0.005 C 
ATOM     20  C   UNL     1       7.313  -3.841   1.857  0.00  0.00    +0.005 C 
ATOM     21  C   UNL     1       5.941  -3.462   2.416  0.00  0.00    +0.037 C 
BRANCH  13  22
ATOM     22  C   UNL     1       3.081  -2.493   2.377  0.00  0.00    +0.342 C 
ATOM     23  O   UNL     1       2.486  -3.342   1.740  0.00  0.00    -0.245 OA
BRANCH  22  24
ATOM     24  O   UNL     1       2.775  -2.284   3.675  0.00  0.00    -0.461 OA
BRANCH  24  26
ATOM     25  C   UNL     1       1.535  -2.716   5.704  0.00  0.00    +0.048 C 
ATOM     26  C   UNL     1       1.740  -3.095   4.236  0.00  0.00    +0.229 C 
ENDBRANCH  24  26
ENDBRANCH  22  24
ENDBRANCH  13  22
ENDBRANCH   1  17
BRANCH   3  27
ATOM     27  C   UNL     1      -0.027   1.209   0.175  0.00  0.00    +0.253 C 
ATOM     28  O   UNL     1      -0.029   0.002   0.324  0.00  0.00    -0.270 OA
ATOM     29  N   UNL     1      -1.191   1.870   0.018  0.00  0.00    -0.281 N 
ATOM     30  H   UNL     1      -1.197   2.969  -0.029  0.00  0.00    +0.155 HD
BRANCH  29  31
ATOM     31  C   UNL     1      -2.391   1.159  -0.086  0.00  0.00    +0.034 A 
ATOM     32  C   UNL     1      -2.411  -0.085  -0.704  0.00  0.00    +0.026 A 
ATOM     33  C   UNL     1      -3.596  -0.788  -0.801  0.00  0.00    +0.040 A 
ATOM     34  C   UNL     1      -4.766  -0.248  -0.292  0.00  0.00    +0.124 A 
ATOM     35  C   UNL     1      -4.749   0.994   0.320  0.00  0.00    +0.040 A 
ATOM     36  C   UNL     1      -3.565   1.698   0.424  0.00  0.00    +0.026 A 
ATOM     37  F   UNL     1      -5.925  -0.935  -0.392  0.00  0.00    -0.205 F 
ENDBRANCH  29  31
ENDBRANCH   3  27
TORSDOF 6
