REMARK  Name = ZINC67067117
REMARK  6 active torsions:
REMARK  status: ('A' for Active; 'I' for Inactive)
REMARK    1  A    between atoms: C_4  and  C_7
REMARK    2  A    between atoms: C_7  and  N_8
REMARK    3  A    between atoms: N_11  and  N_12
REMARK    4  A    between atoms: C_13  and  C_15
REMARK    5  A    between atoms: C_15  and  C_16
REMARK    6  A    between atoms: C_16  and  C_17
REMARK                            x       y       z     vdW  Elec       q    Type
REMARK                         _______ _______ _______ _____ _____    ______ ____
ROOT
ATOM      1  N   UNL     1       1.558  -2.597  -1.409  0.00  0.00    -0.294 N 
ATOM      2  C   UNL     1       1.804  -3.897  -1.666  0.00  0.00    +0.316 C 
ATOM      3  O   UNL     1       1.961  -4.678  -0.748  0.00  0.00    -0.251 OA
ATOM      4  N   UNL     1       1.876  -4.330  -2.940  0.00  0.00    -0.218 N 
ATOM      5  H   UNL     1       1.432  -1.973  -2.142  0.00  0.00    +0.151 HD
ATOM      6  H   UNL     1       2.053  -5.266  -3.124  0.00  0.00    +0.174 HD
ENDROOT
BRANCH   4   7
ATOM      7  N   UNL     1       1.695  -3.430  -3.998  0.00  0.00    -0.233 N 
ATOM      8  C   UNL     1       1.767  -3.864  -5.272  0.00  0.00    +0.229 C 
ATOM      9  O   UNL     1       1.988  -5.033  -5.502  0.00  0.00    -0.274 OA
ATOM     10  H   UNL     1       1.518  -2.494  -3.813  0.00  0.00    +0.173 HD
BRANCH   8  11
ATOM     11  C   UNL     1       1.572  -2.895  -6.410  0.00  0.00    +0.097 C 
BRANCH  11  12
ATOM     12  C   UNL     1       1.702  -3.638  -7.740  0.00  0.00    +0.013 C 
BRANCH  12  13
ATOM     13  C   UNL     1       1.505  -2.655  -8.896  0.00  0.00    -0.011 C 
ATOM     14  C   UNL     1       2.640  -1.629  -8.892  0.00  0.00    +0.003 C 
ATOM     15  C   UNL     1       2.442  -0.645 -10.047  0.00  0.00    +0.000 C 
ATOM     16  C   UNL     1       2.448  -1.408 -11.373  0.00  0.00    +0.000 C 
ATOM     17  C   UNL     1       1.313  -2.434 -11.377  0.00  0.00    +0.000 C 
ATOM     18  C   UNL     1       1.511  -3.418 -10.222  0.00  0.00    +0.003 C 
ENDBRANCH  12  13
ENDBRANCH  11  12
ENDBRANCH   8  11
ENDBRANCH   4   7
BRANCH   1  19
ATOM     19  C   UNL     1       1.480  -2.125  -0.024  0.00  0.00    +0.149 C 
BRANCH  19  23
ATOM     20  C   UNL     1      -0.017   1.379   0.010  0.00  0.00    +0.023 A 
ATOM     21  C   UNL     1       1.160   2.052   0.002  0.00  0.00    +0.046 A 
ATOM     22  S   UNL     1       2.348   0.720  -0.017  0.00  0.00    -0.099 S 
ATOM     23  C   UNL     1       1.197  -0.645  -0.013  0.00  0.00    +0.021 A 
ATOM     24  C   UNL     1       0.002  -0.004   0.002  0.00  0.00    +0.030 A 
ATOM     25 BR   UNL     1      -1.614  -0.986   0.013  0.00  0.00    -0.049 Br
ENDBRANCH  19  23
ENDBRANCH   1  19
TORSDOF 6
