REMARK  Name = ZINC13880442
REMARK  2 active torsions:
REMARK  status: ('A' for Active; 'I' for Inactive)
REMARK    1  A    between atoms: C_3  and  C_8
REMARK    2  A    between atoms: C_11  and  C_20
REMARK                            x       y       z     vdW  Elec       q    Type
REMARK                         _______ _______ _______ _____ _____    ______ ____
ROOT
ATOM      1  C   UNL     1       3.672   2.183  -0.022  0.00  0.00    +0.143 C 
ATOM      2  C   UNL     1       4.499   1.815   1.216  0.00  0.00    +0.059 C 
ATOM      3  C   UNL     1       5.918   2.377   1.077  0.00  0.00    +0.107 C 
ATOM      4  N   UNL     1       6.559   1.751  -0.096  0.00  0.00    -0.307 N 
ATOM      5  C   UNL     1       5.778   1.643  -1.238  0.00  0.00    +0.216 A 
ATOM      6  N   UNL     1       4.437   1.844  -1.222  0.00  0.00    -0.224 N 
ATOM      7  N   UNL     1       3.987   1.661  -2.530  0.00  0.00    -0.132 NA
ATOM      8  C   UNL     1       5.042   1.366  -3.256  0.00  0.00    +0.233 A 
ATOM      9  N   UNL     1       6.130   1.352  -2.463  0.00  0.00    -0.180 NA
ATOM     10  N   UNL     1       5.035   1.104  -4.627  0.00  0.00    -0.326 N 
ATOM     11  H   UNL     1       7.476   1.434  -0.070  0.00  0.00    +0.149 HD
ATOM     12  H   UNL     1       4.202   1.131  -5.122  0.00  0.00    +0.145 HD
ATOM     13  H   UNL     1       5.864   0.894  -5.085  0.00  0.00    +0.145 HD
ENDROOT
BRANCH   3  14
ATOM     14  C   UNL     1       5.854   3.870   0.886  0.00  0.00    -0.009 A 
ATOM     15  C   UNL     1       5.867   4.405  -0.389  0.00  0.00    +0.008 A 
ATOM     16  C   UNL     1       5.809   5.775  -0.565  0.00  0.00    +0.020 A 
ATOM     17  C   UNL     1       5.735   6.612   0.535  0.00  0.00    +0.042 A 
ATOM     18  C   UNL     1       5.721   6.077   1.811  0.00  0.00    +0.040 A 
ATOM     19  C   UNL     1       5.775   4.705   1.986  0.00  0.00    +0.047 A 
ATOM     20 CL   UNL     1       5.751   4.033   3.586  0.00  0.00    -0.083 Cl
ATOM     21 CL   UNL     1       5.662   8.332   0.314  0.00  0.00    -0.083 Cl
ENDBRANCH   3  14
BRANCH   1  24
ATOM     22  C   UNL     1      -0.017   1.378   0.010  0.00  0.00    +0.001 A 
ATOM     23  C   UNL     1       1.171   2.086   0.002  0.00  0.00    +0.006 A 
ATOM     24  C   UNL     1       2.378   1.411  -0.013  0.00  0.00    -0.022 A 
ATOM     25  C   UNL     1       2.397   0.029  -0.022  0.00  0.00    +0.021 A 
ATOM     26  C   UNL     1       1.210  -0.679  -0.014  0.00  0.00    +0.018 A 
ATOM     27  C   UNL     1       0.002  -0.004   0.002  0.00  0.00    +0.015 A 
ATOM     28 BR   UNL     1       1.236  -2.570  -0.025  0.00  0.00    -0.050 Br
ENDBRANCH   1  24
TORSDOF 2
