REMARK  Name = ZINC12950916
REMARK  11 active torsions:
REMARK  status: ('A' for Active; 'I' for Inactive)
REMARK    1  A    between atoms: C_1  and  O_2
REMARK    2  A    between atoms: O_2  and  C_3
REMARK    3  A    between atoms: C_3  and  C_5
REMARK    4  A    between atoms: C_6  and  N_10
REMARK    5  A    between atoms: C_11  and  C_13
REMARK    6  A    between atoms: C_13  and  S_14
REMARK    7  A    between atoms: S_14  and  C_15
REMARK    8  A    between atoms: C_20  and  N_21
REMARK    9  A    between atoms: C_22  and  C_24
REMARK   10  A    between atoms: C_24  and  S_25
REMARK   11  A    between atoms: S_25  and  C_26
REMARK                            x       y       z     vdW  Elec       q    Type
REMARK                         _______ _______ _______ _____ _____    ______ ____
ROOT
ATOM      1  C   UNL     1      -3.112  -3.769   0.260  0.00  0.00    +0.030 A 
ATOM      2  C   UNL     1      -4.393  -4.294   0.357  0.00  0.00    +0.016 A 
ATOM      3  C   UNL     1      -5.486  -3.449   0.379  0.00  0.00    +0.001 A 
ATOM      4  C   UNL     1      -5.308  -2.079   0.305  0.00  0.00    +0.002 A 
ATOM      5  C   UNL     1      -4.035  -1.547   0.213  0.00  0.00    +0.024 A 
ATOM      6  C   UNL     1      -2.933  -2.387   0.184  0.00  0.00    +0.047 A 
ENDROOT
BRANCH   6   7
ATOM      7  N   UNL     1      -1.642  -1.850   0.086  0.00  0.00    -0.284 N 
ATOM      8  C   UNL     1      -1.353  -0.678   0.686  0.00  0.00    +0.227 C 
ATOM      9  O   UNL     1      -2.228  -0.048   1.240  0.00  0.00    -0.275 OA
ATOM     10  H   UNL     1      -0.958  -2.321  -0.414  0.00  0.00    +0.155 HD
BRANCH   8  11
ATOM     11  C   UNL     1       0.059  -0.152   0.669  0.00  0.00    +0.170 C 
BRANCH  11  12
ATOM     12  S   UNL     1       0.125   1.431   1.552  0.00  0.00    -0.116 S 
BRANCH  12  13
ATOM     13  C   UNL     1       1.818   1.909   1.444  0.00  0.00    +0.008 A 
ATOM     14  C   UNL     1       2.731   1.095   0.785  0.00  0.00    +0.016 A 
ATOM     15  C   UNL     1       4.055   1.475   0.698  0.00  0.00    +0.016 A 
ATOM     16  C   UNL     1       4.476   2.659   1.276  0.00  0.00    +0.018 A 
ATOM     17  C   UNL     1       3.571   3.470   1.938  0.00  0.00    +0.016 A 
ATOM     18  C   UNL     1       2.244   3.098   2.024  0.00  0.00    +0.016 A 
ATOM     19 BR   UNL     1       6.293   3.172   1.161  0.00  0.00    -0.050 Br
ENDBRANCH  12  13
ENDBRANCH  11  12
ENDBRANCH   8  11
ENDBRANCH   6   7
BRANCH   1  20
ATOM     20  S   UNL     1      -1.716  -4.843   0.233  0.00  0.00    -0.114 S 
BRANCH  20  21
ATOM     21  C   UNL     1      -2.437  -6.503   0.352  0.00  0.00    +0.170 C 
BRANCH  21  23
ATOM     22  N   UNL     1      -1.637  -8.843   0.418  0.00  0.00    -0.284 N 
ATOM     23  C   UNL     1      -1.336  -7.532   0.339  0.00  0.00    +0.227 C 
ATOM     24  O   UNL     1      -0.178  -7.180   0.257  0.00  0.00    -0.275 OA
ATOM     25  H   UNL     1      -2.564  -9.130   0.400  0.00  0.00    +0.155 HD
BRANCH  22  27
ATOM     26  C   UNL     1      -0.796 -11.109   0.114  0.00  0.00    +0.117 A 
ATOM     27  C   UNL     1      -0.617  -9.788   0.525  0.00  0.00    +0.055 A 
ATOM     28  C   UNL     1       0.621  -9.461   1.038  0.00  0.00    +0.032 A 
ATOM     29  C   UNL     1       1.577 -10.420   1.125  0.00  0.00    +0.048 A 
ATOM     30  S   UNL     1       0.795 -11.826   0.480  0.00  0.00    -0.088 S 
BRANCH  26  31
ATOM     31  C   UNL     1      -1.942 -11.720  -0.448  0.00  0.00    +0.347 C 
ATOM     32  O   UNL     1      -2.953 -11.067  -0.628  0.00  0.00    -0.244 OA
BRANCH  31  34
ATOM     33  C   UNL     1      -3.107 -13.578  -1.345  0.00  0.00    +0.280 C 
ATOM     34  O   UNL     1      -1.914 -13.027  -0.783  0.00  0.00    -0.464 OA
ENDBRANCH  31  34
ENDBRANCH  26  31
ENDBRANCH  22  27
ENDBRANCH  21  23
ENDBRANCH  20  21
ENDBRANCH   1  20
TORSDOF 10
