REMARK  Name = ZINC36050332
REMARK  12 active torsions:
REMARK  status: ('A' for Active; 'I' for Inactive)
REMARK    1  A    between atoms: C_1  and  C_2
REMARK    2  A    between atoms: C_2  and  O_3
REMARK    3  A    between atoms: O_3  and  C_4
REMARK    4  A    between atoms: C_4  and  C_6
REMARK    5  A    between atoms: C_7  and  C_38
REMARK    6  A    between atoms: C_11  and  C_13
REMARK    7  A    between atoms: C_15  and  C_20
REMARK    8  A    between atoms: C_18  and  C_19
REMARK    9  A    between atoms: C_21  and  C_24
REMARK   10  A    between atoms: C_25  and  N_27
REMARK   11  A    between atoms: N_27  and  C_28
REMARK   12  A    between atoms: C_28  and  C_29
REMARK                            x       y       z     vdW  Elec       q    Type
REMARK                         _______ _______ _______ _____ _____    ______ ____
ROOT
ATOM      1  C   UNL     1      -3.308  -2.220   0.467  0.00  0.00    +0.082 C 
ATOM      2  C   UNL     1      -3.545  -3.581   0.459  0.00  0.00    +0.053 C 
ATOM      3  N   UNL     1      -4.756  -4.049   0.206  0.00  0.00    -0.230 NA
ATOM      4  C   UNL     1      -5.812  -3.304  -0.050  0.00  0.00    +0.166 C 
ATOM      5  N   UNL     1      -5.789  -1.938  -0.089  0.00  0.00    -0.267 N 
ATOM      6  C   UNL     1      -4.474  -1.299   0.186  0.00  0.00    +0.150 C 
ATOM      7  C   UNL     1      -6.980  -1.299  -0.371  0.00  0.00    +0.048 C 
ATOM      8  C   UNL     1      -8.069  -2.069  -0.586  0.00  0.00    +0.072 C 
ATOM      9  S   UNL     1      -7.404  -3.710  -0.388  0.00  0.00    -0.060 S 
ATOM     10  C   UNL     1      -2.416  -4.539   0.738  0.00  0.00    +0.066 C 
ENDROOT
BRANCH   6  11
ATOM     11  C   UNL     1      -4.118  -0.449  -1.006  0.00  0.00    -0.019 A 
ATOM     12  C   UNL     1      -3.753   0.872  -0.829  0.00  0.00    +0.009 A 
ATOM     13  C   UNL     1      -3.426   1.652  -1.922  0.00  0.00    -0.050 A 
ATOM     14  C   UNL     1      -3.464   1.110  -3.193  0.00  0.00    +0.003 A 
ATOM     15  C   UNL     1      -3.828  -0.211  -3.371  0.00  0.00    +0.004 A 
ATOM     16  C   UNL     1      -4.151  -0.992  -2.277  0.00  0.00    -0.045 A 
ATOM     17  C   UNL     1      -4.542  -2.435  -2.470  0.00  0.00    +0.044 C 
ATOM     18  C   UNL     1      -3.029   3.093  -1.728  0.00  0.00    +0.044 C 
ENDBRANCH   6  11
BRANCH   7  19
ATOM     19  C   UNL     1      -7.061   0.168  -0.436  0.00  0.00    +0.091 C 
ATOM     20  C   UNL     1      -8.258   0.772  -0.556  0.00  0.00    +0.239 C 
ATOM     21  O   UNL     1      -9.397   0.042  -0.470  0.00  0.00    -0.271 OA
BRANCH  20  22
ATOM     22  N   UNL     1      -8.326   2.138  -0.768  0.00  0.00    -0.308 N 
ATOM     23  H   UNL     1      -7.511   2.661  -0.830  0.00  0.00    +0.149 HD
BRANCH  22  24
ATOM     24  C   UNL     1      -9.629   2.795  -0.899  0.00  0.00    +0.140 C 
BRANCH  24  25
ATOM     25  C   UNL     1      -9.427   4.272  -1.122  0.00  0.00    -0.027 A 
ATOM     26  C   UNL     1      -9.356   5.130  -0.040  0.00  0.00    +0.009 A 
ATOM     27  C   UNL     1      -9.170   6.485  -0.239  0.00  0.00    +0.050 A 
ATOM     28  C   UNL     1      -9.055   6.987  -1.525  0.00  0.00    +0.166 A 
ATOM     29  C   UNL     1      -9.126   6.124  -2.615  0.00  0.00    +0.167 A 
ATOM     30  C   UNL     1      -9.307   4.766  -2.408  0.00  0.00    +0.054 A 
ATOM     31  O   UNL     1      -8.987   6.854  -3.760  0.00  0.00    -0.453 OA
ATOM     32  C   UNL     1      -9.238   8.219  -3.378  0.00  0.00    +0.466 C 
ATOM     33  O   UNL     1      -8.870   8.258  -1.986  0.00  0.00    -0.453 OA
ENDBRANCH  24  25
ENDBRANCH  22  24
ENDBRANCH  20  22
ENDBRANCH   7  19
BRANCH   1  34
ATOM     34  C   UNL     1      -2.031  -1.710   0.732  0.00  0.00    +0.339 C 
ATOM     35  O   UNL     1      -1.091  -2.470   0.889  0.00  0.00    -0.245 OA
BRANCH  34  36
ATOM     36  O   UNL     1      -1.840  -0.374   0.813  0.00  0.00    -0.462 OA
BRANCH  36  38
ATOM     37  C   UNL     1      -0.465   1.609   0.932  0.00  0.00    +0.048 C 
ATOM     38  C   UNL     1      -0.496   0.080   0.979  0.00  0.00    +0.229 C 
ENDBRANCH  36  38
ENDBRANCH  34  36
ENDBRANCH   1  34
TORSDOF 8
