REMARK  Name = ZINC22122709
REMARK  11 active torsions:
REMARK  status: ('A' for Active; 'I' for Inactive)
REMARK    1  A    between atoms: C_1  and  C_2
REMARK    2  A    between atoms: C_5  and  C_36
REMARK    3  A    between atoms: C_6  and  C_8
REMARK    4  A    between atoms: C_10  and  N_19
REMARK    5  A    between atoms: N_11  and  C_13
REMARK    6  A    between atoms: C_20  and  C_22
REMARK    7  A    between atoms: C_22  and  S_23
REMARK    8  A    between atoms: S_23  and  C_24
REMARK    9  A    between atoms: C_27  and  C_30
REMARK   10  A    between atoms: N_28  and  N_29
REMARK   11  A    between atoms: C_34  and  C_35
REMARK                            x       y       z     vdW  Elec       q    Type
REMARK                         _______ _______ _______ _____ _____    ______ ____
ROOT
ATOM      1  N   UNL     1      -1.640  -1.854   0.008  0.00  0.00    -0.270 N 
ATOM      2  C   UNL     1      -1.412  -0.526   0.013  0.00  0.00    +0.229 C 
ATOM      3  O   UNL     1      -2.344   0.250   0.026  0.00  0.00    -0.275 OA
ATOM      4  H   UNL     1      -0.794  -2.557  -0.004  0.00  0.00    +0.156 HD
ENDROOT
BRANCH   1   7
ATOM      5  C   UNL     1      -5.180  -2.463   0.039  0.00  0.00    +0.095 A 
ATOM      6  C   UNL     1      -4.080  -1.585   0.038  0.00  0.00    +0.074 A 
ATOM      7  C   UNL     1      -2.948  -2.337   0.018  0.00  0.00    +0.129 A 
ATOM      8  N   UNL     1      -3.322  -3.646   0.014  0.00  0.00    -0.218 N 
ATOM      9  N   UNL     1      -4.721  -3.697   0.028  0.00  0.00    -0.165 NA
BRANCH   5  15
ATOM     10  C   UNL     1      -8.675   1.103   0.096  0.00  0.00    +0.044 C 
ATOM     11  C   UNL     1      -8.293  -0.355   0.083  0.00  0.00    -0.050 A 
ATOM     12  C   UNL     1      -9.278  -1.327   0.087  0.00  0.00    +0.003 A 
ATOM     13  C   UNL     1      -8.934  -2.667   0.075  0.00  0.00    +0.004 A 
ATOM     14  C   UNL     1      -7.606  -3.041   0.060  0.00  0.00    -0.041 A 
ATOM     15  C   UNL     1      -6.610  -2.067   0.056  0.00  0.00    +0.005 A 
ATOM     16  C   UNL     1      -6.962  -0.718   0.073  0.00  0.00    +0.013 A 
ATOM     17  C   UNL     1      -7.233  -4.501   0.047  0.00  0.00    +0.044 C 
ENDBRANCH   5  15
BRANCH   8  18
ATOM     18  C   UNL     1      -2.458  -4.749  -0.001  0.00  0.00    +0.067 A 
ATOM     19  C   UNL     1      -1.264  -4.688  -0.707  0.00  0.00    +0.028 A 
ATOM     20  C   UNL     1      -0.411  -5.774  -0.715  0.00  0.00    +0.002 A 
ATOM     21  C   UNL     1      -0.752  -6.927  -0.031  0.00  0.00    +0.000 A 
ATOM     22  C   UNL     1      -1.943  -6.993   0.668  0.00  0.00    +0.002 A 
ATOM     23  C   UNL     1      -2.796  -5.908   0.685  0.00  0.00    +0.028 A 
ENDBRANCH   8  18
ENDBRANCH   1   7
BRANCH   2  24
ATOM     24  C   UNL     1       0.002  -0.004   0.002  0.00  0.00    +0.173 C 
BRANCH  24  25
ATOM     25  S   UNL     1      -0.022   1.806   0.012  0.00  0.00    -0.075 S 
BRANCH  25  26
ATOM     26  C   UNL     1       1.708   2.135  -0.003  0.00  0.00    +0.209 A 
ATOM     27  N   UNL     1       2.671   1.243  -0.017  0.00  0.00    -0.121 NA
ATOM     28  N   UNL     1       3.816   1.827  -0.025  0.00  0.00    -0.127 NA
ATOM     29  C   UNL     1       3.654   3.130  -0.016  0.00  0.00    +0.185 A 
ATOM     30  N   UNL     1       2.299   3.368  -0.007  0.00  0.00    -0.224 N 
BRANCH  29  31
ATOM     31  C   UNL     1       4.726   4.149  -0.020  0.00  0.00    +0.061 A 
ATOM     32  C   UNL     1       4.562   5.608  -0.010  0.00  0.00    +0.053 A 
ATOM     33  C   UNL     1       5.803   6.121  -0.018  0.00  0.00    +0.196 A 
ATOM     34  O   UNL     1       6.692   5.116  -0.032  0.00  0.00    -0.467 OA
ATOM     35  C   UNL     1       6.068   3.929  -0.028  0.00  0.00    +0.112 A 
ATOM     36  C   UNL     1       6.740   2.580  -0.035  0.00  0.00    +0.087 C 
ENDBRANCH  29  31
BRANCH  30  37
ATOM     37  N   UNL     1       1.675   4.583  -0.001  0.00  0.00    -0.295 N 
ATOM     38  H   UNL     1       2.271   5.508  -0.006  0.00  0.00    +0.163 HD
ATOM     39  H   UNL     1       0.576   4.637   0.008  0.00  0.00    +0.163 HD
ENDBRANCH  30  37
ENDBRANCH  25  26
ENDBRANCH  24  25
ENDBRANCH   2  24
TORSDOF 8
