REMARK  Name = ZINC03040696
REMARK  6 active torsions:
REMARK  status: ('A' for Active; 'I' for Inactive)
REMARK    1  A    between atoms: C_1  and  O_2
REMARK    2  A    between atoms: O_2  and  C_3
REMARK    3  A    between atoms: C_7  and  N_9
REMARK    4  A    between atoms: N_12  and  C_13
REMARK    5  A    between atoms: C_15  and  C_35
REMARK    6  A    between atoms: C_18  and  N_19
REMARK                            x       y       z     vdW  Elec       q    Type
REMARK                         _______ _______ _______ _____ _____    ______ ____
ROOT
ATOM      1  C   UNL     1       2.853  -6.513   4.329  0.00  0.00    +0.057 A 
ATOM      2  C   UNL     1       3.425  -5.762   5.337  0.00  0.00    +0.040 A 
ATOM      3  C   UNL     1       4.101  -6.400   6.383  0.00  0.00    +0.065 A 
ATOM      4  C   UNL     1       4.194  -7.796   6.404  0.00  0.00    +0.017 A 
ATOM      5  C   UNL     1       3.622  -8.540   5.397  0.00  0.00    +0.026 A 
ATOM      6  C   UNL     1       2.946  -7.908   4.359  0.00  0.00    +0.051 A 
ENDROOT
BRANCH   6   7
ATOM      7  N   UNL     1       2.364  -8.664   3.347  0.00  0.00    -0.328 N 
ATOM      8  C   UNL     1       0.937  -9.005   3.390  0.00  0.00    +0.110 C 
ATOM      9  C   UNL     1       0.746 -10.499   3.169  0.00  0.00    +0.027 C 
ATOM     10  C   UNL     1       1.508 -10.973   1.931  0.00  0.00    +0.018 C 
ATOM     11  C   UNL     1       2.994 -10.667   2.132  0.00  0.00    +0.053 C 
ATOM     12  C   UNL     1       3.165  -9.135   2.205  0.00  0.00    +0.114 C 
ATOM     13  C   UNL     1       3.466 -11.266   3.436  0.00  0.00    +0.027 A 
ATOM     14  C   UNL     1       4.781 -11.599   3.533  0.00  0.00    +0.022 A 
ATOM     15  C   UNL     1       5.302 -12.097   4.732  0.00  0.00    +0.007 A 
ATOM     16  C   UNL     1       4.476 -12.217   5.811  0.00  0.00    +0.070 A 
ATOM     17  C   UNL     1       3.127 -11.861   5.679  0.00  0.00    +0.251 A 
ATOM     18  O   UNL     1       2.392 -11.903   6.653  0.00  0.00    -0.268 OA
ATOM     19  N   UNL     1       2.629 -11.470   4.480  0.00  0.00    -0.312 N 
ATOM     20  C   UNL     1       1.183 -11.314   4.372  0.00  0.00    +0.130 C 
ENDBRANCH   6   7
BRANCH   1  24
ATOM     21  N   UNL     1       0.897  -4.093   2.484  0.00  0.00    -0.269 N 
ATOM     22  C   UNL     1       1.539  -4.710   3.496  0.00  0.00    +0.308 C 
ATOM     23  O   UNL     1       1.543  -4.213   4.606  0.00  0.00    -0.252 OA
ATOM     24  N   UNL     1       2.176  -5.877   3.279  0.00  0.00    -0.268 N 
ATOM     25  H   UNL     1       0.787  -4.545   1.633  0.00  0.00    +0.156 HD
ATOM     26  H   UNL     1       2.165  -6.278   2.395  0.00  0.00    +0.156 HD
BRANCH  21  31
ATOM     27  C   UNL     1      -0.234  -0.668   1.754  0.00  0.00    +0.122 A 
ATOM     28  C   UNL     1      -0.616  -0.245   3.019  0.00  0.00    +0.046 A 
ATOM     29  C   UNL     1      -0.496  -1.097   4.100  0.00  0.00    +0.005 A 
ATOM     30  C   UNL     1       0.006  -2.372   3.925  0.00  0.00    +0.023 A 
ATOM     31  C   UNL     1       0.390  -2.801   2.661  0.00  0.00    +0.038 A 
ATOM     32  C   UNL     1       0.264  -1.949   1.573  0.00  0.00    +0.069 A 
BRANCH  27  34
ATOM     33  C   UNL     1      -0.874   1.476   0.951  0.00  0.00    +0.277 C 
ATOM     34  O   UNL     1      -0.353   0.171   0.691  0.00  0.00    -0.495 OA
ENDBRANCH  27  34
ENDBRANCH  21  31
ENDBRANCH   1  24
BRANCH   3  35
ATOM     35  C   UNL     1       4.713  -5.604   7.459  0.00  0.00    +0.387 C 
ATOM     36  O   UNL     1       4.631  -4.384   7.440  0.00  0.00    -0.241 OA
ATOM     37  O   UNL     1       5.303  -6.163   8.373  0.00  0.00    -0.241 OA
ENDBRANCH   3  35
TORSDOF 5
