REMARK  Name = ZINC12589556
REMARK  13 active torsions:
REMARK  status: ('A' for Active; 'I' for Inactive)
REMARK    1  A    between atoms: C_1  and  C_2
REMARK    2  A    between atoms: C_5  and  N_8
REMARK    3  A    between atoms: N_8  and  C_9
REMARK    4  A    between atoms: C_9  and  N_11
REMARK    5  A    between atoms: N_11  and  N_12
REMARK    6  A    between atoms: N_12  and  C_13
REMARK    7  A    between atoms: C_13  and  N_15
REMARK    8  A    between atoms: P_16  and  C_17
REMARK    9  A    between atoms: P_16  and  N_21
REMARK   10  A    between atoms: P_16  and  N_27
REMARK   11  A    between atoms: C_17  and  C_18
REMARK   12  A    between atoms: C_17  and  C_19
REMARK   13  A    between atoms: C_17  and  C_20
REMARK                            x       y       z     vdW  Elec       q    Type
REMARK                         _______ _______ _______ _____ _____    ______ ____
ROOT
ATOM      1  N   UNL     1       4.866  -0.697  -0.183  0.00  0.00    -0.179 NA
ATOM      2  P   UNL     1       6.364  -0.983   0.113  0.00  0.00    +0.102 P 
ENDROOT
BRANCH   2   3
ATOM      3  N   UNL     1       6.839  -2.380  -0.696  0.00  0.00    -0.254 NA
ATOM      4  C   UNL     1       8.078  -2.926  -0.123  0.00  0.00    +0.119 C 
ATOM      5  C   UNL     1       8.441  -4.224  -0.848  0.00  0.00    +0.175 C 
ATOM      6  O   UNL     1       8.562  -3.965  -2.249  0.00  0.00    -0.377 OA
ATOM      7  C   UNL     1       7.373  -3.433  -2.840  0.00  0.00    +0.175 C 
ATOM      8  C   UNL     1       6.999  -2.126  -2.135  0.00  0.00    +0.119 C 
ENDBRANCH   2   3
BRANCH   2   9
ATOM      9  N   UNL     1       7.297   0.315  -0.412  0.00  0.00    -0.254 NA
ATOM     10  C   UNL     1       7.257   1.419   0.558  0.00  0.00    +0.119 C 
ATOM     11  C   UNL     1       8.164   2.552   0.071  0.00  0.00    +0.175 C 
ATOM     12  O   UNL     1       7.748   2.962  -1.234  0.00  0.00    -0.377 OA
ATOM     13  C   UNL     1       7.776   1.911  -2.204  0.00  0.00    +0.175 C 
ATOM     14  C   UNL     1       6.864   0.772  -1.740  0.00  0.00    +0.119 C 
ENDBRANCH   2   9
BRANCH   2  15
ATOM     15  C   UNL     1       6.595  -1.212   1.907  0.00  0.00    +0.021 C 
ATOM     16  C   UNL     1       8.084  -1.115   2.246  0.00  0.00    +0.019 C 
ATOM     17  C   UNL     1       5.828  -0.126   2.663  0.00  0.00    +0.019 C 
ATOM     18  C   UNL     1       6.068  -2.588   2.318  0.00  0.00    +0.019 C 
ENDBRANCH   2  15
BRANCH   1  19
ATOM     19  C   UNL     1       4.041  -1.693  -0.419  0.00  0.00    +0.172 C 
ATOM     20  S   UNL     1       4.581  -3.309  -0.256  0.00  0.00    -0.015 S 
BRANCH  19  21
ATOM     21  N   UNL     1       2.770  -1.442  -0.789  0.00  0.00    -0.245 N 
ATOM     22  H   UNL     1       2.161  -2.176  -0.964  0.00  0.00    +0.172 HD
BRANCH  21  23
ATOM     23  N   UNL     1       2.328  -0.119  -0.923  0.00  0.00    -0.246 N 
ATOM     24  H   UNL     1       2.936   0.616  -0.749  0.00  0.00    +0.172 HD
BRANCH  23  25
ATOM     25  C   UNL     1       1.056   0.133  -1.293  0.00  0.00    +0.151 C 
ATOM     26  S   UNL     1       0.516   1.749  -1.456  0.00  0.00    -0.017 S 
BRANCH  25  27
ATOM     27  N   UNL     1       0.210  -0.888  -1.535  0.00  0.00    -0.296 N 
ATOM     28  H   UNL     1       0.534  -1.802  -1.511  0.00  0.00    +0.154 HD
BRANCH  27  33
ATOM     29  C   UNL     1      -5.237   0.161  -2.720  0.00  0.00    +0.044 C 
ATOM     30  C   UNL     1      -3.790  -0.118  -2.405  0.00  0.00    -0.050 A 
ATOM     31  C   UNL     1      -2.793   0.506  -3.133  0.00  0.00    +0.005 A 
ATOM     32  C   UNL     1      -1.466   0.252  -2.847  0.00  0.00    +0.023 A 
ATOM     33  C   UNL     1      -1.133  -0.629  -1.827  0.00  0.00    +0.033 A 
ATOM     34  C   UNL     1      -2.137  -1.258  -1.101  0.00  0.00    +0.023 A 
ATOM     35  C   UNL     1      -3.462  -0.996  -1.389  0.00  0.00    +0.005 A 
ENDBRANCH  27  33
ENDBRANCH  25  27
ENDBRANCH  23  25
ENDBRANCH  21  23
ENDBRANCH  19  21
ENDBRANCH   1  19
TORSDOF 9
