REMARK  Name = ZINC20478621
REMARK  6 active torsions:
REMARK  status: ('A' for Active; 'I' for Inactive)
REMARK    1  A    between atoms: C_6  and  N_7
REMARK    2  A    between atoms: N_7  and  C_8
REMARK    3  A    between atoms: C_8  and  C_9
REMARK    4  A    between atoms: N_11  and  N_12
REMARK    5  A    between atoms: C_13  and  C_14
REMARK    6  A    between atoms: C_18  and  N_21
REMARK                            x       y       z     vdW  Elec       q    Type
REMARK                         _______ _______ _______ _____ _____    ______ ____
ROOT
ATOM      1  C   UNL     1      -2.589  -2.708   0.013  0.00  0.00    +0.249 C 
ATOM      2  O   UNL     1      -3.522  -1.934   0.027  0.00  0.00    -0.272 OA
ATOM      3  N   UNL     1      -2.816  -4.037   0.008  0.00  0.00    -0.206 N 
ATOM      4  H   UNL     1      -2.069  -4.656  -0.002  0.00  0.00    +0.177 HD
ENDROOT
BRANCH   3   5
ATOM      5  N   UNL     1      -4.129  -4.524   0.019  0.00  0.00    -0.188 NA
ATOM      6  C   UNL     1      -4.348  -5.803   0.014  0.00  0.00    +0.142 C 
BRANCH   6   7
ATOM      7  C   UNL     1      -5.730  -6.315   0.025  0.00  0.00    +0.045 A 
ATOM      8  C   UNL     1      -5.969  -7.691   0.026  0.00  0.00    +0.033 A 
ATOM      9  C   UNL     1      -7.265  -8.163   0.036  0.00  0.00    +0.044 A 
ATOM     10  C   UNL     1      -8.331  -7.278   0.046  0.00  0.00    +0.056 A 
ATOM     11  C   UNL     1      -8.106  -5.914   0.045  0.00  0.00    +0.175 A 
ATOM     12  C   UNL     1      -6.811  -5.423   0.041  0.00  0.00    +0.218 A 
ATOM     13  O   UNL     1      -6.590  -4.083   0.046  0.00  0.00    -0.285 OA
ATOM     14 CL   UNL     1      -7.562  -9.874   0.036  0.00  0.00    -0.083 Cl
BRANCH  11  15
ATOM     15  N   UNL     1      -9.252  -4.977   0.055  0.00  0.00    +0.060 N 
ATOM     16  O   UNL     1     -10.383  -5.404   0.064  0.00  0.00    -0.126 OA
ATOM     17  O   UNL     1      -9.056  -3.784   0.055  0.00  0.00    -0.126 OA
ENDBRANCH  11  15
ENDBRANCH   6   7
ENDBRANCH   3   5
BRANCH   1  18
ATOM     18  C   UNL     1      -1.176  -2.185   0.002  0.00  0.00    +0.199 C 
BRANCH  18  19
ATOM     19  N   UNL     1      -1.197  -0.720   0.010  0.00  0.00    -0.335 N 
ATOM     20  H   UNL     1      -2.044  -0.248   0.021  0.00  0.00    +0.147 HD
BRANCH  19  26
ATOM     21  C   UNL     1      -0.017   1.385   0.010  0.00  0.00    +0.024 A 
ATOM     22  C   UNL     1       1.171   2.090   0.002  0.00  0.00    +0.016 A 
ATOM     23  C   UNL     1       2.378   1.415  -0.013  0.00  0.00    +0.013 A 
ATOM     24  C   UNL     1       2.400   0.032  -0.022  0.00  0.00    +0.016 A 
ATOM     25  C   UNL     1       1.216  -0.679  -0.014  0.00  0.00    +0.024 A 
ATOM     26  C   UNL     1       0.002  -0.004   0.002  0.00  0.00    +0.028 A 
ATOM     27  I   UNL     1       4.176   2.489  -0.026  0.00  0.00    -0.044 I 
ENDBRANCH  19  26
ENDBRANCH  18  19
ENDBRANCH   1  18
TORSDOF 6
