REMARK  Name = ZINC12465563
REMARK  7 active torsions:
REMARK  status: ('A' for Active; 'I' for Inactive)
REMARK    1  A    between atoms: C_1  and  O_2
REMARK    2  A    between atoms: O_2  and  C_3
REMARK    3  A    between atoms: C_6  and  C_8
REMARK    4  A    between atoms: C_12  and  N_13
REMARK    5  A    between atoms: C_14  and  C_16
REMARK    6  A    between atoms: N_21  and  S_22
REMARK    7  A    between atoms: S_22  and  C_25
REMARK                            x       y       z     vdW  Elec       q    Type
REMARK                         _______ _______ _______ _____ _____    ______ ____
ROOT
ATOM      1  C   UNL     1       4.219   4.707  -3.004  0.00  0.00    +0.069 A 
ATOM      2  C   UNL     1       4.198   5.433  -4.268  0.00  0.00    -0.023 A 
ATOM      3  C   UNL     1       3.016   5.408  -4.919  0.00  0.00    -0.004 A 
ATOM      4  S   UNL     1       1.952   4.427  -3.896  0.00  0.00    -0.077 S 
ATOM      5  C   UNL     1       3.053   4.069  -2.608  0.00  0.00    +0.084 A 
ATOM      6  C   UNL     1       2.673   6.064  -6.220  0.00  0.00    +0.043 C 
ATOM      7  C   UNL     1       3.758   5.732  -7.254  0.00  0.00    +0.005 C 
ATOM      8  C   UNL     1       4.846   6.798  -7.171  0.00  0.00    +0.001 C 
ATOM      9  C   UNL     1       4.990   7.292  -5.733  0.00  0.00    +0.005 C 
ATOM     10  C   UNL     1       5.424   6.152  -4.818  0.00  0.00    +0.037 C 
ENDROOT
BRANCH   1  14
ATOM     11  C   UNL     1       6.762   5.546  -0.485  0.00  0.00    +0.407 C 
ATOM     12  O   UNL     1       7.569   4.653  -0.648  0.00  0.00    -0.226 OA
ATOM     13  N   UNL     1       5.648   5.596  -1.242  0.00  0.00    -0.217 N 
ATOM     14  C   UNL     1       5.430   4.654  -2.181  0.00  0.00    +0.255 C 
ATOM     15  O   UNL     1       6.238   3.759  -2.345  0.00  0.00    -0.270 OA
ATOM     16  H   UNL     1       5.004   6.309  -1.111  0.00  0.00    +0.161 HD
BRANCH  11  18
ATOM     17  C   UNL     1       8.201   6.370   1.231  0.00  0.00    +0.282 C 
ATOM     18  O   UNL     1       6.981   6.487   0.453  0.00  0.00    -0.453 OA
ENDBRANCH  11  18
ENDBRANCH   1  14
BRANCH   5  19
ATOM     19  N   UNL     1       2.826   3.322  -1.463  0.00  0.00    -0.278 N 
ATOM     20  C   UNL     1       1.615   2.773  -1.246  0.00  0.00    +0.236 C 
ATOM     21  O   UNL     1       0.724   2.932  -2.053  0.00  0.00    -0.274 OA
ATOM     22  H   UNL     1       3.539   3.195  -0.817  0.00  0.00    +0.155 HD
BRANCH  20  23
ATOM     23  C   UNL     1       1.368   1.960  -0.001  0.00  0.00    +0.166 C 
ATOM     24  C   UNL     1       2.292   0.724   0.011  0.00  0.00    +0.031 C 
ATOM     25  C   UNL     1       1.380  -0.385   0.599  0.00  0.00    +0.019 C 
ATOM     26  C   UNL     1       0.002  -0.004   0.002  0.00  0.00    +0.110 C 
ATOM     27  N   UNL     1      -0.018   1.470   0.010  0.00  0.00    -0.164 NA
BRANCH  27  28
ATOM     28  S   UNL     1      -1.377   2.417   0.022  0.00  0.00    +0.068 S 
ATOM     29  O   UNL     1      -1.001   3.674  -0.524  0.00  0.00    -0.152 OA
ATOM     30  O   UNL     1      -2.425   1.630  -0.527  0.00  0.00    -0.152 OA
BRANCH  28  31
ATOM     31  C   UNL     1      -1.795   2.706   1.709  0.00  0.00    +0.143 A 
ATOM     32  C   UNL     1      -1.392   3.707   2.529  0.00  0.00    +0.036 A 
ATOM     33  C   UNL     1      -1.857   3.736   3.830  0.00  0.00    +0.010 A 
ATOM     34  C   UNL     1      -2.694   2.756   4.251  0.00  0.00    +0.047 A 
ATOM     35  S   UNL     1      -2.855   1.752   2.784  0.00  0.00    -0.077 S 
ENDBRANCH  28  31
ENDBRANCH  27  28
ENDBRANCH  20  23
ENDBRANCH   5  19
TORSDOF 6
