REMARK  Name = ZINC38598010
REMARK  6 active torsions:
REMARK  status: ('A' for Active; 'I' for Inactive)
REMARK    1  A    between atoms: C_5  and  N_7
REMARK    2  A    between atoms: N_10  and  C_11
REMARK    3  A    between atoms: C_11  and  C_12
REMARK    4  A    between atoms: C_12  and  C_14
REMARK    5  A    between atoms: C_12  and  N_19
REMARK    6  A    between atoms: N_22  and  C_25
REMARK                            x       y       z     vdW  Elec       q    Type
REMARK                         _______ _______ _______ _____ _____    ______ ____
ROOT
ATOM      1  C   UNL     1      -1.376  -6.477  -0.177  0.00  0.00    +0.017 C 
ENDROOT
BRANCH   1   2
ATOM      2  N   UNL     1      -0.410  -6.952   0.822  0.00  0.00    +0.389 N 
ATOM      3  C   UNL     1      -0.247  -8.406   0.690  0.00  0.00    -0.059 C 
ATOM      4  C   UNL     1       0.672  -8.919   1.804  0.00  0.00    +0.086 C 
ATOM      5  N   UNL     1       1.931  -8.160   1.756  0.00  0.00    -0.333 N 
ATOM      6  C   UNL     1       1.855  -6.691   1.719  0.00  0.00    +0.086 C 
ATOM      7  C   UNL     1       0.880  -6.283   0.610  0.00  0.00    -0.059 C 
ATOM      8  H   UNL     1      -0.751  -6.737   1.747  0.00  0.00    -0.081 HD
BRANCH   5   9
ATOM      9  C   UNL     1       3.166  -8.816   1.746  0.00  0.00    +0.030 A 
ATOM     10  C   UNL     1       4.343  -8.084   1.825  0.00  0.00    +0.026 A 
ATOM     11  C   UNL     1       5.562  -8.734   1.815  0.00  0.00    +0.040 A 
ATOM     12  C   UNL     1       5.610 -10.115   1.726  0.00  0.00    +0.124 A 
ATOM     13  C   UNL     1       4.438 -10.847   1.647  0.00  0.00    +0.040 A 
ATOM     14  C   UNL     1       3.216 -10.201   1.662  0.00  0.00    +0.026 A 
ATOM     15  F   UNL     1       6.803 -10.748   1.716  0.00  0.00    -0.205 F 
ENDBRANCH   5   9
ENDBRANCH   1   2
BRANCH   1  16
ATOM     16  C   UNL     1      -2.728  -7.082   0.103  0.00  0.00    +0.093 A 
ATOM     17  C   UNL     1      -3.591  -7.542  -0.820  0.00  0.00    +0.043 A 
ATOM     18  C   UNL     1      -4.723  -8.018  -0.121  0.00  0.00    +0.041 A 
ATOM     19  C   UNL     1      -4.485  -7.821   1.188  0.00  0.00    +0.195 A 
ATOM     20  O   UNL     1      -3.272  -7.258   1.318  0.00  0.00    -0.469 OA
ENDBRANCH   1  16
BRANCH   1  21
ATOM     21  C   UNL     1      -1.475  -4.952  -0.106  0.00  0.00    +0.098 C 
BRANCH  21  25
ATOM     22  N   UNL     1      -2.354  -2.880   2.801  0.00  0.00    -0.267 N 
ATOM     23  C   UNL     1      -2.047  -3.251   1.543  0.00  0.00    +0.304 C 
ATOM     24  O   UNL     1      -1.986  -2.417   0.660  0.00  0.00    -0.253 OA
ATOM     25  N   UNL     1      -1.808  -4.548   1.262  0.00  0.00    -0.300 N 
ATOM     26  H   UNL     1      -2.326  -3.531   3.520  0.00  0.00    +0.156 HD
ATOM     27  H   UNL     1      -1.857  -5.213   1.966  0.00  0.00    +0.150 HD
BRANCH  22  32
ATOM     28  C   UNL     1      -3.591   0.553   2.335  0.00  0.00    +0.002 A 
ATOM     29  C   UNL     1      -3.421   1.069   3.606  0.00  0.00    +0.003 A 
ATOM     30  C   UNL     1      -2.899   0.278   4.613  0.00  0.00    +0.040 A 
ATOM     31  C   UNL     1      -2.543  -1.032   4.350  0.00  0.00    +0.145 A 
ATOM     32  C   UNL     1      -2.713  -1.553   3.072  0.00  0.00    +0.070 A 
ATOM     33  C   UNL     1      -3.238  -0.755   2.065  0.00  0.00    +0.026 A 
ATOM     34  F   UNL     1      -2.032  -1.805   5.333  0.00  0.00    -0.204 F 
ENDBRANCH  22  32
ENDBRANCH  21  25
ENDBRANCH   1  21
TORSDOF 6
