REMARK  Name = ZINC20814955
REMARK  12 active torsions:
REMARK  status: ('A' for Active; 'I' for Inactive)
REMARK    1  A    between atoms: C_1  and  C_2
REMARK    2  A    between atoms: C_2  and  N_3
REMARK    3  A    between atoms: N_3  and  C_4
REMARK    4  A    between atoms: N_3  and  C_11
REMARK    5  A    between atoms: C_4  and  C_5
REMARK    6  A    between atoms: C_11  and  C_12
REMARK    7  A    between atoms: N_14  and  C_15
REMARK    8  A    between atoms: C_15  and  C_16
REMARK    9  A    between atoms: N_18  and  C_19
REMARK   10  A    between atoms: C_20  and  C_27
REMARK   11  A    between atoms: C_22  and  C_26
REMARK   12  A    between atoms: C_24  and  C_25
REMARK                            x       y       z     vdW  Elec       q    Type
REMARK                         _______ _______ _______ _____ _____    ______ ____
ROOT
ATOM      1  C   UNL     1      -1.780   1.492   1.029  0.00  0.00    +0.197 C 
ATOM      2  O   UNL     1      -1.509   0.713   1.918  0.00  0.00    -0.278 OA
ATOM      3  N   UNL     1      -1.347   2.767   1.096  0.00  0.00    -0.308 N 
ATOM      4  H   UNL     1      -1.593   3.474   0.291  0.00  0.00    +0.149 HD
ENDROOT
BRANCH   1   5
ATOM      5  C   UNL     1      -2.600   1.036  -0.149  0.00  0.00    +0.019 C 
BRANCH   5   6
ATOM      6  N   UNL     1      -2.945  -0.383   0.013  0.00  0.00    +0.388 N 
ATOM      7  H   UNL     1      -2.015  -0.935   0.213  0.00  0.00    -0.081 HD
BRANCH   6   9
ATOM      8  C   UNL     1      -5.140   0.198   0.931  0.00  0.00    -0.017 C 
ATOM      9  C   UNL     1      -3.842  -0.578   1.160  0.00  0.00    -0.081 C 
ENDBRANCH   6   9
BRANCH   6  10
ATOM     10  C   UNL     1      -3.537  -0.925  -1.216  0.00  0.00    -0.035 C 
BRANCH  10  11
ATOM     11  C   UNL     1      -3.513  -2.431  -1.164  0.00  0.00    -0.026 A 
ATOM     12  C   UNL     1      -4.476  -3.285  -0.741  0.00  0.00    +0.010 A 
ATOM     13  C   UNL     1      -4.232  -4.646  -0.783  0.00  0.00    +0.023 A 
ATOM     14  C   UNL     1      -3.035  -5.084  -1.246  0.00  0.00    +0.055 A 
ATOM     15  S   UNL     1      -2.212  -3.552  -1.649  0.00  0.00    -0.088 S 
ATOM     16 BR   UNL     1      -2.405  -6.858  -1.426  0.00  0.00    -0.043 Br
ENDBRANCH  10  11
ENDBRANCH   6  10
ENDBRANCH   5   6
ENDBRANCH   1   5
BRANCH   3  17
ATOM     17  C   UNL     1      -0.549   3.211   2.242  0.00  0.00    +0.200 C 
BRANCH  17  18
ATOM     18  C   UNL     1      -0.196   4.666   2.075  0.00  0.00    +0.234 C 
ATOM     19  O   UNL     1      -0.573   5.273   1.095  0.00  0.00    -0.274 OA
ATOM     20  N   UNL     1       0.539   5.293   3.015  0.00  0.00    -0.284 N 
ATOM     21  H   UNL     1       0.921   4.731   3.880  0.00  0.00    +0.155 HD
BRANCH  20  22
ATOM     22  C   UNL     1       0.818   6.659   2.889  0.00  0.00    +0.039 A 
ATOM     23  C   UNL     1       1.463   7.136   1.756  0.00  0.00    -0.029 A 
ATOM     24  C   UNL     1       1.733   8.485   1.633  0.00  0.00    +0.008 A 
ATOM     25  C   UNL     1       1.370   9.358   2.641  0.00  0.00    -0.050 A 
ATOM     26  C   UNL     1       0.731   8.886   3.773  0.00  0.00    +0.008 A 
ATOM     27  C   UNL     1       0.454   7.539   3.900  0.00  0.00    -0.029 A 
ATOM     28  C   UNL     1      -0.241   7.025   5.134  0.00  0.00    +0.045 C 
ATOM     29  C   UNL     1       1.670  10.829   2.506  0.00  0.00    +0.044 C 
ATOM     30  C   UNL     1       1.864   6.183   0.659  0.00  0.00    +0.045 C 
ENDBRANCH  20  22
ENDBRANCH  17  18
ENDBRANCH   3  17
TORSDOF 8
