REMARK  Name = ZINC12485510
REMARK  12 active torsions:
REMARK  status: ('A' for Active; 'I' for Inactive)
REMARK    1  A    between atoms: C_1  and  C_2
REMARK    2  A    between atoms: C_5  and  C_8
REMARK    3  A    between atoms: C_8  and  N_9
REMARK    4  A    between atoms: N_9  and  C_10
REMARK    5  A    between atoms: C_10  and  C_12
REMARK    6  A    between atoms: C_10  and  C_19
REMARK    7  A    between atoms: C_15  and  C_18
REMARK    8  A    between atoms: N_21  and  C_22
REMARK    9  A    between atoms: C_22  and  C_23
REMARK   10  A    between atoms: C_28  and  C_30
REMARK   11  A    between atoms: C_30  and  N_31
REMARK   12  A    between atoms: C_32  and  C_34
REMARK                            x       y       z     vdW  Elec       q    Type
REMARK                         _______ _______ _______ _____ _____    ______ ____
ROOT
ATOM      1  N   UNL     1      -5.093   7.101   2.499  0.00  0.00    -0.280 N 
ATOM      2  C   UNL     1      -5.684   8.010   3.299  0.00  0.00    +0.234 C 
ATOM      3  O   UNL     1      -6.097   7.680   4.391  0.00  0.00    -0.274 OA
ENDROOT
BRANCH   1   4
ATOM      4  C   UNL     1      -4.656   7.482   1.154  0.00  0.00    +0.144 C 
BRANCH   4   9
ATOM      5  C   UNL     1      -9.204   9.319  -1.900  0.00  0.00    +0.044 C 
ATOM      6  C   UNL     1      -8.018   8.840  -1.104  0.00  0.00    -0.050 A 
ATOM      7  C   UNL     1      -6.737   9.043  -1.582  0.00  0.00    +0.003 A 
ATOM      8  C   UNL     1      -5.649   8.604  -0.851  0.00  0.00    +0.005 A 
ATOM      9  C   UNL     1      -5.842   7.962   0.358  0.00  0.00    -0.030 A 
ATOM     10  C   UNL     1      -7.123   7.754   0.833  0.00  0.00    +0.005 A 
ATOM     11  C   UNL     1      -8.211   8.198   0.105  0.00  0.00    +0.003 A 
ENDBRANCH   4   9
ENDBRANCH   1   4
BRANCH   1  12
ATOM     12  C   UNL     1      -4.888   5.730   2.975  0.00  0.00    +0.193 C 
BRANCH  12  13
ATOM     13  C   UNL     1      -3.452   5.555   3.398  0.00  0.00    -0.018 A 
ATOM     14  C   UNL     1      -2.430   5.840   2.511  0.00  0.00    +0.006 A 
ATOM     15  C   UNL     1      -1.113   5.684   2.901  0.00  0.00    +0.004 A 
ATOM     16  C   UNL     1      -0.818   5.233   4.174  0.00  0.00    -0.050 A 
ATOM     17  C   UNL     1      -1.839   4.943   5.059  0.00  0.00    +0.004 A 
ATOM     18  C   UNL     1      -3.156   5.104   4.671  0.00  0.00    +0.006 A 
ATOM     19  C   UNL     1       0.618   5.058   4.597  0.00  0.00    +0.044 C 
ENDBRANCH  12  13
BRANCH  12  20
ATOM     20  C   UNL     1      -5.207   4.761   1.866  0.00  0.00    +0.238 C 
ATOM     21  O   UNL     1      -5.242   5.145   0.716  0.00  0.00    -0.273 OA
ATOM     22  N   UNL     1      -5.452   3.467   2.152  0.00  0.00    -0.306 N 
ATOM     23  H   UNL     1      -5.424   3.160   3.072  0.00  0.00    +0.149 HD
BRANCH  22  24
ATOM     24  C   UNL     1      -5.762   2.524   1.075  0.00  0.00    +0.178 C 
BRANCH  24  25
ATOM     25  C   UNL     1      -5.994   1.154   1.657  0.00  0.00    +0.122 A 
ATOM     26  C   UNL     1      -7.177   0.664   2.069  0.00  0.00    +0.046 A 
ATOM     27  C   UNL     1      -6.936  -0.647   2.541  0.00  0.00    +0.041 A 
ATOM     28  C   UNL     1      -5.620  -0.880   2.388  0.00  0.00    +0.195 A 
ATOM     29  O   UNL     1      -5.056   0.212   1.847  0.00  0.00    -0.466 OA
ENDBRANCH  24  25
ENDBRANCH  22  24
ENDBRANCH  12  20
ENDBRANCH   1  12
BRANCH   2  30
ATOM     30  C   UNL     1      -5.830   9.438   2.838  0.00  0.00    +0.200 C 
BRANCH  30  31
ATOM     31  N   UNL     1      -6.330  10.259   3.943  0.00  0.00    -0.302 N 
ATOM     32  C   UNL     1      -6.539  11.578   3.761  0.00  0.00    +0.251 C 
ATOM     33  O   UNL     1      -6.313  12.086   2.679  0.00  0.00    -0.270 OA
ATOM     34  H   UNL     1      -6.510   9.854   4.806  0.00  0.00    +0.150 HD
BRANCH  32  35
ATOM     35  C   UNL     1      -7.040  12.400   4.867  0.00  0.00    +0.074 A 
ATOM     36  C   UNL     1      -7.313  13.759   4.891  0.00  0.00    +0.021 A 
ATOM     37  C   UNL     1      -7.781  14.281   6.071  0.00  0.00    +0.008 A 
ATOM     38  C   UNL     1      -7.941  13.461   7.142  0.00  0.00    +0.046 A 
ATOM     39  S   UNL     1      -7.447  11.914   6.534  0.00  0.00    -0.092 S 
ENDBRANCH  32  35
ENDBRANCH  30  31
ENDBRANCH   2  30
TORSDOF 10
