REMARK  Name = ZINC63537910
REMARK  5 active torsions:
REMARK  status: ('A' for Active; 'I' for Inactive)
REMARK    1  A    between atoms: C_6  and  C_7
REMARK    2  A    between atoms: C_10  and  C_35
REMARK    3  A    between atoms: C_17  and  C_20
REMARK    4  A    between atoms: N_22  and  C_23
REMARK    5  A    between atoms: C_23  and  C_24
REMARK                            x       y       z     vdW  Elec       q    Type
REMARK                         _______ _______ _______ _____ _____    ______ ____
ROOT
ATOM      1  C   UNL     1      -1.293  -0.775   0.011  0.00  0.00    +0.087 C 
ATOM      2  C   UNL     1      -1.591  -1.241   1.435  0.00  0.00    +0.052 C 
ATOM      3  C   UNL     1      -2.806  -2.182   1.453  0.00  0.00    +0.180 C 
ATOM      4  N   UNL     1      -2.532  -3.264   0.516  0.00  0.00    -0.213 NA
ATOM      5  C   UNL     1      -2.417  -2.698  -0.856  0.00  0.00    +0.142 C 
ATOM      6  N   UNL     1      -1.178  -1.927  -0.905  0.00  0.00    -0.293 NA
ATOM      7  C   UNL     1      -2.417  -3.954  -1.735  0.00  0.00    +0.065 C 
ATOM      8  C   UNL     1      -3.204  -4.990  -0.892  0.00  0.00    +0.158 C 
ATOM      9  N   UNL     1      -3.547  -4.294   0.380  0.00  0.00    -0.240 NA
ATOM     10  H   UNL     1      -0.980  -1.622  -1.846  0.00  0.00    +0.124 HD
ATOM     11  H   UNL     1      -4.470  -3.888   0.332  0.00  0.00    +0.142 HD
ENDROOT
BRANCH   1  17
ATOM     12  C   UNL     1      -0.017   1.378   0.010  0.00  0.00    +0.006 A 
ATOM     13  C   UNL     1       1.171   2.086   0.002  0.00  0.00    +0.020 A 
ATOM     14  C   UNL     1       2.378   1.410  -0.013  0.00  0.00    +0.041 A 
ATOM     15  C   UNL     1       2.396   0.027  -0.021  0.00  0.00    +0.020 A 
ATOM     16  C   UNL     1       1.208  -0.679  -0.013  0.00  0.00    +0.006 A 
ATOM     17  C   UNL     1       0.002  -0.004   0.002  0.00  0.00    -0.030 A 
ATOM     18 CL   UNL     1       3.870   2.298  -0.023  0.00  0.00    -0.084 Cl
ENDBRANCH   1  17
BRANCH   8  19
ATOM     19  C   UNL     1      -4.459  -5.405  -1.616  0.00  0.00    +0.232 C 
ATOM     20  O   UNL     1      -5.526  -4.915  -1.310  0.00  0.00    -0.274 OA
ATOM     21  N   UNL     1      -4.396  -6.320  -2.604  0.00  0.00    -0.312 N 
ATOM     22  H   UNL     1      -3.543  -6.711  -2.849  0.00  0.00    +0.149 HD
BRANCH  21  23
ATOM     23  C   UNL     1      -5.616  -6.723  -3.307  0.00  0.00    +0.133 C 
BRANCH  23  24
ATOM     24  C   UNL     1      -5.269  -7.766  -4.373  0.00  0.00    +0.120 C 
ATOM     25  C   UNL     1      -6.534  -8.327  -4.984  0.00  0.00    +0.009 C 
ATOM     26  C   UNL     1      -6.521  -9.653  -4.720  0.00  0.00    -0.003 A 
ATOM     27  C   UNL     1      -7.454 -10.740  -5.041  0.00  0.00    +0.029 A 
ATOM     28  C   UNL     1      -7.163 -11.997  -4.632  0.00  0.00    +0.042 A 
ATOM     29  C   UNL     1      -5.995 -12.286  -3.912  0.00  0.00    +0.022 A 
ATOM     30  C   UNL     1      -5.091 -11.340  -3.580  0.00  0.00    +0.027 A 
ATOM     31  C   UNL     1      -5.295  -9.985  -3.958  0.00  0.00    +0.043 A 
ATOM     32  N   UNL     1      -4.577  -8.905  -3.759  0.00  0.00    -0.376 N 
ATOM     33 CL   UNL     1      -8.265 -13.284  -5.010  0.00  0.00    -0.084 Cl
ATOM     34  H   UNL     1      -3.731  -8.865  -3.287  0.00  0.00    +0.160 HD
ENDBRANCH  23  24
ENDBRANCH  21  23
ENDBRANCH   8  19
BRANCH   3  35
ATOM     35  C   UNL     1      -3.005  -2.749   2.860  0.00  0.00    +0.406 C 
ATOM     36  F   UNL     1      -3.221  -1.699   3.759  0.00  0.00    -0.169 F 
ATOM     37  F   UNL     1      -4.112  -3.604   2.867  0.00  0.00    -0.169 F 
ATOM     38  F   UNL     1      -1.863  -3.461   3.242  0.00  0.00    -0.169 F 
ENDBRANCH   3  35
TORSDOF 5
