REMARK  Name = ZINC01040679
REMARK  6 active torsions:
REMARK  status: ('A' for Active; 'I' for Inactive)
REMARK    1  A    between atoms: C_3  and  O_11
REMARK    2  A    between atoms: C_6  and  N_7
REMARK    3  A    between atoms: O_11  and  C_12
REMARK    4  A    between atoms: C_15  and  S_19
REMARK    5  A    between atoms: S_19  and  N_22
REMARK    6  A    between atoms: C_23  and  C_24
REMARK                            x       y       z     vdW  Elec       q    Type
REMARK                         _______ _______ _______ _____ _____    ______ ____
ROOT
ATOM      1  C   UNL     1       6.241   5.112  -3.131  0.00  0.00    +0.165 A 
ATOM      2  C   UNL     1       5.481   6.249  -2.898  0.00  0.00    +0.086 A 
ATOM      3  C   UNL     1       4.657   6.313  -1.790  0.00  0.00    +0.052 A 
ATOM      4  C   UNL     1       4.590   5.245  -0.914  0.00  0.00    +0.112 A 
ATOM      5  C   UNL     1       5.350   4.113  -1.140  0.00  0.00    +0.052 A 
ATOM      6  C   UNL     1       6.172   4.041  -2.250  0.00  0.00    +0.086 A 
ATOM      7 CL   UNL     1       7.120   2.616  -2.538  0.00  0.00    -0.080 Cl
ATOM      8 CL   UNL     1       5.565   7.591  -3.996  0.00  0.00    -0.080 Cl
ENDROOT
BRANCH   4   9
ATOM      9  S   UNL     1       3.539   5.331   0.498  0.00  0.00    +0.074 S 
ATOM     10  O   UNL     1       3.240   6.705   0.699  0.00  0.00    -0.150 OA
ATOM     11  O   UNL     1       4.143   4.528   1.503  0.00  0.00    -0.150 OA
BRANCH   9  12
ATOM     12  N   UNL     1       2.114   4.590   0.093  0.00  0.00    -0.201 N 
ATOM     13  C   UNL     1       1.344   5.093  -0.932  0.00  0.00    +0.116 C 
ATOM     14  H   UNL     1       1.823   3.802   0.578  0.00  0.00    +0.175 HD
ATOM     15  H   UNL     1       2.412   6.795  -1.248  0.00  0.00    +0.157 HD
ATOM     16  N   UNL     1       1.637   6.215  -1.569  0.00  0.00    -0.385 N 
ATOM     17  H   UNL     1       1.084   6.502  -2.385  0.00  0.00    +0.157 HD
BRANCH  13  18
ATOM     18  C   UNL     1       0.129   4.366  -1.371  0.00  0.00    +0.017 A 
ATOM     19  C   UNL     1      -0.667   4.859  -2.409  0.00  0.00    +0.031 A 
ATOM     20  C   UNL     1      -1.791   4.150  -2.787  0.00  0.00    +0.111 A 
ATOM     21  N   UNL     1      -2.118   3.026  -2.179  0.00  0.00    -0.263 NA
ATOM     22  C   UNL     1      -1.392   2.524  -1.199  0.00  0.00    +0.111 A 
ATOM     23  C   UNL     1      -0.253   3.169  -0.759  0.00  0.00    +0.031 A 
ENDBRANCH  13  18
ENDBRANCH   9  12
ENDBRANCH   4   9
BRANCH   1  24
ATOM     24  O   UNL     1       7.052   5.046  -4.220  0.00  0.00    -0.452 OA
BRANCH  24  27
ATOM     25  C   UNL     1      10.078   6.426  -2.744  0.00  0.00    +0.036 A 
ATOM     26  C   UNL     1       8.776   5.980  -2.873  0.00  0.00    +0.050 A 
ATOM     27  C   UNL     1       8.332   5.484  -4.090  0.00  0.00    +0.147 A 
ATOM     28  C   UNL     1       9.199   5.431  -5.174  0.00  0.00    +0.085 A 
ATOM     29  C   UNL     1      10.498   5.884  -5.040  0.00  0.00    +0.056 A 
ATOM     30  C   UNL     1      10.938   6.377  -3.825  0.00  0.00    +0.128 A 
ATOM     31 CL   UNL     1       8.649   4.804  -6.697  0.00  0.00    -0.080 Cl
BRANCH  30  32
ATOM     32  N   UNL     1      12.331   6.855  -3.683  0.00  0.00    +0.056 N 
ATOM     33  O   UNL     1      12.720   7.290  -2.614  0.00  0.00    -0.126 OA
ATOM     34  O   UNL     1      13.090   6.813  -4.635  0.00  0.00    -0.126 OA
ENDBRANCH  30  32
ENDBRANCH  24  27
ENDBRANCH   1  24
TORSDOF 6
