REMARK  Name = ZINC13267785
REMARK  7 active torsions:
REMARK  status: ('A' for Active; 'I' for Inactive)
REMARK    1  A    between atoms: C_1  and  O_2
REMARK    2  A    between atoms: O_2  and  C_3
REMARK    3  A    between atoms: C_5  and  N_12
REMARK    4  A    between atoms: C_8  and  C_9
REMARK    5  A    between atoms: N_12  and  S_13
REMARK    6  A    between atoms: S_13  and  C_16
REMARK    7  A    between atoms: C_19  and  C_22
REMARK                            x       y       z     vdW  Elec       q    Type
REMARK                         _______ _______ _______ _____ _____    ______ ____
ROOT
ATOM      1  S   UNL     1       2.644   8.013  -0.695  0.00  0.00    +0.072 S 
ATOM      2  O   UNL     1       2.452   9.398  -0.442  0.00  0.00    -0.150 OA
ATOM      3  O   UNL     1       3.829   7.326  -0.314  0.00  0.00    -0.150 OA
ENDROOT
BRANCH   1   4
ATOM      4  C   UNL     1       2.470   7.790  -2.434  0.00  0.00    +0.109 A 
ATOM      5  C   UNL     1       3.068   6.710  -3.056  0.00  0.00    +0.029 A 
ATOM      6  C   UNL     1       2.927   6.532  -4.420  0.00  0.00    +0.006 A 
ATOM      7  C   UNL     1       2.197   7.440  -5.163  0.00  0.00    -0.041 A 
ATOM      8  C   UNL     1       1.603   8.523  -4.542  0.00  0.00    +0.006 A 
ATOM      9  C   UNL     1       1.740   8.698  -3.178  0.00  0.00    +0.029 A 
BRANCH   7  10
ATOM     10  C   UNL     1       2.049   7.249  -6.651  0.00  0.00    -0.003 C 
ATOM     11  C   UNL     1       2.634   8.460  -7.381  0.00  0.00    +0.015 C 
ATOM     12  C   UNL     1       2.483   8.267  -8.891  0.00  0.00    -0.010 C 
ATOM     13  C   UNL     1       3.230   7.002  -9.320  0.00  0.00    +0.007 C 
ATOM     14  C   UNL     1       2.645   5.792  -8.590  0.00  0.00    -0.010 C 
ATOM     15  C   UNL     1       2.796   5.985  -7.080  0.00  0.00    +0.015 C 
ATOM     16  C   UNL     1       1.162   5.652  -8.941  0.00  0.00    +0.007 C 
ATOM     17  C   UNL     1       0.415   6.916  -8.512  0.00  0.00    -0.010 C 
ATOM     18  C   UNL     1       1.000   8.127  -9.242  0.00  0.00    +0.007 C 
ATOM     19  C   UNL     1       0.566   7.110  -7.002  0.00  0.00    +0.015 C 
ENDBRANCH   7  10
ENDBRANCH   1   4
BRANCH   1  20
ATOM     20  N   UNL     1       1.384   7.220   0.029  0.00  0.00    -0.215 N 
ATOM     21  H   UNL     1       0.752   7.712   0.577  0.00  0.00    +0.174 HD
BRANCH  20  24
ATOM     22  C   UNL     1       2.201   3.669  -0.409  0.00  0.00    +0.136 A 
ATOM     23  C   UNL     1       2.352   5.034  -0.238  0.00  0.00    +0.072 A 
ATOM     24  C   UNL     1       1.231   5.849  -0.147  0.00  0.00    +0.070 A 
ATOM     25  C   UNL     1      -0.047   5.298  -0.233  0.00  0.00    +0.064 A 
ATOM     26  C   UNL     1      -0.208   3.953  -0.406  0.00  0.00    +0.040 A 
ATOM     27  C   UNL     1       0.912   3.119  -0.499  0.00  0.00    +0.106 A 
ATOM     28 CL   UNL     1      -1.441   6.326  -0.119  0.00  0.00    -0.082 Cl
BRANCH  27  29
ATOM     29  C   UNL     1       0.740   1.670  -0.685  0.00  0.00    +0.390 C 
ATOM     30  O   UNL     1       1.714   0.948  -0.766  0.00  0.00    -0.240 OA
ATOM     31  O   UNL     1      -0.498   1.144  -0.767  0.00  0.00    -0.240 OA
ENDBRANCH  27  29
BRANCH  22  33
ATOM     32  C   UNL     1       4.570   3.499  -0.392  0.00  0.00    +0.277 C 
ATOM     33  O   UNL     1       3.292   2.867  -0.493  0.00  0.00    -0.494 OA
ENDBRANCH  22  33
ENDBRANCH  20  24
ENDBRANCH   1  20
TORSDOF 6
