REMARK  Name = ZINC28451119
REMARK  7 active torsions:
REMARK  status: ('A' for Active; 'I' for Inactive)
REMARK    1  A    between atoms: C_1  and  C_2
REMARK    2  A    between atoms: C_5  and  C_8
REMARK    3  A    between atoms: C_14  and  C_16
REMARK    4  A    between atoms: C_16  and  N_17
REMARK    5  A    between atoms: C_22  and  C_29
REMARK    6  A    between atoms: C_25  and  C_27
REMARK    7  A    between atoms: C_25  and  C_28
REMARK                            x       y       z     vdW  Elec       q    Type
REMARK                         _______ _______ _______ _____ _____    ______ ____
ROOT
ATOM      1  C   UNL     1      -1.213   3.550   0.027  0.00  0.00    +0.214 C 
ENDROOT
BRANCH   1   2
ATOM      2  N   UNL     1      -2.600   4.019   0.036  0.00  0.00    -0.215 N 
ATOM      3  C   UNL     1      -3.335   4.243  -1.075  0.00  0.00    +0.247 C 
ATOM      4  O   UNL     1      -3.011   3.973  -2.212  0.00  0.00    -0.273 OA
ATOM      5  C   UNL     1      -4.625   4.862  -0.595  0.00  0.00    +0.113 C 
ATOM      6  C   UNL     1      -5.824   4.083  -1.115  0.00  0.00    +0.038 C 
ATOM      7  C   UNL     1      -6.024   4.363  -2.605  0.00  0.00    -0.011 C 
ATOM      8  C   UNL     1      -6.316   5.851  -2.788  0.00  0.00    +0.009 C 
ATOM      9  C   UNL     1      -5.140   6.698  -2.314  0.00  0.00    -0.032 C 
ATOM     10  C   UNL     1      -4.697   6.343  -0.906  0.00  0.00    +0.041 C 
ATOM     11  C   UNL     1      -5.593   8.174  -2.316  0.00  0.00    +0.011 C 
ATOM     12  C   UNL     1      -3.973   6.574  -3.298  0.00  0.00    +0.011 C 
ATOM     13  C   UNL     1      -7.215   3.546  -3.118  0.00  0.00    +0.007 C 
ATOM     14  N   UNL     1      -4.551   4.694   0.874  0.00  0.00    -0.285 N 
ATOM     15  C   UNL     1      -3.310   4.256   1.146  0.00  0.00    +0.310 C 
ATOM     16  O   UNL     1      -2.879   4.094   2.271  0.00  0.00    -0.252 OA
ATOM     17  H   UNL     1      -5.427   4.923   1.499  0.00  0.00    +0.151 HD
ENDBRANCH   1   2
BRANCH   1  24
ATOM     18  C   UNL     1       0.870  -2.139  -0.017  0.00  0.00    +0.080 A 
ATOM     19  C   UNL     1      -0.396  -2.656  -0.009  0.00  0.00    +0.076 A 
ATOM     20  S   UNL     1      -1.367  -1.154   0.008  0.00  0.00    -0.060 S 
ATOM     21  C   UNL     1       0.002  -0.004   0.002  0.00  0.00    +0.165 A 
ATOM     22  N   UNL     1       1.035  -0.825  -0.018  0.00  0.00    -0.225 NA
ATOM     23  N   UNL     1      -0.017   1.385   0.010  0.00  0.00    -0.263 N 
ATOM     24  C   UNL     1      -1.193   2.043   0.019  0.00  0.00    +0.237 C 
ATOM     25  O   UNL     1      -2.235   1.423   0.020  0.00  0.00    -0.274 OA
ATOM     26  H   UNL     1       0.928   1.948   0.008  0.00  0.00    +0.157 HD
BRANCH  18  31
ATOM     27  C   UNL     1       5.438  -5.645  -0.076  0.00  0.00    +0.044 C 
ATOM     28  C   UNL     1       4.242  -4.728  -0.061  0.00  0.00    -0.050 A 
ATOM     29  C   UNL     1       4.426  -3.357  -0.056  0.00  0.00    +0.004 A 
ATOM     30  C   UNL     1       3.335  -2.512  -0.042  0.00  0.00    +0.010 A 
ATOM     31  C   UNL     1       2.046  -3.042  -0.033  0.00  0.00    +0.001 A 
ATOM     32  C   UNL     1       1.867  -4.425  -0.033  0.00  0.00    +0.010 A 
ATOM     33  C   UNL     1       2.966  -5.260  -0.052  0.00  0.00    +0.004 A 
ENDBRANCH  18  31
ENDBRANCH   1  24
TORSDOF 3
