REMARK  Name = ZINC22003036
REMARK  10 active torsions:
REMARK  status: ('A' for Active; 'I' for Inactive)
REMARK    1  A    between atoms: C_1  and  C_2
REMARK    2  A    between atoms: C_2  and  C_3
REMARK    3  A    between atoms: C_2  and  C_4
REMARK    4  A    between atoms: C_2  and  C_5
REMARK    5  A    between atoms: C_10  and  N_11
REMARK    6  A    between atoms: C_12  and  C_14
REMARK    7  A    between atoms: C_14  and  S_15
REMARK    8  A    between atoms: S_15  and  C_16
REMARK    9  A    between atoms: C_19  and  C_22
REMARK   10  A    between atoms: N_20  and  N_21
REMARK                            x       y       z     vdW  Elec       q    Type
REMARK                         _______ _______ _______ _____ _____    ______ ____
ROOT
ATOM      1  S   UNL     1       2.744  -5.791   1.430  0.00  0.00    -0.075 S 
ENDROOT
BRANCH   1   2
ATOM      2  C   UNL     1       1.742  -4.343   1.509  0.00  0.00    +0.209 A 
ATOM      3  N   UNL     1       0.469  -4.258   1.192  0.00  0.00    -0.121 NA
ATOM      4  N   UNL     1       0.049  -3.057   1.373  0.00  0.00    -0.127 NA
ATOM      5  C   UNL     1       1.030  -2.300   1.807  0.00  0.00    +0.183 A 
ATOM      6  N   UNL     1       2.143  -3.101   1.911  0.00  0.00    -0.224 N 
BRANCH   5   7
ATOM      7  C   UNL     1       0.951  -0.859   2.129  0.00  0.00    +0.035 A 
ATOM      8  C   UNL     1       1.898   0.027   1.615  0.00  0.00    +0.013 A 
ATOM      9  C   UNL     1       1.819   1.370   1.919  0.00  0.00    +0.001 A 
ATOM     10  C   UNL     1       0.804   1.840   2.734  0.00  0.00    +0.001 A 
ATOM     11  C   UNL     1      -0.139   0.968   3.248  0.00  0.00    +0.016 A 
ATOM     12  C   UNL     1      -0.071  -0.379   2.950  0.00  0.00    +0.029 A 
ATOM     13 BR   UNL     1      -1.361  -1.570   3.653  0.00  0.00    -0.050 Br
ENDBRANCH   5   7
BRANCH   6  14
ATOM     14  N   UNL     1       3.390  -2.732   2.330  0.00  0.00    -0.295 N 
ATOM     15  H   UNL     1       3.583  -1.692   2.630  0.00  0.00    +0.163 HD
ATOM     16  H   UNL     1       4.200  -3.475   2.369  0.00  0.00    +0.163 HD
ENDBRANCH   6  14
ENDBRANCH   1   2
BRANCH   1  17
ATOM     17  C   UNL     1       1.526  -6.984   0.823  0.00  0.00    +0.173 C 
BRANCH  17  19
ATOM     18  N   UNL     1       1.456  -9.385   0.232  0.00  0.00    -0.285 N 
ATOM     19  C   UNL     1       2.176  -8.335   0.674  0.00  0.00    +0.227 C 
ATOM     20  O   UNL     1       3.348  -8.477   0.951  0.00  0.00    -0.275 OA
ATOM     21  H   UNL     1       0.404  -9.246  -0.060  0.00  0.00    +0.155 HD
BRANCH  18  27
ATOM     22  C   UNL     1       1.254 -11.791   0.189  0.00  0.00    -0.021 A 
ATOM     23  C   UNL     1       1.839 -13.039   0.103  0.00  0.00    +0.006 A 
ATOM     24  C   UNL     1       3.211 -13.154  -0.027  0.00  0.00    +0.000 A 
ATOM     25  C   UNL     1       4.002 -12.020  -0.072  0.00  0.00    +0.002 A 
ATOM     26  C   UNL     1       3.422 -10.769   0.009  0.00  0.00    +0.023 A 
ATOM     27  C   UNL     1       2.045 -10.651   0.145  0.00  0.00    +0.037 A 
BRANCH  22  29
ATOM     28  C   UNL     1      -0.852 -13.056   0.527  0.00  0.00    +0.015 C 
ATOM     29  C   UNL     1      -0.241 -11.667   0.330  0.00  0.00    -0.011 C 
ATOM     30  C   UNL     1      -0.568 -10.789   1.540  0.00  0.00    +0.015 C 
ATOM     31  C   UNL     1      -0.821 -11.029  -0.934  0.00  0.00    +0.015 C 
ENDBRANCH  22  29
ENDBRANCH  18  27
ENDBRANCH  17  19
ENDBRANCH   1  17
TORSDOF 7
