REMARK  Name = ZINC19594869
REMARK  2 active torsions:
REMARK  status: ('A' for Active; 'I' for Inactive)
REMARK    1  A    between atoms: C_3  and  C_6
REMARK    2  A    between atoms: C_11  and  C_12
REMARK                            x       y       z     vdW  Elec       q    Type
REMARK                         _______ _______ _______ _____ _____    ______ ____
ROOT
ATOM      1  C   UNL     1       3.569   0.619  -0.029  0.00  0.00    +0.043 A 
ATOM      2  C   UNL     1       4.264   0.101  -1.138  0.00  0.00    -0.014 A 
ATOM      3  C   UNL     1       5.632   0.077  -1.120  0.00  0.00    +0.047 A 
ATOM      4  N   UNL     1       6.306   0.562  -0.078  0.00  0.00    -0.236 NA
ATOM      5  C   UNL     1       5.714   1.063   0.989  0.00  0.00    +0.135 A 
ATOM      6  C   UNL     1       4.312   1.108   1.065  0.00  0.00    +0.102 A 
ATOM      7  N   UNL     1       6.478   1.551   2.036  0.00  0.00    -0.342 N 
ATOM      8  C   UNL     1       6.448  -0.514  -2.241  0.00  0.00    +0.056 C 
ATOM      9  C   UNL     1       6.011   0.053  -3.594  0.00  0.00    +0.006 C 
ATOM     10  C   UNL     1       4.967  -0.890  -4.184  0.00  0.00    +0.001 C 
ATOM     11  C   UNL     1       4.140  -1.512  -3.057  0.00  0.00    +0.005 C 
ATOM     12  C   UNL     1       3.434  -0.388  -2.299  0.00  0.00    +0.038 C 
ATOM     13  H   UNL     1       7.446   1.524   1.984  0.00  0.00    +0.144 HD
ATOM     14  H   UNL     1       6.045   1.919   2.821  0.00  0.00    +0.144 HD
ENDROOT
BRANCH   1  17
ATOM     15  C   UNL     1      -0.016   1.345   0.009  0.00  0.00    +0.042 A 
ATOM     16  C   UNL     1       1.323   1.776  -0.001  0.00  0.00    +0.050 A 
ATOM     17  C   UNL     1       2.096   0.654  -0.014  0.00  0.00    +0.136 A 
ATOM     18  O   UNL     1       1.279  -0.417  -0.012  0.00  0.00    -0.463 OA
ATOM     19  C   UNL     1       0.002  -0.004   0.002  0.00  0.00    +0.196 A 
ENDBRANCH   1  17
BRANCH   6  20
ATOM     20  C   UNL     1       3.655   1.632   2.225  0.00  0.00    +0.103 C 
ATOM     21  N   UNL     1       3.134   2.048   3.145  0.00  0.00    -0.191 NA
ENDBRANCH   6  20
TORSDOF 2
