REMARK  Name = ZINC35525653
REMARK  9 active torsions:
REMARK  status: ('A' for Active; 'I' for Inactive)
REMARK    1  A    between atoms: C_1  and  N_2
REMARK    2  A    between atoms: N_2  and  C_3
REMARK    3  A    between atoms: N_2  and  C_4
REMARK    4  A    between atoms: C_4  and  C_5
REMARK    5  A    between atoms: N_26  and  C_27
REMARK    6  A    between atoms: C_30  and  O_35
REMARK    7  A    between atoms: C_32  and  O_33
REMARK    8  A    between atoms: O_33  and  C_34
REMARK    9  A    between atoms: O_35  and  C_36
REMARK                            x       y       z     vdW  Elec       q    Type
REMARK                         _______ _______ _______ _____ _____    ______ ____
ROOT
ATOM      1  C   UNL     1       0.299  -0.896   3.835  0.00  0.00    +0.116 A 
ATOM      2  N   UNL     1       0.543   0.262   4.423  0.00  0.00    -0.219 NA
ATOM      3  C   UNL     1      -0.369   1.217   4.506  0.00  0.00    +0.133 A 
ATOM      4  C   UNL     1      -1.657   0.995   3.944  0.00  0.00    +0.051 A 
ATOM      5  C   UNL     1      -2.812   1.893   3.915  0.00  0.00    -0.025 A 
ATOM      6  C   UNL     1      -3.928   1.436   3.313  0.00  0.00    -0.004 A 
ATOM      7  S   UNL     1      -3.517  -0.195   2.754  0.00  0.00    -0.073 S 
ATOM      8  C   UNL     1      -1.842  -0.262   3.333  0.00  0.00    +0.114 A 
ATOM      9  N   UNL     1      -0.874  -1.157   3.291  0.00  0.00    -0.227 NA
ATOM     10  C   UNL     1      -5.233   2.155   3.153  0.00  0.00    +0.043 C 
ATOM     11  C   UNL     1      -5.243   3.359   4.106  0.00  0.00    +0.005 C 
ATOM     12  C   UNL     1      -3.921   4.117   3.951  0.00  0.00    +0.005 C 
ATOM     13  C   UNL     1      -2.776   3.288   4.534  0.00  0.00    +0.037 C 
ATOM     14  N   UNL     1      -0.074   2.415   5.130  0.00  0.00    -0.312 N 
ATOM     15  C   UNL     1      -0.446   2.638   6.534  0.00  0.00    +0.125 C 
ATOM     16  C   UNL     1       0.812   3.031   7.319  0.00  0.00    +0.128 C 
ATOM     17  N   UNL     1       1.504   4.103   6.591  0.00  0.00    -0.282 N 
ATOM     18  C   UNL     1       1.876   3.880   5.187  0.00  0.00    +0.128 C 
ATOM     19  C   UNL     1       0.623   3.486   4.404  0.00  0.00    +0.125 C 
ATOM     20  C   UNL     1       1.791   5.271   7.199  0.00  0.00    +0.307 C 
ATOM     21  O   UNL     1       1.563   5.411   8.385  0.00  0.00    -0.252 OA
ATOM     22  N   UNL     1       2.332   6.284   6.493  0.00  0.00    -0.266 N 
ATOM     23  H   UNL     1       2.466   6.191   5.537  0.00  0.00    +0.156 HD
ENDROOT
BRANCH  22  24
ATOM     24  C   UNL     1       2.700   7.473   7.141  0.00  0.00    +0.077 A 
ATOM     25  C   UNL     1       2.031   7.875   8.288  0.00  0.00    +0.030 A 
ATOM     26  C   UNL     1       2.393   9.046   8.926  0.00  0.00    +0.047 A 
ATOM     27  C   UNL     1       3.426   9.822   8.421  0.00  0.00    +0.124 A 
ATOM     28  C   UNL     1       4.098   9.425   7.275  0.00  0.00    +0.093 A 
ATOM     29  C   UNL     1       3.741   8.248   6.637  0.00  0.00    +0.145 A 
BRANCH  29  30
ATOM     30  O   UNL     1       4.402   7.854   5.516  0.00  0.00    -0.493 OA
ATOM     31  C   UNL     1       5.459   8.699   5.056  0.00  0.00    +0.277 C 
ENDBRANCH  29  30
BRANCH  27  32
ATOM     32  O   UNL     1       3.780  10.974   9.051  0.00  0.00    -0.495 OA
ATOM     33  C   UNL     1       3.046  11.323  10.227  0.00  0.00    +0.277 C 
ENDBRANCH  27  32
ENDBRANCH  22  24
BRANCH   1  34
ATOM     34  C   UNL     1       1.386  -1.938   3.779  0.00  0.00    -0.002 C 
BRANCH  34  36
ATOM     35  C   UNL     1       2.881  -0.463   2.621  0.00  0.00    -0.096 C 
ATOM     36  N   UNL     1       2.180  -1.752   2.558  0.00  0.00    +0.381 N 
ATOM     37  C   UNL     1       3.163  -2.838   2.442  0.00  0.00    -0.096 C 
ATOM     38  H   UNL     1       1.570  -1.764   1.754  0.00  0.00    -0.082 HD
ENDBRANCH  34  36
ENDBRANCH   1  34
TORSDOF 5
