REMARK  Name = ZINC63557147
REMARK  8 active torsions:
REMARK  status: ('A' for Active; 'I' for Inactive)
REMARK    1  A    between atoms: C_1  and  C_2
REMARK    2  A    between atoms: C_2  and  C_3
REMARK    3  A    between atoms: C_2  and  C_4
REMARK    4  A    between atoms: C_2  and  C_5
REMARK    5  A    between atoms: C_12  and  C_14
REMARK    6  A    between atoms: N_19  and  C_21
REMARK    7  A    between atoms: C_21  and  C_22
REMARK    8  A    between atoms: C_22  and  C_23
REMARK                            x       y       z     vdW  Elec       q    Type
REMARK                         _______ _______ _______ _____ _____    ______ ____
ROOT
ATOM      1  C   UNL     1       2.808   3.368  -6.013  0.00  0.00    +0.101 C 
ATOM      2  C   UNL     1       2.646   2.514  -7.292  0.00  0.00    +0.110 C 
ATOM      3  C   UNL     1       3.631   3.118  -8.268  0.00  0.00    +0.216 C 
ATOM      4  O   UNL     1       3.625   2.929  -9.466  0.00  0.00    -0.276 OA
ATOM      5  N   UNL     1       4.513   3.894  -7.615  0.00  0.00    -0.300 N 
ATOM      6  C   UNL     1       4.249   3.903  -6.171  0.00  0.00    +0.121 C 
ENDROOT
BRANCH   1  13
ATOM      7  C   UNL     1       0.718  -0.497  -1.257  0.00  0.00    +0.159 C 
ATOM      8  N   UNL     1       2.082   0.070  -1.359  0.00  0.00    -0.253 N 
ATOM      9  N   UNL     1       2.304   0.868  -2.459  0.00  0.00    -0.163 NA
ATOM     10  C   UNL     1       1.399   1.117  -3.353  0.00  0.00    +0.179 C 
ATOM     11  S   UNL     1      -0.033   0.215  -2.778  0.00  0.00    -0.064 S 
ATOM     12  N   UNL     1       1.515   1.904  -4.495  0.00  0.00    -0.263 N 
ATOM     13  C   UNL     1       2.683   2.516  -4.776  0.00  0.00    +0.224 C 
ATOM     14  O   UNL     1       3.632   2.381  -4.033  0.00  0.00    -0.275 OA
ATOM     15  H   UNL     1       2.769  -0.107  -0.698  0.00  0.00    +0.169 HD
ATOM     16  H   UNL     1       0.756   2.012  -5.089  0.00  0.00    +0.157 HD
BRANCH   7  18
ATOM     17  C   UNL     1      -0.019   1.526   0.010  0.00  0.00    +0.013 C 
ATOM     18  C   UNL     1       0.002  -0.004   0.002  0.00  0.00    -0.008 C 
ATOM     19  C   UNL     1       0.742  -0.511   1.242  0.00  0.00    +0.013 C 
ATOM     20  C   UNL     1      -1.433  -0.534   0.013  0.00  0.00    +0.013 C 
ENDBRANCH   7  18
ENDBRANCH   1  13
BRANCH   5  21
ATOM     21  C   UNL     1       5.598   4.636  -8.262  0.00  0.00    +0.112 C 
BRANCH  21  22
ATOM     22  C   UNL     1       5.100   6.030  -8.652  0.00  0.00    +0.052 C 
BRANCH  22  23
ATOM     23  C   UNL     1       6.216   6.793  -9.317  0.00  0.00    -0.040 C 
ATOM     24  C   UNL     1       6.447   6.904 -10.645  0.00  0.00    +0.000 A 
ATOM     25  C   UNL     1       5.755   6.367 -11.823  0.00  0.00    +0.030 A 
ATOM     26  C   UNL     1       6.234   6.657 -13.055  0.00  0.00    +0.042 A 
ATOM     27  C   UNL     1       7.373   7.456 -13.233  0.00  0.00    +0.022 A 
ATOM     28  C   UNL     1       8.062   7.985 -12.200  0.00  0.00    +0.027 A 
ATOM     29  C   UNL     1       7.646   7.745 -10.861  0.00  0.00    +0.043 A 
ATOM     30  N   UNL     1       8.137   8.139  -9.711  0.00  0.00    -0.380 N 
ATOM     31  C   UNL     1       7.301   7.597  -8.635  0.00  0.00    +0.144 C 
ATOM     32 CL   UNL     1       5.419   6.023 -14.450  0.00  0.00    -0.084 Cl
ATOM     33  H   UNL     1       8.921   8.698  -9.592  0.00  0.00    +0.160 HD
ENDBRANCH  22  23
ENDBRANCH  21  22
ENDBRANCH   5  21
TORSDOF 5
