REMARK  Name = ZINC39656999
REMARK  5 active torsions:
REMARK  status: ('A' for Active; 'I' for Inactive)
REMARK    1  A    between atoms: C_1  and  C_2
REMARK    2  A    between atoms: C_2  and  C_4
REMARK    3  A    between atoms: C_2  and  N_11
REMARK    4  A    between atoms: C_12  and  C_14
REMARK    5  A    between atoms: C_25  and  C_27
REMARK                            x       y       z     vdW  Elec       q    Type
REMARK                         _______ _______ _______ _____ _____    ______ ____
ROOT
ATOM      1  C   UNL     1       2.922  -1.659   2.573  0.00  0.00    +0.100 C 
ATOM      2  C   UNL     1       2.699  -0.506   3.577  0.00  0.00    +0.121 C 
ATOM      3  N   UNL     1       4.013  -0.322   4.234  0.00  0.00    -0.296 N 
ATOM      4  C   UNL     1       5.000  -0.495   3.141  0.00  0.00    +0.115 C 
ATOM      5  C   UNL     1       4.434  -1.648   2.289  0.00  0.00    -0.004 C 
ATOM      6  C   UNL     1       4.691  -1.385   0.809  0.00  0.00    -0.010 C 
ATOM      7  C   UNL     1       6.198  -1.436   0.540  0.00  0.00    -0.082 C 
ATOM      8  N   UNL     1       6.720  -2.754   0.922  0.00  0.00    +0.379 N 
ATOM      9  C   UNL     1       6.552  -2.960   2.365  0.00  0.00    -0.082 C 
ATOM     10  C   UNL     1       5.061  -2.973   2.711  0.00  0.00    -0.010 C 
ATOM     11  C   UNL     1       4.258  -0.057   5.533  0.00  0.00    +0.249 C 
ATOM     12  O   UNL     1       5.394   0.161   5.906  0.00  0.00    -0.270 OA
ATOM     13  H   UNL     1       6.218  -3.471   0.420  0.00  0.00    -0.086 HD
ATOM     14  H   UNL     1       7.700  -2.807   0.688  0.00  0.00    -0.086 HD
ENDROOT
BRANCH  11  15
ATOM     15  C   UNL     1       3.145  -0.031   6.504  0.00  0.00    +0.073 A 
ATOM     16  C   UNL     1       1.888   0.442   6.118  0.00  0.00    +0.016 A 
ATOM     17  C   UNL     1       0.853   0.463   7.028  0.00  0.00    +0.002 A 
ATOM     18  C   UNL     1       1.054   0.017   8.323  0.00  0.00    +0.023 A 
ATOM     19  C   UNL     1       2.294  -0.454   8.715  0.00  0.00    +0.077 A 
ATOM     20  C   UNL     1       3.342  -0.486   7.811  0.00  0.00    +0.154 A 
ATOM     21  F   UNL     1       4.552  -0.950   8.192  0.00  0.00    -0.203 F 
ATOM     22 CL   UNL     1       2.535  -1.011  10.341  0.00  0.00    -0.081 Cl
ENDBRANCH  11  15
BRANCH   1  24
ATOM     23  N   UNL     1       1.713  -2.447   0.565  0.00  0.00    -0.308 N 
ATOM     24  C   UNL     1       2.148  -1.409   1.305  0.00  0.00    +0.219 C 
ATOM     25  O   UNL     1       1.917  -0.272   0.950  0.00  0.00    -0.275 OA
ATOM     26  H   UNL     1       1.897  -3.356   0.849  0.00  0.00    +0.149 HD
BRANCH  23  28
ATOM     27  C   UNL     1      -0.520  -2.011  -0.333  0.00  0.00    +0.033 C 
ATOM     28  C   UNL     1       0.960  -2.204  -0.668  0.00  0.00    +0.100 C 
BRANCH  28  29
ATOM     29  C   UNL     1       1.117  -3.383  -1.594  0.00  0.00    -0.027 A 
ATOM     30  C   UNL     1       1.095  -4.668  -1.085  0.00  0.00    +0.006 A 
ATOM     31  C   UNL     1       1.238  -5.750  -1.933  0.00  0.00    +0.015 A 
ATOM     32  C   UNL     1       1.403  -5.546  -3.291  0.00  0.00    +0.018 A 
ATOM     33  C   UNL     1       1.424  -4.260  -3.800  0.00  0.00    +0.015 A 
ATOM     34  C   UNL     1       1.276  -3.179  -2.952  0.00  0.00    +0.006 A 
ATOM     35 BR   UNL     1       1.599  -7.026  -4.452  0.00  0.00    -0.050 Br
ENDBRANCH  28  29
ENDBRANCH  23  28
ENDBRANCH   1  24
TORSDOF 4
