REMARK  Name = ZINC39462732
REMARK  8 active torsions:
REMARK  status: ('A' for Active; 'I' for Inactive)
REMARK    1  A    between atoms: C_1  and  C_2
REMARK    2  A    between atoms: C_2  and  C_27
REMARK    3  A    between atoms: C_5  and  C_10
REMARK    4  A    between atoms: C_7  and  C_8
REMARK    5  A    between atoms: C_7  and  C_9
REMARK    6  A    between atoms: N_12  and  N_13
REMARK    7  A    between atoms: C_14  and  C_16
REMARK    8  A    between atoms: C_19  and  C_21
REMARK                            x       y       z     vdW  Elec       q    Type
REMARK                         _______ _______ _______ _____ _____    ______ ____
ROOT
ATOM      1  C   UNL     1      -0.106  -1.280   3.568  0.00  0.00    +0.233 C 
ATOM      2  O   UNL     1       0.833  -0.648   4.002  0.00  0.00    -0.274 OA
ATOM      3  N   UNL     1      -0.984  -1.851   4.416  0.00  0.00    -0.234 N 
ATOM      4  H   UNL     1      -1.736  -2.357   4.069  0.00  0.00    +0.173 HD
ENDROOT
BRANCH   1   9
ATOM      5  C   UNL     1       2.544  -2.476   0.222  0.00  0.00    +0.023 C 
ATOM      6  C   UNL     1       1.022  -2.328   0.191  0.00  0.00    +0.075 C 
ATOM      7  C   UNL     1       0.639  -0.858  -0.080  0.00  0.00    +0.019 C 
ATOM      8  C   UNL     1       0.398  -0.262   1.329  0.00  0.00    +0.014 C 
ATOM      9  C   UNL     1      -0.293  -1.427   2.079  0.00  0.00    +0.083 C 
ATOM     10  C   UNL     1       0.429  -2.689   1.564  0.00  0.00    -0.008 C 
ATOM     11  C   UNL     1       1.548  -3.084   2.530  0.00  0.00    +0.013 C 
ATOM     12  C   UNL     1      -0.568  -3.841   1.418  0.00  0.00    +0.013 C 
BRANCH   6  13
ATOM     13  C   UNL     1       0.438  -3.219  -0.874  0.00  0.00    +0.362 C 
ATOM     14  O   UNL     1       1.170  -3.926  -1.546  0.00  0.00    -0.246 OA
ATOM     15  O   UNL     1      -0.766  -3.234  -1.065  0.00  0.00    -0.246 OA
ENDBRANCH   6  13
ENDBRANCH   1   9
BRANCH   3  16
ATOM     16  N   UNL     1      -0.811  -1.714   5.800  0.00  0.00    -0.234 N 
ATOM     17  C   UNL     1      -1.688  -2.285   6.649  0.00  0.00    +0.233 C 
ATOM     18  O   UNL     1      -2.628  -2.918   6.215  0.00  0.00    -0.274 OA
ATOM     19  H   UNL     1      -0.059  -1.209   6.147  0.00  0.00    +0.173 HD
BRANCH  17  20
ATOM     20  C   UNL     1      -1.502  -2.138   8.137  0.00  0.00    +0.084 C 
ATOM     21  C   UNL     1      -1.119  -3.390   8.928  0.00  0.00    +0.022 C 
ATOM     22  C   UNL     1      -2.531  -2.812   9.047  0.00  0.00    +0.032 C 
BRANCH  22  23
ATOM     23  C   UNL     1      -3.653  -3.571   8.387  0.00  0.00    -0.044 A 
ATOM     24  C   UNL     1      -3.370  -4.645   7.564  0.00  0.00    +0.004 A 
ATOM     25  C   UNL     1      -4.399  -5.342   6.959  0.00  0.00    +0.000 A 
ATOM     26  C   UNL     1      -5.711  -4.965   7.177  0.00  0.00    +0.000 A 
ATOM     27  C   UNL     1      -5.994  -3.891   8.001  0.00  0.00    +0.000 A 
ATOM     28  C   UNL     1      -4.965  -3.197   8.610  0.00  0.00    +0.004 A 
ENDBRANCH  22  23
ENDBRANCH  17  20
ENDBRANCH   3  16
TORSDOF 5
