REMARK  Name = ZINC39707617
REMARK  9 active torsions:
REMARK  status: ('A' for Active; 'I' for Inactive)
REMARK    1  A    between atoms: C_1  and  O_2
REMARK    2  A    between atoms: O_2  and  C_3
REMARK    3  A    between atoms: C_5  and  C_13
REMARK    4  A    between atoms: C_7  and  O_11
REMARK    5  A    between atoms: C_8  and  O_9
REMARK    6  A    between atoms: O_9  and  C_10
REMARK    7  A    between atoms: O_11  and  C_12
REMARK    8  A    between atoms: N_15  and  C_16
REMARK    9  A    between atoms: C_18  and  C_29
REMARK                            x       y       z     vdW  Elec       q    Type
REMARK                         _______ _______ _______ _____ _____    ______ ____
ROOT
ATOM      1  C   UNL     1       3.621   0.381  -6.233  0.00  0.00    +0.191 C 
ATOM      2  C   UNL     1       3.528  -0.235  -7.616  0.00  0.00    -0.002 C 
ATOM      3  C   UNL     1       4.713  -0.323  -8.352  0.00  0.00    +0.003 A 
ATOM      4  C   UNL     1       4.716  -0.882  -9.648  0.00  0.00    +0.025 A 
ATOM      5  C   UNL     1       5.883  -0.955 -10.343  0.00  0.00    +0.019 A 
ATOM      6  C   UNL     1       7.080  -0.489  -9.802  0.00  0.00    +0.017 A 
ATOM      7  C   UNL     1       7.139   0.060  -8.557  0.00  0.00    +0.025 A 
ATOM      8  C   UNL     1       5.971   0.168  -7.781  0.00  0.00    +0.041 A 
ATOM      9  N   UNL     1       6.032   0.707  -6.558  0.00  0.00    -0.283 N 
ATOM     10  C   UNL     1       4.984   0.844  -5.771  0.00  0.00    +0.242 C 
ATOM     11  O   UNL     1       5.114   1.345  -4.669  0.00  0.00    -0.273 OA
ATOM     12 BR   UNL     1       5.882  -1.705 -12.079  0.00  0.00    -0.050 Br
ATOM     13  H   UNL     1       6.893   1.014  -6.234  0.00  0.00    +0.155 HD
ENDROOT
BRANCH   2  14
ATOM     14  C   UNL     1       2.295  -0.700  -8.138  0.00  0.00    -0.019 A 
ATOM     15  C   UNL     1       2.112  -2.066  -8.409  0.00  0.00    +0.008 A 
ATOM     16  C   UNL     1       0.910  -2.508  -8.915  0.00  0.00    +0.001 A 
ATOM     17  C   UNL     1      -0.117  -1.610  -9.158  0.00  0.00    +0.000 A 
ATOM     18  C   UNL     1       0.053  -0.261  -8.894  0.00  0.00    +0.001 A 
ATOM     19  C   UNL     1       1.245   0.201  -8.382  0.00  0.00    +0.008 A 
ENDBRANCH   2  14
BRANCH   1  22
ATOM     20  C   UNL     1       2.561  -0.197  -4.116  0.00  0.00    +0.245 C 
ATOM     21  O   UNL     1       2.454   0.990  -3.880  0.00  0.00    -0.270 OA
ATOM     22  N   UNL     1       3.131  -0.606  -5.267  0.00  0.00    -0.296 N 
ATOM     23  H   UNL     1       3.216  -1.554  -5.456  0.00  0.00    +0.150 HD
BRANCH  20  26
ATOM     24  C   UNL     1       1.013  -1.702  -1.042  0.00  0.00    +0.166 A 
ATOM     25  C   UNL     1       1.475  -0.769  -1.950  0.00  0.00    +0.062 A 
ATOM     26  C   UNL     1       2.067  -1.192  -3.144  0.00  0.00    +0.044 A 
ATOM     27  C   UNL     1       2.189  -2.557  -3.415  0.00  0.00    +0.062 A 
ATOM     28  C   UNL     1       1.725  -3.486  -2.503  0.00  0.00    +0.166 A 
ATOM     29  C   UNL     1       1.141  -3.062  -1.312  0.00  0.00    +0.204 A 
BRANCH  24  31
ATOM     30  C   UNL     1       0.339   0.118   0.333  0.00  0.00    +0.277 C 
ATOM     31  O   UNL     1       0.438  -1.292   0.120  0.00  0.00    -0.491 OA
ENDBRANCH  24  31
BRANCH  29  32
ATOM     32  O   UNL     1       0.690  -3.978  -0.414  0.00  0.00    -0.488 OA
ATOM     33  C   UNL     1      -0.665  -4.409  -0.552  0.00  0.00    +0.277 C 
ENDBRANCH  29  32
BRANCH  28  34
ATOM     34  O   UNL     1       1.843  -4.815  -2.766  0.00  0.00    -0.491 OA
ATOM     35  C   UNL     1       2.457  -5.178  -4.005  0.00  0.00    +0.277 C 
ENDBRANCH  28  34
ENDBRANCH  20  26
ENDBRANCH   1  22
TORSDOF 6
