REMARK  Name = ZINC16695580
REMARK  5 active torsions:
REMARK  status: ('A' for Active; 'I' for Inactive)
REMARK    1  A    between atoms: C_6  and  N_7
REMARK    2  A    between atoms: C_8  and  C_10
REMARK    3  A    between atoms: C_15  and  C_16
REMARK    4  A    between atoms: C_15  and  N_60
REMARK    5  A    between atoms: C_23  and  C_27
REMARK                            x       y       z     vdW  Elec       q    Type
REMARK                         _______ _______ _______ _____ _____    ______ ____
ROOT
ATOM      1  C   UNL     1       0.393   0.080   0.186  0.00  0.00    +0.072 C 
ATOM      2  C   UNL     1       0.442   1.610   0.185  0.00  0.00    -0.006 C 
ATOM      3  C   UNL     1       1.896   2.069   0.051  0.00  0.00    -0.078 C 
ATOM      4  C   UNL     1       2.470   0.074  -1.199  0.00  0.00    -0.078 C 
ATOM      5  C   UNL     1       1.034  -0.444  -1.102  0.00  0.00    -0.006 C 
ATOM      6  N   UNL     1       2.447   1.552  -1.220  0.00  0.00    +0.382 N 
ATOM      7  H   UNL     1       1.849   1.865  -1.994  0.00  0.00    -0.081 HD
ENDROOT
BRANCH   1   9
ATOM      8  N   UNL     1      -1.328  -1.695   0.271  0.00  0.00    -0.285 N 
ATOM      9  C   UNL     1      -1.041  -0.378   0.258  0.00  0.00    +0.220 C 
ATOM     10  O   UNL     1      -1.937   0.439   0.304  0.00  0.00    -0.275 OA
ATOM     11  H   UNL     1      -0.618  -2.347   0.166  0.00  0.00    +0.155 HD
BRANCH   8  17
ATOM     12  C   UNL     1      -3.692  -1.386  -0.117  0.00  0.00    +0.027 A 
ATOM     13  C   UNL     1      -4.999  -1.806   0.045  0.00  0.00    +0.051 A 
ATOM     14  C   UNL     1      -5.275  -2.960   0.759  0.00  0.00    +0.166 A 
ATOM     15  C   UNL     1      -4.233  -3.700   1.314  0.00  0.00    +0.168 A 
ATOM     16  C   UNL     1      -2.924  -3.283   1.147  0.00  0.00    +0.072 A 
ATOM     17  C   UNL     1      -2.652  -2.121   0.435  0.00  0.00    +0.037 A 
ATOM     18  O   UNL     1      -4.762  -4.781   1.960  0.00  0.00    -0.453 OA
ATOM     19  C   UNL     1      -6.101  -4.917   1.449  0.00  0.00    +0.466 C 
ATOM     20  O   UNL     1      -6.456  -3.578   1.058  0.00  0.00    -0.453 OA
ENDBRANCH   8  17
ENDBRANCH   1   9
BRANCH   6  21
ATOM     21  C   UNL     1       3.813   2.076  -1.428  0.00  0.00    -0.039 C 
BRANCH  21  22
ATOM     22  C   UNL     1       3.720   3.533  -1.801  0.00  0.00    -0.019 A 
ATOM     23  C   UNL     1       4.073   4.504  -0.884  0.00  0.00    +0.043 A 
ATOM     24  C   UNL     1       3.987   5.843  -1.226  0.00  0.00    +0.124 A 
ATOM     25  C   UNL     1       3.546   6.209  -2.486  0.00  0.00    +0.047 A 
ATOM     26  C   UNL     1       3.192   5.240  -3.405  0.00  0.00    +0.023 A 
ATOM     27  C   UNL     1       3.285   3.898  -3.067  0.00  0.00    +0.131 A 
ATOM     28  O   UNL     1       2.941   2.934  -3.963  0.00  0.00    -0.459 OA
ATOM     29  C   UNL     1       2.165   3.346  -5.092  0.00  0.00    +0.341 C 
ATOM     30  O   UNL     1       2.762   4.522  -5.652  0.00  0.00    -0.333 OA
ATOM     31  C   UNL     1       2.709   5.650  -4.774  0.00  0.00    +0.203 C 
ATOM     32  F   UNL     1       4.333   6.793  -0.330  0.00  0.00    -0.205 F 
BRANCH  29  33
ATOM     33  C   UNL     1       2.144   2.248  -6.124  0.00  0.00    +0.027 A 
ATOM     34  C   UNL     1       1.554   2.455  -7.356  0.00  0.00    +0.017 A 
ATOM     35  C   UNL     1       1.552   1.447  -8.262  0.00  0.00    +0.045 A 
ATOM     36  S   UNL     1       2.404   0.153  -7.375  0.00  0.00    -0.105 S 
ATOM     37  C   UNL     1       2.709   1.045  -5.860  0.00  0.00    +0.055 A 
ENDBRANCH  29  33
ENDBRANCH  21  22
ENDBRANCH   6  21
TORSDOF 5
