REMARK  Name = ZINC37053445
REMARK  5 active torsions:
REMARK  status: ('A' for Active; 'I' for Inactive)
REMARK    1  A    between atoms: C_1  and  C_2
REMARK    2  A    between atoms: C_5  and  C_22
REMARK    3  A    between atoms: N_8  and  S_10
REMARK    4  A    between atoms: S_10  and  C_13
REMARK    5  A    between atoms: C_14  and  N_21
REMARK                            x       y       z     vdW  Elec       q    Type
REMARK                         _______ _______ _______ _____ _____    ______ ____
ROOT
ATOM      1  S   UNL     1       2.444  -3.200   1.578  0.00  0.00    +0.064 S 
ATOM      2  O   UNL     1       3.500  -2.397   2.086  0.00  0.00    -0.153 OA
ATOM      3  O   UNL     1       2.158  -4.495   2.089  0.00  0.00    -0.153 OA
ENDROOT
BRANCH   1   9
ATOM      4  C   UNL     1       0.114   1.256   0.889  0.00  0.00    +0.009 C 
ATOM      5  C   UNL     1       0.174  -0.266   0.742  0.00  0.00    +0.002 C 
ATOM      6  C   UNL     1      -1.227  -0.853   0.924  0.00  0.00    +0.009 C 
ATOM      7  C   UNL     1      -1.173  -2.372   0.745  0.00  0.00    +0.002 C 
ATOM      8  C   UNL     1      -0.254  -2.975   1.811  0.00  0.00    +0.112 C 
ATOM      9  N   UNL     1       1.055  -2.312   1.737  0.00  0.00    -0.176 NA
ATOM     10  C   UNL     1       1.110  -0.845   1.808  0.00  0.00    +0.112 C 
ATOM     11  C   UNL     1      -2.580  -2.954   0.893  0.00  0.00    +0.009 C 
ENDBRANCH   1   9
BRANCH   1  12
ATOM     12  C   UNL     1       2.743  -3.394  -0.147  0.00  0.00    +0.144 A 
ATOM     13  C   UNL     1       2.160  -4.448  -0.840  0.00  0.00    +0.054 A 
ATOM     14  C   UNL     1       2.397  -4.598  -2.200  0.00  0.00    +0.044 A 
ATOM     15  C   UNL     1       3.213  -3.698  -2.861  0.00  0.00    +0.044 A 
ATOM     16  C   UNL     1       3.793  -2.650  -2.169  0.00  0.00    +0.042 A 
ATOM     17  C   UNL     1       3.553  -2.495  -0.814  0.00  0.00    +0.070 A 
ATOM     18 CL   UNL     1       4.277  -1.174   0.049  0.00  0.00    -0.081 Cl
ATOM     19 CL   UNL     1       3.511  -3.885  -4.561  0.00  0.00    -0.083 Cl
BRANCH  13  20
ATOM     20  N   UNL     1       1.336  -5.355  -0.170  0.00  0.00    -0.356 N 
ATOM     21  H   UNL     1       0.975  -5.130   0.702  0.00  0.00    +0.142 HD
ATOM     22  H   UNL     1       1.126  -6.211  -0.576  0.00  0.00    +0.142 HD
ENDBRANCH  13  20
ENDBRANCH   1  12
TORSDOF 3
