REMARK  Name = ZINC58961604
REMARK  13 active torsions:
REMARK  status: ('A' for Active; 'I' for Inactive)
REMARK    1  A    between atoms: C_1  and  C_2
REMARK    2  A    between atoms: C_2  and  O_3
REMARK    3  A    between atoms: O_3  and  C_4
REMARK    4  A    between atoms: C_7  and  C_34
REMARK    5  A    between atoms: C_9  and  S_21
REMARK    6  A    between atoms: C_11  and  C_13
REMARK    7  A    between atoms: C_18  and  O_19
REMARK    8  A    between atoms: O_19  and  C_20
REMARK    9  A    between atoms: S_21  and  C_22
REMARK   10  A    between atoms: C_22  and  C_23
REMARK   11  A    between atoms: N_25  and  C_26
REMARK   12  A    between atoms: C_29  and  C_33
REMARK   13  A    between atoms: C_30  and  C_32
REMARK                            x       y       z     vdW  Elec       q    Type
REMARK                         _______ _______ _______ _____ _____    ______ ____
ROOT
ATOM      1  C   UNL     1      -1.674  -1.498   0.625  0.00  0.00    +0.339 C 
ATOM      2  O   UNL     1      -0.526  -2.134   0.934  0.00  0.00    -0.245 OA
ATOM      3  C   UNL     1      -2.837  -2.204   0.517  0.00  0.00    +0.086 C 
ATOM      4  C   UNL     1      -2.859  -3.603   0.609  0.00  0.00    +0.053 C 
ATOM      5  N   UNL     1      -3.992  -4.257   0.502  0.00  0.00    -0.227 NA
ATOM      6  C   UNL     1      -5.183  -3.683   0.305  0.00  0.00    +0.185 C 
ATOM      7  N   UNL     1      -5.350  -2.390   0.195  0.00  0.00    -0.247 NA
ATOM      8  C   UNL     1      -4.171  -1.513   0.299  0.00  0.00    +0.180 C 
ATOM      9  C   UNL     1      -1.575  -4.360   0.831  0.00  0.00    +0.066 C 
ENDROOT
BRANCH   8  10
ATOM     10  C   UNL     1      -4.393  -0.553   1.439  0.00  0.00    +0.023 A 
ATOM     11  C   UNL     1      -4.260   0.807   1.234  0.00  0.00    +0.009 A 
ATOM     12  C   UNL     1      -4.464   1.688   2.280  0.00  0.00    +0.001 A 
ATOM     13  C   UNL     1      -4.801   1.211   3.533  0.00  0.00    +0.004 A 
ATOM     14  C   UNL     1      -4.936  -0.147   3.743  0.00  0.00    +0.046 A 
ATOM     15  C   UNL     1      -4.738  -1.033   2.694  0.00  0.00    +0.126 A 
BRANCH  15  16
ATOM     16  O   UNL     1      -4.875  -2.370   2.897  0.00  0.00    -0.495 OA
ATOM     17  C   UNL     1      -5.335  -2.787   4.184  0.00  0.00    +0.277 C 
ENDBRANCH  15  16
ENDBRANCH   8  10
BRANCH   1  18
ATOM     18  O   UNL     1      -1.673  -0.165   0.421  0.00  0.00    -0.462 OA
BRANCH  18  20
ATOM     19  C   UNL     1      -0.613   2.004   0.316  0.00  0.00    +0.048 C 
ATOM     20  C   UNL     1      -0.405   0.493   0.440  0.00  0.00    +0.229 C 
ENDBRANCH  18  20
ENDBRANCH   1  18
BRANCH   6  21
ATOM     21  S   UNL     1      -6.602  -4.722   0.186  0.00  0.00    -0.077 S 
BRANCH  21  22
ATOM     22  C   UNL     1      -7.973  -3.563  -0.075  0.00  0.00    +0.173 C 
BRANCH  22  23
ATOM     23  C   UNL     1      -9.264  -4.332  -0.195  0.00  0.00    +0.227 C 
ATOM     24  O   UNL     1      -9.259  -5.542  -0.113  0.00  0.00    -0.275 OA
ATOM     25  N   UNL     1     -10.424  -3.675  -0.394  0.00  0.00    -0.285 N 
ATOM     26  H   UNL     1     -10.419  -2.715  -0.535  0.00  0.00    +0.155 HD
BRANCH  25  27
ATOM     27  C   UNL     1     -11.634  -4.377  -0.396  0.00  0.00    +0.034 A 
ATOM     28  C   UNL     1     -12.665  -3.982  -1.239  0.00  0.00    +0.023 A 
ATOM     29  C   UNL     1     -13.859  -4.677  -1.239  0.00  0.00    +0.005 A 
ATOM     30  C   UNL     1     -14.028  -5.764  -0.401  0.00  0.00    -0.047 A 
ATOM     31  C   UNL     1     -13.003  -6.159   0.439  0.00  0.00    -0.046 A 
ATOM     32  C   UNL     1     -11.805  -5.472   0.439  0.00  0.00    +0.027 A 
ATOM     33  C   UNL     1     -13.192  -7.344   1.351  0.00  0.00    +0.044 C 
ATOM     34  C   UNL     1     -15.332  -6.520  -0.404  0.00  0.00    +0.044 C 
ENDBRANCH  25  27
ENDBRANCH  22  23
ENDBRANCH  21  22
ENDBRANCH   6  21
TORSDOF 8
