REMARK  Name = ZINC39970960
REMARK  8 active torsions:
REMARK  status: ('A' for Active; 'I' for Inactive)
REMARK    1  A    between atoms: C_3  and  O_26
REMARK    2  A    between atoms: C_6  and  N_7
REMARK    3  A    between atoms: N_7  and  C_8
REMARK    4  A    between atoms: C_8  and  N_10
REMARK    5  A    between atoms: N_10  and  C_11
REMARK    6  A    between atoms: C_14  and  S_17
REMARK    7  A    between atoms: S_17  and  N_20
REMARK    8  A    between atoms: O_26  and  C_27
REMARK                            x       y       z     vdW  Elec       q    Type
REMARK                         _______ _______ _______ _____ _____    ______ ____
ROOT
ATOM      1  C   UNL     1      -3.488  -2.142  -0.257  0.00  0.00    +0.139 C 
ATOM      2  S   UNL     1      -4.241  -3.014  -1.522  0.00  0.00    -0.018 S 
ENDROOT
BRANCH   1   3
ATOM      3  N   UNL     1      -3.524  -0.794  -0.253  0.00  0.00    -0.297 N 
ATOM      4  H   UNL     1      -3.048  -0.299   0.432  0.00  0.00    +0.154 HD
BRANCH   3  10
ATOM      5  C   UNL     1      -5.058   0.961  -0.884  0.00  0.00    +0.027 A 
ATOM      6  C   UNL     1      -5.772   1.635  -1.855  0.00  0.00    +0.048 A 
ATOM      7  C   UNL     1      -5.680   1.243  -3.182  0.00  0.00    +0.129 A 
ATOM      8  C   UNL     1      -4.872   0.172  -3.535  0.00  0.00    +0.048 A 
ATOM      9  C   UNL     1      -4.158  -0.503  -2.565  0.00  0.00    +0.027 A 
ATOM     10  C   UNL     1      -4.248  -0.110  -1.237  0.00  0.00    +0.033 A 
BRANCH   7  11
ATOM     11  O   UNL     1      -6.383   1.907  -4.138  0.00  0.00    -0.456 OA
BRANCH  11  12
ATOM     12  C   UNL     1      -7.226   2.896  -3.738  0.00  0.00    +0.129 A 
ATOM     13  C   UNL     1      -6.721   4.141  -3.392  0.00  0.00    +0.048 A 
ATOM     14  C   UNL     1      -7.579   5.144  -2.986  0.00  0.00    +0.023 A 
ATOM     15  C   UNL     1      -8.941   4.909  -2.925  0.00  0.00    +0.041 A 
ATOM     16  C   UNL     1      -9.447   3.667  -3.270  0.00  0.00    +0.023 A 
ATOM     17  C   UNL     1      -8.593   2.663  -3.681  0.00  0.00    +0.048 A 
ATOM     18 CL   UNL     1     -10.018   6.171  -2.415  0.00  0.00    -0.084 Cl
ENDBRANCH  11  12
ENDBRANCH   7  11
ENDBRANCH   3  10
ENDBRANCH   1   3
BRANCH   1  19
ATOM     19  N   UNL     1      -2.859  -2.802   0.736  0.00  0.00    -0.297 N 
ATOM     20  H   UNL     1      -2.362  -2.309   1.408  0.00  0.00    +0.154 HD
BRANCH  19  21
ATOM     21  C   UNL     1      -2.922  -4.198   0.797  0.00  0.00    +0.033 A 
ATOM     22  C   UNL     1      -1.789  -4.932   1.123  0.00  0.00    +0.025 A 
ATOM     23  C   UNL     1      -1.855  -6.311   1.183  0.00  0.00    +0.030 A 
ATOM     24  C   UNL     1      -3.047  -6.959   0.919  0.00  0.00    +0.106 A 
ATOM     25  C   UNL     1      -4.177  -6.231   0.594  0.00  0.00    +0.030 A 
ATOM     26  C   UNL     1      -4.119  -4.852   0.538  0.00  0.00    +0.025 A 
BRANCH  24  27
ATOM     27  S   UNL     1      -3.127  -8.718   0.997  0.00  0.00    +0.061 S 
ATOM     28  O   UNL     1      -4.218  -9.111   0.176  0.00  0.00    -0.153 OA
ATOM     29  O   UNL     1      -1.805  -9.194   0.786  0.00  0.00    -0.153 OA
BRANCH  27  30
ATOM     30  N   UNL     1      -3.534  -9.121   2.550  0.00  0.00    -0.177 NA
ATOM     31  C   UNL     1      -2.494  -9.340   3.564  0.00  0.00    +0.109 C 
ATOM     32  C   UNL     1      -2.790  -8.449   4.775  0.00  0.00    +0.017 C 
ATOM     33  C   UNL     1      -4.213  -8.721   5.267  0.00  0.00    +0.003 C 
ATOM     34  C   UNL     1      -5.212  -8.378   4.159  0.00  0.00    +0.017 C 
ATOM     35  C   UNL     1      -4.943  -9.262   2.943  0.00  0.00    +0.109 C 
ENDBRANCH  27  30
ENDBRANCH  24  27
ENDBRANCH  19  21
ENDBRANCH   1  19
TORSDOF 8
