REMARK  Name = ZINC09250233
REMARK  7 active torsions:
REMARK  status: ('A' for Active; 'I' for Inactive)
REMARK    1  A    between atoms: C_1  and  C_2
REMARK    2  A    between atoms: C_4  and  C_32
REMARK    3  A    between atoms: C_6  and  S_18
REMARK    4  A    between atoms: C_7  and  C_8
REMARK    5  A    between atoms: N_10  and  C_11
REMARK    6  A    between atoms: S_18  and  C_19
REMARK    7  A    between atoms: C_19  and  C_20
REMARK                            x       y       z     vdW  Elec       q    Type
REMARK                         _______ _______ _______ _____ _____    ______ ____
ROOT
ATOM      1  C   UNL     1      -7.994  13.787  -0.202  0.00  0.00    +0.044 C 
ATOM      2  C   UNL     1      -6.673  13.084  -0.019  0.00  0.00    -0.034 A 
ATOM      3  C   UNL     1      -5.487  13.796  -0.002  0.00  0.00    +0.027 A 
ATOM      4  C   UNL     1      -4.290  13.124   0.168  0.00  0.00    +0.040 A 
ATOM      5  N   UNL     1      -4.257  11.814   0.320  0.00  0.00    -0.245 NA
ATOM      6  C   UNL     1      -5.362  11.083   0.307  0.00  0.00    +0.110 A 
ATOM      7  C   UNL     1      -6.617  11.694   0.139  0.00  0.00    +0.072 A 
ATOM      8  C   UNL     1      -3.001  13.903   0.185  0.00  0.00    +0.065 C 
ENDROOT
BRANCH   7   9
ATOM      9  C   UNL     1      -7.850  10.887   0.129  0.00  0.00    +0.251 C 
ATOM     10  O   UNL     1      -8.442  10.669   1.169  0.00  0.00    -0.270 OA
ATOM     11  N   UNL     1      -8.321  10.390  -1.032  0.00  0.00    -0.281 N 
ATOM     12  H   UNL     1      -7.893  10.626  -1.870  0.00  0.00    +0.155 HD
BRANCH  11  13
ATOM     13  C   UNL     1      -9.427   9.534  -1.028  0.00  0.00    +0.035 A 
ATOM     14  C   UNL     1     -10.325   9.554  -2.087  0.00  0.00    +0.023 A 
ATOM     15  C   UNL     1     -11.416   8.707  -2.082  0.00  0.00    +0.003 A 
ATOM     16  C   UNL     1     -11.614   7.839  -1.024  0.00  0.00    +0.020 A 
ATOM     17  C   UNL     1     -10.721   7.816   0.033  0.00  0.00    +0.043 A 
ATOM     18  C   UNL     1      -9.625   8.658   0.031  0.00  0.00    +0.043 A 
ATOM     19 CL   UNL     1     -10.974   6.724   1.359  0.00  0.00    -0.083 Cl
ENDBRANCH  11  13
ENDBRANCH   7   9
BRANCH   6  20
ATOM     20  S   UNL     1      -5.258   9.335   0.508  0.00  0.00    -0.096 S 
BRANCH  20  21
ATOM     21  C   UNL     1      -3.465   9.144   0.673  0.00  0.00    +0.172 C 
BRANCH  21  22
ATOM     22  C   UNL     1      -3.131   7.686   0.861  0.00  0.00    +0.229 C 
ATOM     23  O   UNL     1      -4.017   6.859   0.881  0.00  0.00    -0.275 OA
ATOM     24  N   UNL     1      -1.847   7.303   1.006  0.00  0.00    -0.264 N 
ATOM     25  C   UNL     1      -1.540   5.963   1.179  0.00  0.00    +0.165 A 
ATOM     26  N   UNL     1      -0.363   5.402   1.335  0.00  0.00    -0.225 NA
ATOM     27  C   UNL     1      -0.210   4.070   1.495  0.00  0.00    +0.080 A 
ATOM     28  C   UNL     1       0.990   3.344   1.672  0.00  0.00    +0.029 A 
ATOM     29  C   UNL     1       0.970   1.982   1.822  0.00  0.00    +0.002 A 
ATOM     30  C   UNL     1      -0.221   1.269   1.805  0.00  0.00    +0.001 A 
ATOM     31  C   UNL     1      -1.413   1.946   1.629  0.00  0.00    +0.017 A 
ATOM     32  C   UNL     1      -1.403   3.311   1.484  0.00  0.00    +0.041 A 
ATOM     33  S   UNL     1      -2.644   4.559   1.246  0.00  0.00    -0.052 S 
ATOM     34  H   UNL     1      -1.138   7.965   0.990  0.00  0.00    +0.157 HD
ENDBRANCH  21  22
ENDBRANCH  20  21
ENDBRANCH   6  20
TORSDOF 5
