REMARK  Name = ZINC37342581
REMARK  4 active torsions:
REMARK  status: ('A' for Active; 'I' for Inactive)
REMARK    1  A    between atoms: C_3  and  C_18
REMARK    2  A    between atoms: C_5  and  C_7
REMARK    3  A    between atoms: N_9  and  C_10
REMARK    4  A    between atoms: N_19  and  O_20
REMARK                            x       y       z     vdW  Elec       q    Type
REMARK                         _______ _______ _______ _____ _____    ______ ____
ROOT
ATOM      1  C   UNL     1      -0.015   1.376   0.041  0.00  0.00    +0.001 A 
ATOM      2  C   UNL     1       1.169   2.088   0.039  0.00  0.00    +0.011 A 
ATOM      3  C   UNL     1       2.392   1.416   0.020  0.00  0.00    +0.018 A 
ATOM      4  C   UNL     1       2.418   0.024   0.002  0.00  0.00    +0.024 A 
ATOM      5  C   UNL     1       1.221  -0.689   0.004  0.00  0.00    +0.038 A 
ATOM      6  C   UNL     1       0.003  -0.004   0.023  0.00  0.00    +0.013 A 
ENDROOT
BRANCH   3   7
ATOM      7  C   UNL     1       3.659   2.182   0.018  0.00  0.00    +0.162 C 
ATOM      8  N   UNL     1       4.798   1.554  -0.000  0.00  0.00    -0.072 NA
ATOM      9  N   UNL     1       3.631   3.566   0.035  0.00  0.00    -0.340 N 
ATOM     10  H   UNL     1       2.782   4.034   0.049  0.00  0.00    +0.144 HD
ATOM     11  H   UNL     1       4.462   4.068   0.034  0.00  0.00    +0.144 HD
BRANCH   8  12
ATOM     12  O   UNL     1       6.010   2.287  -0.002  0.00  0.00    -0.408 OA
ATOM     13  H   UNL     1       6.803   1.734  -0.016  0.00  0.00    +0.328 HD
ENDBRANCH   8  12
ENDBRANCH   3   7
BRANCH   5  14
ATOM     14  C   UNL     1       1.239  -2.167  -0.016  0.00  0.00    +0.248 C 
ATOM     15  O   UNL     1       2.299  -2.762  -0.033  0.00  0.00    -0.270 OA
ATOM     16  N   UNL     1       0.080  -2.856  -0.014  0.00  0.00    -0.281 N 
ATOM     17  H   UNL     1      -0.764  -2.384   0.066  0.00  0.00    +0.155 HD
BRANCH  16  18
ATOM     18  C   UNL     1       0.095  -4.251  -0.128  0.00  0.00    +0.048 A 
ATOM     19  C   UNL     1       1.122  -4.985   0.449  0.00  0.00    +0.027 A 
ATOM     20  C   UNL     1       1.135  -6.361   0.336  0.00  0.00    +0.040 A 
ATOM     21  C   UNL     1       0.124  -7.010  -0.353  0.00  0.00    +0.125 A 
ATOM     22  C   UNL     1      -0.902  -6.281  -0.930  0.00  0.00    +0.055 A 
ATOM     23  C   UNL     1      -0.922  -4.904  -0.814  0.00  0.00    +0.042 A 
ATOM     24 BR   UNL     1      -2.328  -3.908  -1.595  0.00  0.00    -0.048 Br
ATOM     25  F   UNL     1       0.138  -8.356  -0.462  0.00  0.00    -0.205 F 
ENDBRANCH  16  18
ENDBRANCH   5  14
TORSDOF 4
