REMARK  Name = ZINC09404700
REMARK  7 active torsions:
REMARK  status: ('A' for Active; 'I' for Inactive)
REMARK    1  A    between atoms: C_1  and  C_2
REMARK    2  A    between atoms: N_5  and  S_11
REMARK    3  A    between atoms: C_7  and  C_10
REMARK    4  A    between atoms: S_11  and  C_14
REMARK    5  A    between atoms: C_17  and  C_20
REMARK    6  A    between atoms: N_22  and  C_23
REMARK    7  A    between atoms: C_28  and  C_29
REMARK                            x       y       z     vdW  Elec       q    Type
REMARK                         _______ _______ _______ _____ _____    ______ ____
ROOT
ATOM      1  C   UNL     1       3.655   2.162  -0.025  0.00  0.00    +0.248 C 
ATOM      2  O   UNL     1       4.713   1.566  -0.060  0.00  0.00    -0.270 OA
ATOM      3  N   UNL     1       3.640   3.510  -0.010  0.00  0.00    -0.281 N 
ATOM      4  H   UNL     1       2.797   3.986  -0.065  0.00  0.00    +0.155 HD
ENDROOT
BRANCH   1   8
ATOM      5  C   UNL     1       0.000  -0.001   0.050  0.00  0.00    +0.106 A 
ATOM      6  C   UNL     1      -0.018   1.382   0.065  0.00  0.00    +0.029 A 
ATOM      7  C   UNL     1       1.165   2.091   0.041  0.00  0.00    +0.015 A 
ATOM      8  C   UNL     1       2.383   1.409   0.002  0.00  0.00    +0.037 A 
ATOM      9  C   UNL     1       2.394   0.013  -0.014  0.00  0.00    +0.015 A 
ATOM     10  C   UNL     1       1.204  -0.683   0.010  0.00  0.00    +0.029 A 
BRANCH   5  11
ATOM     11  S   UNL     1      -1.516  -0.899   0.081  0.00  0.00    +0.061 S 
ATOM     12  O   UNL     1      -1.217  -2.183   0.610  0.00  0.00    -0.153 OA
ATOM     13  O   UNL     1      -2.484  -0.040   0.667  0.00  0.00    -0.153 OA
BRANCH  11  17
ATOM     14  C   UNL     1      -0.682  -3.087  -4.458  0.00  0.00    +0.039 C 
ATOM     15  C   UNL     1      -0.960  -1.866  -3.579  0.00  0.00    +0.131 C 
ATOM     16  C   UNL     1      -1.550  -2.323  -2.240  0.00  0.00    +0.140 C 
ATOM     17  N   UNL     1      -1.980  -1.131  -1.492  0.00  0.00    -0.172 NA
ATOM     18  C   UNL     1      -2.839  -0.155  -2.180  0.00  0.00    +0.140 C 
ATOM     19  C   UNL     1      -2.181   0.199  -3.523  0.00  0.00    +0.131 C 
ATOM     20  O   UNL     1      -1.893  -1.006  -4.236  0.00  0.00    -0.371 OA
ATOM     21  C   UNL     1      -0.882   0.968  -3.274  0.00  0.00    +0.039 C 
ENDBRANCH  11  17
ENDBRANCH   5  11
ENDBRANCH   1   8
BRANCH   3  22
ATOM     22  C   UNL     1       4.838   4.219   0.085  0.00  0.00    +0.043 A 
ATOM     23  C   UNL     1       5.949   3.634   0.676  0.00  0.00    +0.024 A 
ATOM     24  C   UNL     1       7.134   4.338   0.768  0.00  0.00    +0.002 A 
ATOM     25  C   UNL     1       7.222   5.628   0.274  0.00  0.00    +0.001 A 
ATOM     26  C   UNL     1       6.128   6.224  -0.317  0.00  0.00    +0.012 A 
ATOM     27  C   UNL     1       4.926   5.523  -0.421  0.00  0.00    +0.028 A 
BRANCH  27  28
ATOM     28  C   UNL     1       3.751   6.153  -1.058  0.00  0.00    +0.111 A 
ATOM     29  N   UNL     1       3.666   7.319  -1.661  0.00  0.00    -0.239 NA
ATOM     30  C   UNL     1       2.518   7.773  -2.202  0.00  0.00    +0.079 A 
ATOM     31  C   UNL     1       2.292   8.998  -2.874  0.00  0.00    +0.029 A 
ATOM     32  C   UNL     1       1.063   9.307  -3.365  0.00  0.00    +0.002 A 
ATOM     33  C   UNL     1      -0.015   8.442  -3.230  0.00  0.00    +0.001 A 
ATOM     34  C   UNL     1       0.163   7.234  -2.581  0.00  0.00    +0.017 A 
ATOM     35  C   UNL     1       1.401   6.913  -2.081  0.00  0.00    +0.040 A 
ATOM     36  S   UNL     1       2.086   5.523  -1.210  0.00  0.00    -0.067 S 
ENDBRANCH  27  28
ENDBRANCH   3  22
TORSDOF 5
