REMARK  Name = ZINC24787470
REMARK  7 active torsions:
REMARK  status: ('A' for Active; 'I' for Inactive)
REMARK    1  A    between atoms: C_1  and  C_2
REMARK    2  A    between atoms: C_2  and  N_3
REMARK    3  A    between atoms: C_9  and  C_15
REMARK    4  A    between atoms: N_17  and  C_18
REMARK    5  A    between atoms: C_21  and  N_24
REMARK    6  A    between atoms: N_24  and  S_25
REMARK    7  A    between atoms: S_25  and  C_28
REMARK                            x       y       z     vdW  Elec       q    Type
REMARK                         _______ _______ _______ _____ _____    ______ ____
ROOT
ATOM      1  C   UNL     1       5.769  -0.667  -5.255  0.00  0.00    +0.248 C 
ATOM      2  O   UNL     1       5.487   0.167  -4.417  0.00  0.00    -0.270 OA
ATOM      3  N   UNL     1       5.166  -1.873  -5.235  0.00  0.00    -0.282 N 
ATOM      4  H   UNL     1       5.482  -2.657  -5.938  0.00  0.00    +0.155 HD
ENDROOT
BRANCH   1  11
ATOM      5  N   UNL     1      10.215   1.742  -9.246  0.00  0.00    -0.287 N 
ATOM      6  C   UNL     1       9.654   0.512  -9.290  0.00  0.00    +0.262 A 
ATOM      7  O   UNL     1       9.966  -0.294 -10.146  0.00  0.00    -0.267 OA
ATOM      8  C   UNL     1       8.652   0.183  -8.263  0.00  0.00    +0.065 A 
ATOM      9  C   UNL     1       8.020  -1.059  -8.228  0.00  0.00    +0.016 A 
ATOM     10  C   UNL     1       7.095  -1.324  -7.260  0.00  0.00    +0.014 A 
ATOM     11  C   UNL     1       6.774  -0.359  -6.297  0.00  0.00    +0.039 A 
ATOM     12  C   UNL     1       7.387   0.887  -6.316  0.00  0.00    +0.041 A 
ATOM     13  C   UNL     1       8.339   1.169  -7.300  0.00  0.00    +0.080 A 
ATOM     14  N   UNL     1       8.966   2.368  -7.354  0.00  0.00    -0.222 NA
ATOM     15  C   UNL     1       9.855   2.635  -8.279  0.00  0.00    +0.183 A 
ATOM     16  S   UNL     1      10.621   4.222  -8.273  0.00  0.00    -0.011 S 
BRANCH   5  18
ATOM     17  C   UNL     1      12.611   1.743  -9.737  0.00  0.00    +0.027 C 
ATOM     18  C   UNL     1      11.218   2.119 -10.246  0.00  0.00    +0.124 C 
ENDBRANCH   5  18
ENDBRANCH   1  11
BRANCH   3  19
ATOM     19  C   UNL     1       4.139  -2.127  -4.318  0.00  0.00    +0.034 A 
ATOM     20  C   UNL     1       3.981  -3.401  -3.788  0.00  0.00    +0.025 A 
ATOM     21  C   UNL     1       2.968  -3.651  -2.884  0.00  0.00    +0.026 A 
ATOM     22  C   UNL     1       2.107  -2.630  -2.504  0.00  0.00    +0.048 A 
ATOM     23  C   UNL     1       2.261  -1.357  -3.039  0.00  0.00    +0.026 A 
ATOM     24  C   UNL     1       3.278  -1.105  -3.939  0.00  0.00    +0.025 A 
BRANCH  22  25
ATOM     25  N   UNL     1       1.081  -2.883  -1.588  0.00  0.00    -0.216 N 
ATOM     26  H   UNL     1       0.039  -2.952  -1.934  0.00  0.00    +0.174 HD
BRANCH  25  27
ATOM     27  S   UNL     1       1.434  -3.080   0.018  0.00  0.00    +0.072 S 
ATOM     28  O   UNL     1       2.469  -4.051   0.090  0.00  0.00    -0.150 OA
ATOM     29  O   UNL     1       0.193  -3.238   0.691  0.00  0.00    -0.150 OA
BRANCH  27  30
ATOM     30  C   UNL     1       2.127  -1.563   0.588  0.00  0.00    +0.109 A 
ATOM     31  C   UNL     1       1.297  -0.536   0.996  0.00  0.00    +0.031 A 
ATOM     32  C   UNL     1       1.839   0.654   1.443  0.00  0.00    +0.040 A 
ATOM     33  C   UNL     1       3.213   0.817   1.483  0.00  0.00    +0.124 A 
ATOM     34  C   UNL     1       4.043  -0.213   1.075  0.00  0.00    +0.040 A 
ATOM     35  C   UNL     1       3.499  -1.402   0.628  0.00  0.00    +0.031 A 
ATOM     36  F   UNL     1       3.744   1.980   1.921  0.00  0.00    -0.205 F 
ENDBRANCH  27  30
ENDBRANCH  25  27
ENDBRANCH  22  25
ENDBRANCH   3  19
TORSDOF 6
