REMARK  Name = ZINC08909050
REMARK  10 active torsions:
REMARK  status: ('A' for Active; 'I' for Inactive)
REMARK    1  A    between atoms: C_1  and  C_2
REMARK    2  A    between atoms: C_5  and  N_9
REMARK    3  A    between atoms: C_7  and  C_8
REMARK    4  A    between atoms: C_11  and  C_16
REMARK    5  A    between atoms: C_22  and  S_24
REMARK    6  A    between atoms: S_24  and  C_25
REMARK    7  A    between atoms: C_25  and  C_26
REMARK    8  A    between atoms: N_28  and  C_29
REMARK    9  A    between atoms: C_31  and  C_36
REMARK   10  A    between atoms: C_33  and  C_35
REMARK                            x       y       z     vdW  Elec       q    Type
REMARK                         _______ _______ _______ _____ _____    ______ ____
ROOT
ATOM      1  C   UNL     1       0.298   1.205   0.134  0.00  0.00    +0.224 C 
ATOM      2  O   UNL     1       0.350   0.011  -0.074  0.00  0.00    -0.275 OA
ATOM      3  N   UNL     1       1.435   1.917   0.258  0.00  0.00    -0.263 N 
ATOM      4  C   UNL     1       2.670   1.282   0.145  0.00  0.00    +0.189 A 
ATOM      5  N   UNL     1       2.955   0.009  -0.071  0.00  0.00    -0.125 NA
ATOM      6  N   UNL     1       4.143  -0.406  -0.150  0.00  0.00    -0.133 NA
ATOM      7  C   UNL     1       5.180   0.406  -0.010  0.00  0.00    +0.160 A 
ATOM      8  S   UNL     1       4.325   1.956   0.262  0.00  0.00    -0.024 S 
ATOM      9  H   UNL     1       1.394   2.872   0.425  0.00  0.00    +0.157 HD
ENDROOT
BRANCH   1  12
ATOM     10  N   UNL     1      -2.502   0.489   1.529  0.00  0.00    -0.271 N 
ATOM     11  C   UNL     1      -2.195   0.874   0.146  0.00  0.00    +0.127 C 
ATOM     12  C   UNL     1      -1.038   1.892   0.250  0.00  0.00    +0.102 C 
ATOM     13  C   UNL     1      -1.246   2.463   1.672  0.00  0.00    +0.110 C 
ATOM     14  C   UNL     1      -1.986   1.367   2.407  0.00  0.00    +0.221 C 
ATOM     15  O   UNL     1      -2.098   1.292   3.612  0.00  0.00    -0.275 OA
BRANCH  10  20
ATOM     16  C   UNL     1      -5.483  -4.113   2.985  0.00  0.00    +0.044 C 
ATOM     17  C   UNL     1      -4.691  -2.891   2.598  0.00  0.00    -0.047 A 
ATOM     18  C   UNL     1      -4.303  -1.985   3.568  0.00  0.00    +0.005 A 
ATOM     19  C   UNL     1      -3.572  -0.867   3.218  0.00  0.00    +0.024 A 
ATOM     20  C   UNL     1      -3.237  -0.646   1.888  0.00  0.00    +0.037 A 
ATOM     21  C   UNL     1      -3.629  -1.557   0.917  0.00  0.00    +0.027 A 
ATOM     22  C   UNL     1      -4.355  -2.677   1.274  0.00  0.00    -0.046 A 
ATOM     23  C   UNL     1      -4.780  -3.667   0.220  0.00  0.00    +0.044 C 
ENDBRANCH  10  20
ENDBRANCH   1  12
BRANCH   7  24
ATOM     24  S   UNL     1       6.907   0.061  -0.072  0.00  0.00    -0.088 S 
BRANCH  24  25
ATOM     25  C   UNL     1       6.987  -1.724  -0.383  0.00  0.00    +0.172 C 
BRANCH  25  26
ATOM     26  C   UNL     1       8.428  -2.157  -0.461  0.00  0.00    +0.227 C 
ATOM     27  O   UNL     1       9.315  -1.341  -0.320  0.00  0.00    -0.275 OA
ATOM     28  N   UNL     1       8.732  -3.450  -0.687  0.00  0.00    -0.285 N 
ATOM     29  H   UNL     1       8.027  -4.115  -0.723  0.00  0.00    +0.155 HD
BRANCH  28  30
ATOM     30  C   UNL     1      10.066  -3.834  -0.869  0.00  0.00    +0.034 A 
ATOM     31  C   UNL     1      10.499  -5.076  -0.426  0.00  0.00    +0.026 A 
ATOM     32  C   UNL     1      11.814  -5.454  -0.612  0.00  0.00    -0.048 A 
ATOM     33  C   UNL     1      12.702  -4.592  -1.228  0.00  0.00    +0.006 A 
ATOM     34  C   UNL     1      12.275  -3.351  -1.666  0.00  0.00    -0.048 A 
ATOM     35  C   UNL     1      10.960  -2.970  -1.488  0.00  0.00    +0.026 A 
ATOM     36  C   UNL     1      13.246  -2.415  -2.337  0.00  0.00    +0.044 C 
ATOM     37  C   UNL     1      12.284  -6.805  -0.137  0.00  0.00    +0.044 C 
ENDBRANCH  28  30
ENDBRANCH  25  26
ENDBRANCH  24  25
ENDBRANCH   7  24
TORSDOF 6
