REMARK  Name = ZINC12561845
REMARK  10 active torsions:
REMARK  status: ('A' for Active; 'I' for Inactive)
REMARK    1  A    between atoms: C_1  and  O_2
REMARK    2  A    between atoms: O_2  and  C_3
REMARK    3  A    between atoms: C_8  and  N_9
REMARK    4  A    between atoms: N_9  and  S_10
REMARK    5  A    between atoms: S_10  and  C_13
REMARK    6  A    between atoms: C_15  and  N_34
REMARK    7  A    between atoms: C_18  and  N_19
REMARK    8  A    between atoms: N_19  and  N_20
REMARK    9  A    between atoms: C_21  and  C_22
REMARK   10  A    between atoms: C_25  and  N_28
REMARK                            x       y       z     vdW  Elec       q    Type
REMARK                         _______ _______ _______ _____ _____    ______ ____
ROOT
ATOM      1  C   UNL     1       1.507  -5.049  -0.053  0.00  0.00    +0.135 A 
ATOM      2  C   UNL     1       1.993  -5.780   1.013  0.00  0.00    +0.063 A 
ATOM      3  C   UNL     1       3.291  -6.256   0.992  0.00  0.00    +0.128 A 
ATOM      4  C   UNL     1       4.107  -6.003  -0.096  0.00  0.00    +0.035 A 
ATOM      5  C   UNL     1       3.628  -5.273  -1.165  0.00  0.00    +0.029 A 
ATOM      6  C   UNL     1       2.322  -4.797  -1.150  0.00  0.00    +0.075 A 
ENDROOT
BRANCH   1   7
ATOM      7  S   UNL     1      -0.148  -4.443  -0.025  0.00  0.00    +0.094 S 
ATOM      8  O   UNL     1      -0.703  -4.836   1.222  0.00  0.00    -0.148 OA
ATOM      9  O   UNL     1      -0.734  -4.804  -1.268  0.00  0.00    -0.148 OA
BRANCH   7  10
ATOM     10  N   UNL     1      -0.063  -2.789  -0.005  0.00  0.00    -0.094 NA
BRANCH  10  16
ATOM     11  C   UNL     1      -1.168  -0.637   0.035  0.00  0.00    +0.144 A 
ATOM     12  C   UNL     1      -2.333   0.111   0.053  0.00  0.00    +0.047 A 
ATOM     13  C   UNL     1      -3.562  -0.523   0.059  0.00  0.00    +0.004 A 
ATOM     14  C   UNL     1      -3.632  -1.904   0.049  0.00  0.00    +0.002 A 
ATOM     15  C   UNL     1      -2.473  -2.657   0.031  0.00  0.00    +0.030 A 
ATOM     16  C   UNL     1      -1.237  -2.028   0.019  0.00  0.00    +0.116 A 
BRANCH  11  18
ATOM     17  C   UNL     1       0.036   1.415   0.047  0.00  0.00    +0.277 C 
ATOM     18  O   UNL     1       0.042  -0.014   0.029  0.00  0.00    -0.493 OA
ENDBRANCH  11  18
ENDBRANCH  10  16
ENDBRANCH   7  10
ENDBRANCH   1   7
BRANCH   3  19
ATOM     19  N   UNL     1       3.810  -7.042   2.140  0.00  0.00    +0.056 N 
ATOM     20  O   UNL     1       3.098  -7.264   3.092  0.00  0.00    -0.126 OA
ATOM     21  O   UNL     1       4.944  -7.459   2.124  0.00  0.00    -0.126 OA
ENDBRANCH   3  19
BRANCH   6  22
ATOM     22  N   UNL     1       1.832  -4.064  -2.231  0.00  0.00    -0.236 N 
ATOM     23  H   UNL     1       0.922  -3.730  -2.218  0.00  0.00    +0.174 HD
BRANCH  22  24
ATOM     24  N   UNL     1       2.655  -3.812  -3.336  0.00  0.00    -0.190 NA
ATOM     25  C   UNL     1       2.199  -3.130  -4.343  0.00  0.00    +0.138 C 
BRANCH  25  26
ATOM     26  C   UNL     1       3.065  -2.864  -5.506  0.00  0.00    -0.005 A 
ATOM     27  C   UNL     1       4.376  -3.350  -5.529  0.00  0.00    +0.011 A 
ATOM     28  C   UNL     1       5.182  -3.099  -6.618  0.00  0.00    +0.024 A 
ATOM     29  C   UNL     1       4.694  -2.363  -7.692  0.00  0.00    +0.030 A 
ATOM     30  C   UNL     1       3.391  -1.878  -7.672  0.00  0.00    +0.024 A 
ATOM     31  C   UNL     1       2.577  -2.130  -6.590  0.00  0.00    +0.011 A 
BRANCH  29  32
ATOM     32  N   UNL     1       5.514  -2.111  -8.792  0.00  0.00    -0.326 N 
ATOM     33  C   UNL     1       4.988  -1.438  -9.991  0.00  0.00    +0.133 C 
ATOM     34  C   UNL     1       5.927  -0.279 -10.345  0.00  0.00    +0.178 C 
ATOM     35  O   UNL     1       7.268  -0.768 -10.429  0.00  0.00    -0.377 OA
ATOM     36  C   UNL     1       7.775  -1.298  -9.202  0.00  0.00    +0.178 C 
ATOM     37  C   UNL     1       6.932  -2.504  -8.786  0.00  0.00    +0.133 C 
ENDBRANCH  29  32
ENDBRANCH  25  26
ENDBRANCH  22  24
ENDBRANCH   6  22
TORSDOF 9
