REMARK  Name = ZINC36568104
REMARK  9 active torsions:
REMARK  status: ('A' for Active; 'I' for Inactive)
REMARK    1  A    between atoms: C_1  and  C_2
REMARK    2  A    between atoms: C_2  and  C_3
REMARK    3  A    between atoms: N_5  and  C_6
REMARK    4  A    between atoms: C_8  and  N_13
REMARK    5  A    between atoms: C_11  and  C_12
REMARK    6  A    between atoms: N_13  and  C_14
REMARK    7  A    between atoms: C_14  and  N_16
REMARK    8  A    between atoms: C_17  and  C_19
REMARK    9  A    between atoms: C_22  and  C_26
REMARK                            x       y       z     vdW  Elec       q    Type
REMARK                         _______ _______ _______ _____ _____    ______ ____
ROOT
ATOM      1  N   UNL     1      -6.362  -0.875   0.215  0.00  0.00    -0.297 N 
ATOM      2  H   UNL     1      -7.087  -0.960  -0.424  0.00  0.00    +0.154 HD
ENDROOT
BRANCH   1   5
ATOM      3  C   UNL     1      -2.961  -2.274   0.374  0.00  0.00    +0.038 A 
ATOM      4  C   UNL     1      -4.004  -1.358   0.385  0.00  0.00    +0.046 A 
ATOM      5  C   UNL     1      -5.309  -1.794   0.205  0.00  0.00    +0.034 A 
ATOM      6  C   UNL     1      -5.567  -3.146   0.015  0.00  0.00    +0.023 A 
ATOM      7  C   UNL     1      -4.527  -4.055   0.005  0.00  0.00    +0.007 A 
ATOM      8  C   UNL     1      -3.226  -3.623   0.178  0.00  0.00    -0.029 A 
ATOM      9  C   UNL     1      -2.094  -4.617   0.161  0.00  0.00    +0.045 C 
BRANCH   3  12
ATOM     10  C   UNL     1      -1.316  -0.557   0.290  0.00  0.00    +0.217 C 
ATOM     11  O   UNL     1      -2.135   0.189  -0.204  0.00  0.00    -0.275 OA
ATOM     12  N   UNL     1      -1.644  -1.837   0.554  0.00  0.00    -0.285 N 
ATOM     13  H   UNL     1      -0.967  -2.456   0.870  0.00  0.00    +0.155 HD
BRANCH  10  15
ATOM     14  C   UNL     1       0.177   1.421   0.214  0.00  0.00    +0.013 C 
ATOM     15  C   UNL     1       0.068  -0.053   0.609  0.00  0.00    +0.093 C 
ENDBRANCH  10  15
ENDBRANCH   3  12
ENDBRANCH   1   5
BRANCH   1  16
ATOM     16  C   UNL     1      -6.370   0.131   1.113  0.00  0.00    +0.141 C 
ATOM     17  S   UNL     1      -5.170   0.200   2.331  0.00  0.00    -0.018 S 
BRANCH  16  18
ATOM     18  N   UNL     1      -7.324   1.081   1.052  0.00  0.00    -0.264 N 
ATOM     19  C   UNL     1      -7.332   2.087   1.949  0.00  0.00    +0.250 C 
ATOM     20  O   UNL     1      -6.480   2.136   2.814  0.00  0.00    -0.270 OA
ATOM     21  H   UNL     1      -8.004   1.042   0.361  0.00  0.00    +0.157 HD
BRANCH  19  22
ATOM     22  C   UNL     1      -8.377   3.129   1.882  0.00  0.00    +0.038 A 
ATOM     23  C   UNL     1      -9.362   3.072   0.893  0.00  0.00    +0.013 A 
ATOM     24  C   UNL     1     -10.335   4.048   0.836  0.00  0.00    +0.005 A 
ATOM     25  C   UNL     1     -10.338   5.082   1.756  0.00  0.00    -0.037 A 
ATOM     26  C   UNL     1      -9.365   5.144   2.738  0.00  0.00    +0.017 A 
ATOM     27  C   UNL     1      -8.389   4.171   2.810  0.00  0.00    +0.027 A 
ATOM     28  I   UNL     1      -9.379   6.715   4.124  0.00  0.00    -0.044 I 
ATOM     29  C   UNL     1     -11.404   6.144   1.687  0.00  0.00    +0.045 C 
ENDBRANCH  19  22
ENDBRANCH  16  18
ENDBRANCH   1  16
TORSDOF 6
