REMARK  Name = ZINC44973616
REMARK  6 active torsions:
REMARK  status: ('A' for Active; 'I' for Inactive)
REMARK    1  A    between atoms: C_1  and  C_2
REMARK    2  A    between atoms: C_2  and  C_32
REMARK    3  A    between atoms: C_6  and  C_24
REMARK    4  A    between atoms: C_11  and  S_15
REMARK    5  A    between atoms: S_15  and  C_16
REMARK    6  A    between atoms: C_16  and  C_17
REMARK                            x       y       z     vdW  Elec       q    Type
REMARK                         _______ _______ _______ _____ _____    ______ ____
ROOT
ATOM      1  C   UNL     1      -0.019   1.526   0.010  0.00  0.00    +0.011 C 
ATOM      2  C   UNL     1       0.002  -0.004   0.002  0.00  0.00    -0.023 C 
ATOM      3  C   UNL     1       0.740  -0.502  -1.242  0.00  0.00    +0.058 C 
ATOM      4  C   UNL     1       2.168  -0.013  -1.215  0.00  0.00    +0.017 C 
ATOM      5  C   UNL     1       2.816   0.178  -0.046  0.00  0.00    +0.024 C 
ATOM      6  C   UNL     1       4.247   0.651  -0.009  0.00  0.00    +0.097 C 
ATOM      7  C   UNL     1       4.655   1.261  -1.316  0.00  0.00    +0.045 A 
ATOM      8  C   UNL     1       5.785   2.071  -1.400  0.00  0.00    +0.126 A 
ATOM      9  N   UNL     1       6.117   2.591  -2.579  0.00  0.00    -0.207 NA
ATOM     10  C   UNL     1       5.388   2.347  -3.659  0.00  0.00    +0.192 A 
ATOM     11  N   UNL     1       4.307   1.582  -3.614  0.00  0.00    -0.206 NA
ATOM     12  C   UNL     1       3.917   1.030  -2.468  0.00  0.00    +0.133 A 
ATOM     13  N   UNL     1       2.785   0.234  -2.411  0.00  0.00    -0.302 N 
ATOM     14  N   UNL     1       6.551   2.330  -0.275  0.00  0.00    -0.343 N 
ATOM     15  C   UNL     1       2.173  -0.058   1.182  0.00  0.00    +0.162 C 
ATOM     16  O   UNL     1       2.786   0.115   2.217  0.00  0.00    -0.292 OA
ATOM     17  C   UNL     1       0.742  -0.517   1.242  0.00  0.00    +0.086 C 
ATOM     18  C   UNL     1      -1.431  -0.539   0.000  0.00  0.00    +0.011 C 
ATOM     19  H   UNL     1       2.428  -0.153  -3.225  0.00  0.00    +0.153 HD
ATOM     20  H   UNL     1       6.301   1.947   0.581  0.00  0.00    +0.144 HD
ATOM     21  H   UNL     1       7.336   2.896  -0.342  0.00  0.00    +0.144 HD
ENDROOT
BRANCH   6  22
ATOM     22  C   UNL     1       5.146  -0.520   0.289  0.00  0.00    +0.002 A 
ATOM     23  C   UNL     1       5.993  -0.702   1.332  0.00  0.00    +0.012 A 
ATOM     24  C   UNL     1       6.728  -1.871   1.402  0.00  0.00    +0.008 A 
ATOM     25  C   UNL     1       6.580  -2.800   0.427  0.00  0.00    +0.045 A 
ATOM     26  S   UNL     1       5.367  -2.032  -0.634  0.00  0.00    -0.101 S 
ENDBRANCH   6  22
BRANCH  10  27
ATOM     27  S   UNL     1       5.870   3.059  -5.197  0.00  0.00    -0.081 S 
BRANCH  27  28
ATOM     28  C   UNL     1       7.366   4.003  -4.794  0.00  0.00    +0.112 C 
BRANCH  28  29
ATOM     29  C   UNL     1       7.888   4.672  -6.040  0.00  0.00    -0.037 A 
ATOM     30  C   UNL     1       8.795   4.014  -6.849  0.00  0.00    +0.004 A 
ATOM     31  C   UNL     1       9.275   4.627  -7.991  0.00  0.00    +0.000 A 
ATOM     32  C   UNL     1       8.847   5.899  -8.324  0.00  0.00    +0.000 A 
ATOM     33  C   UNL     1       7.939   6.557  -7.516  0.00  0.00    +0.000 A 
ATOM     34  C   UNL     1       7.456   5.942  -6.375  0.00  0.00    +0.004 A 
ENDBRANCH  28  29
ENDBRANCH  27  28
ENDBRANCH  10  27
TORSDOF 4
