REMARK  Name = ZINC00650837
REMARK  7 active torsions:
REMARK  status: ('A' for Active; 'I' for Inactive)
REMARK    1  A    between atoms: C_1  and  O_2
REMARK    2  A    between atoms: O_2  and  C_3
REMARK    3  A    between atoms: C_7  and  C_9
REMARK    4  A    between atoms: C_12  and  C_34
REMARK    5  A    between atoms: C_16  and  C_19
REMARK    6  A    between atoms: N_21  and  C_22
REMARK    7  A    between atoms: C_23  and  C_31
REMARK                            x       y       z     vdW  Elec       q    Type
REMARK                         _______ _______ _______ _____ _____    ______ ____
ROOT
ATOM      1  C   UNL     1       1.325  -4.106  -2.289  0.00  0.00    +0.104 C 
ATOM      2  C   UNL     1       0.238  -4.609  -3.244  0.00  0.00    +0.063 C 
ATOM      3  C   UNL     1       0.255  -6.142  -3.289  0.00  0.00    +0.215 C 
ATOM      4  N   UNL     1       1.632  -6.594  -3.515  0.00  0.00    -0.238 N 
ATOM      5  C   UNL     1       2.722  -5.823  -3.288  0.00  0.00    +0.130 A 
ATOM      6  C   UNL     1       3.838  -6.572  -3.612  0.00  0.00    +0.096 A 
ATOM      7  C   UNL     1       3.368  -7.838  -4.046  0.00  0.00    +0.149 A 
ATOM      8  N   UNL     1       2.064  -7.834  -3.983  0.00  0.00    -0.177 NA
ATOM      9  N   UNL     1       2.642  -4.527  -2.808  0.00  0.00    -0.322 N 
ATOM     10  H   UNL     1       3.405  -3.928  -2.815  0.00  0.00    +0.148 HD
ENDROOT
BRANCH   1  15
ATOM     11  C   UNL     1       0.606  -0.607  -1.056  0.00  0.00    +0.120 A 
ATOM     12  C   UNL     1       1.173   0.161  -2.063  0.00  0.00    +0.045 A 
ATOM     13  C   UNL     1       1.786  -0.455  -3.136  0.00  0.00    +0.004 A 
ATOM     14  C   UNL     1       1.836  -1.835  -3.208  0.00  0.00    +0.006 A 
ATOM     15  C   UNL     1       1.271  -2.602  -2.207  0.00  0.00    -0.024 A 
ATOM     16  C   UNL     1       0.661  -1.991  -1.128  0.00  0.00    +0.051 A 
BRANCH  11  18
ATOM     17  C   UNL     1      -0.017   1.425   0.010  0.00  0.00    +0.277 C 
ATOM     18  O   UNL     1       0.002  -0.004   0.002  0.00  0.00    -0.495 OA
ENDBRANCH  11  18
ENDBRANCH   1  15
BRANCH   6  19
ATOM     19  C   UNL     1       5.238  -6.140  -3.524  0.00  0.00    +0.253 C 
ATOM     20  O   UNL     1       5.505  -5.020  -3.132  0.00  0.00    -0.270 OA
ATOM     21  N   UNL     1       6.227  -6.985  -3.876  0.00  0.00    -0.275 N 
ATOM     22  H   UNL     1       6.013  -7.879  -4.188  0.00  0.00    +0.156 HD
BRANCH  21  23
ATOM     23  C   UNL     1       7.550  -6.577  -3.792  0.00  0.00    +0.090 A 
ATOM     24  C   UNL     1       8.686  -7.302  -4.114  0.00  0.00    +0.084 A 
ATOM     25  C   UNL     1       9.967  -6.641  -3.936  0.00  0.00    -0.018 A 
ATOM     26  C   UNL     1       9.877  -5.377  -3.468  0.00  0.00    -0.004 A 
ATOM     27  S   UNL     1       8.142  -5.090  -3.285  0.00  0.00    -0.077 S 
ATOM     28  C   UNL     1      11.010  -4.442  -3.180  0.00  0.00    +0.043 C 
ATOM     29  C   UNL     1      12.310  -5.259  -3.136  0.00  0.00    +0.005 C 
ATOM     30  C   UNL     1      12.364  -6.171  -4.365  0.00  0.00    +0.005 C 
ATOM     31  C   UNL     1      11.316  -7.278  -4.238  0.00  0.00    +0.037 C 
BRANCH  24  32
ATOM     32  C   UNL     1       8.601  -8.645  -4.602  0.00  0.00    +0.102 C 
ATOM     33  N   UNL     1       8.533  -9.711  -4.989  0.00  0.00    -0.191 NA
ENDBRANCH  24  32
ENDBRANCH  21  23
ENDBRANCH   6  19
BRANCH   3  34
ATOM     34  C   UNL     1      -0.642  -6.631  -4.428  0.00  0.00    +0.412 C 
ATOM     35  F   UNL     1      -0.170  -6.125  -5.644  0.00  0.00    -0.168 F 
ATOM     36  F   UNL     1      -0.625  -8.030  -4.466  0.00  0.00    -0.168 F 
ATOM     37  F   UNL     1      -1.951  -6.187  -4.214  0.00  0.00    -0.168 F 
ENDBRANCH   3  34
TORSDOF 6
