REMARK  Name = ZINC36072039
REMARK  9 active torsions:
REMARK  status: ('A' for Active; 'I' for Inactive)
REMARK    1  A    between atoms: C_1  and  C_2
REMARK    2  A    between atoms: C_3  and  C_29
REMARK    3  A    between atoms: C_4  and  C_22
REMARK    4  A    between atoms: C_7  and  C_12
REMARK    5  A    between atoms: C_13  and  N_15
REMARK    6  A    between atoms: N_15  and  C_16
REMARK    7  A    between atoms: C_16  and  C_17
REMARK    8  A    between atoms: N_31  and  C_32
REMARK    9  A    between atoms: N_31  and  C_33
REMARK                            x       y       z     vdW  Elec       q    Type
REMARK                         _______ _______ _______ _____ _____    ______ ____
ROOT
ATOM      1  C   UNL     1      -0.283   1.233   0.308  0.00  0.00    +0.066 C 
ATOM      2  C   UNL     1      -0.155  -0.266   0.217  0.00  0.00    +0.051 C 
ATOM      3  C   UNL     1      -1.290  -1.046   0.123  0.00  0.00    +0.060 C 
ATOM      4  C   UNL     1      -1.111  -2.545   0.034  0.00  0.00    +0.148 C 
ATOM      5  N   UNL     1       0.283  -3.062   0.055  0.00  0.00    -0.267 N 
ATOM      6  C   UNL     1       0.682  -4.382  -0.014  0.00  0.00    +0.048 C 
ATOM      7  C   UNL     1       2.008  -4.639   0.021  0.00  0.00    +0.072 C 
ATOM      8  S   UNL     1       2.698  -3.002   0.152  0.00  0.00    -0.060 S 
ATOM      9  C   UNL     1       1.270  -2.120   0.154  0.00  0.00    +0.166 C 
ATOM     10  N   UNL     1       1.045  -0.825   0.223  0.00  0.00    -0.230 NA
ENDROOT
BRANCH   4  11
ATOM     11  C   UNL     1      -1.854  -3.170   1.186  0.00  0.00    -0.022 A 
ATOM     12  C   UNL     1      -1.334  -3.097   2.465  0.00  0.00    +0.007 A 
ATOM     13  C   UNL     1      -2.016  -3.671   3.522  0.00  0.00    +0.020 A 
ATOM     14  C   UNL     1      -3.218  -4.317   3.300  0.00  0.00    +0.041 A 
ATOM     15  C   UNL     1      -3.738  -4.390   2.020  0.00  0.00    +0.020 A 
ATOM     16  C   UNL     1      -3.059  -3.811   0.965  0.00  0.00    +0.007 A 
ATOM     17 CL   UNL     1      -4.074  -5.038   4.627  0.00  0.00    -0.084 Cl
ENDBRANCH   4  11
BRANCH   3  18
ATOM     18  C   UNL     1      -2.568  -0.467   0.111  0.00  0.00    +0.246 C 
ATOM     19  O   UNL     1      -3.264  -0.505   1.112  0.00  0.00    -0.270 OA
ATOM     20  N   UNL     1      -3.026   0.132  -1.006  0.00  0.00    -0.304 N 
ATOM     21  C   UNL     1      -4.305   0.846  -0.983  0.00  0.00    +0.132 C 
ATOM     22  C   UNL     1      -2.246   0.068  -2.244  0.00  0.00    +0.132 C 
ENDBRANCH   3  18
BRANCH   6  23
ATOM     23  C   UNL     1      -0.302  -5.469  -0.121  0.00  0.00    +0.091 C 
ATOM     24  C   UNL     1       0.103  -6.752  -0.064  0.00  0.00    +0.239 C 
ATOM     25  O   UNL     1       1.426  -7.044  -0.015  0.00  0.00    -0.271 OA
BRANCH  24  26
ATOM     26  N   UNL     1      -0.832  -7.774  -0.053  0.00  0.00    -0.305 N 
ATOM     27  H   UNL     1      -1.774  -7.570  -0.161  0.00  0.00    +0.149 HD
BRANCH  26  28
ATOM     28  C   UNL     1      -0.398  -9.162   0.120  0.00  0.00    +0.179 C 
BRANCH  28  29
ATOM     29  C   UNL     1      -1.583 -10.081  -0.027  0.00  0.00    +0.122 A 
ATOM     30  C   UNL     1      -2.007 -10.639  -1.175  0.00  0.00    +0.046 A 
ATOM     31  C   UNL     1      -3.141 -11.422  -0.856  0.00  0.00    +0.041 A 
ATOM     32  C   UNL     1      -3.341 -11.295   0.468  0.00  0.00    +0.195 A 
ATOM     33  O   UNL     1      -2.391 -10.486   0.966  0.00  0.00    -0.466 OA
ENDBRANCH  28  29
ENDBRANCH  26  28
ENDBRANCH  24  26
ENDBRANCH   6  23
TORSDOF 6
