REMARK  Name = ZINC49068567
REMARK  10 active torsions:
REMARK  status: ('A' for Active; 'I' for Inactive)
REMARK    1  A    between atoms: C_1  and  C_2
REMARK    2  A    between atoms: C_2  and  C_3
REMARK    3  A    between atoms: C_2  and  O_4
REMARK    4  A    between atoms: O_4  and  C_5
REMARK    5  A    between atoms: C_10  and  C_13
REMARK    6  A    between atoms: C_13  and  O_14
REMARK    7  A    between atoms: O_14  and  C_15
REMARK    8  A    between atoms: N_24  and  S_27
REMARK    9  A    between atoms: S_27  and  C_30
REMARK   10  A    between atoms: C_30  and  C_31
REMARK                            x       y       z     vdW  Elec       q    Type
REMARK                         _______ _______ _______ _____ _____    ______ ____
ROOT
ATOM      1  C   UNL     1       6.104  -5.666  -5.017  0.00  0.00    +0.136 A 
ATOM      2  C   UNL     1       5.227  -6.708  -5.309  0.00  0.00    +0.050 A 
ATOM      3  C   UNL     1       5.753  -7.911  -5.743  0.00  0.00    +0.045 A 
ATOM      4  C   UNL     1       7.132  -8.039  -5.873  0.00  0.00    +0.099 A 
ATOM      5  N   UNL     1       7.935  -7.027  -5.587  0.00  0.00    -0.346 N 
ATOM      6  C   UNL     1       7.465  -5.864  -5.176  0.00  0.00    +0.130 A 
ATOM      7  N   UNL     1       7.674  -9.245  -6.309  0.00  0.00    -0.314 N 
ATOM      8  C   UNL     1       6.816 -10.422  -6.507  0.00  0.00    +0.123 C 
ATOM      9  C   UNL     1       7.004 -10.930  -7.942  0.00  0.00    +0.128 C 
ATOM     10  N   UNL     1       8.443 -11.050  -8.213  0.00  0.00    -0.178 NA
ATOM     11  C   UNL     1       9.301  -9.873  -8.015  0.00  0.00    +0.128 C 
ATOM     12  C   UNL     1       9.112  -9.363  -6.586  0.00  0.00    +0.123 C 
ATOM     13  H   UNL     1       8.893  -7.141  -5.686  0.00  0.00    +0.167 HD
ENDROOT
BRANCH  10  14
ATOM     14  S   UNL     1       9.087 -12.485  -8.732  0.00  0.00    +0.032 S 
ATOM     15  O   UNL     1      10.443 -12.447  -8.309  0.00  0.00    -0.158 OA
ATOM     16  O   UNL     1       8.201 -13.479  -8.237  0.00  0.00    -0.158 OA
BRANCH  14  17
ATOM     17  C   UNL     1       8.994 -12.410 -10.542  0.00  0.00    +0.188 C 
BRANCH  17  18
ATOM     18  C   UNL     1       9.568 -13.698 -11.135  0.00  0.00    +0.012 C 
ATOM     19  C   UNL     1      11.060 -13.789 -10.809  0.00  0.00    +0.005 C 
ATOM     20  C   UNL     1      11.634 -15.078 -11.403  0.00  0.00    +0.000 C 
ATOM     21  C   UNL     1      11.443 -15.069 -12.921  0.00  0.00    +0.000 C 
ATOM     22  C   UNL     1       9.951 -14.978 -13.246  0.00  0.00    +0.000 C 
ATOM     23  C   UNL     1       9.377 -13.690 -12.653  0.00  0.00    +0.005 C 
ENDBRANCH  17  18
ENDBRANCH  14  17
ENDBRANCH  10  14
BRANCH   1  24
ATOM     24  O   UNL     1       5.628  -4.466  -4.588  0.00  0.00    -0.490 OA
BRANCH  24  25
ATOM     25  C   UNL     1       4.211  -4.342  -4.449  0.00  0.00    +0.232 C 
BRANCH  25  31
ATOM     26  C   UNL     1       1.962  -0.656  -1.122  0.00  0.00    +0.403 C 
ATOM     27  O   UNL     1       2.521  -0.447  -0.063  0.00  0.00    -0.226 OA
ATOM     28  N   UNL     1       2.670  -1.085  -2.185  0.00  0.00    -0.267 N 
ATOM     29  C   UNL     1       2.010  -1.338  -3.473  0.00  0.00    +0.111 C 
ATOM     30  C   UNL     1       2.348  -2.760  -3.930  0.00  0.00    +0.026 C 
ATOM     31  C   UNL     1       3.869  -2.934  -3.959  0.00  0.00    +0.030 C 
ATOM     32  C   UNL     1       4.434  -2.732  -2.551  0.00  0.00    +0.026 C 
ATOM     33  C   UNL     1       4.119  -1.304  -2.079  0.00  0.00    +0.111 C 
BRANCH  26  34
ATOM     34  O   UNL     1       0.634  -0.460  -1.232  0.00  0.00    -0.448 OA
BRANCH  34  36
ATOM     35  C   UNL     1      -0.064   1.525  -0.044  0.00  0.00    +0.052 C 
ATOM     36  C   UNL     1      -0.054  -0.005  -0.066  0.00  0.00    +0.172 C 
ATOM     37  C   UNL     1      -1.493  -0.524  -0.087  0.00  0.00    +0.052 C 
ENDBRANCH  34  36
ENDBRANCH  26  34
ENDBRANCH  25  31
ENDBRANCH  24  25
ENDBRANCH   1  24
TORSDOF 8
