REMARK  Name = ZINC04709686
REMARK  5 active torsions:
REMARK  status: ('A' for Active; 'I' for Inactive)
REMARK    1  A    between atoms: C_3  and  N_7
REMARK    2  A    between atoms: C_10  and  C_17
REMARK    3  A    between atoms: C_12  and  C_15
REMARK    4  A    between atoms: C_13  and  N_14
REMARK    5  A    between atoms: C_20  and  N_22
REMARK                            x       y       z     vdW  Elec       q    Type
REMARK                         _______ _______ _______ _____ _____    ______ ____
ROOT
ATOM      1  N   UNL     1       2.403   1.185   0.206  0.00  0.00    -0.259 N 
ATOM      2  C   UNL     1       2.343  -0.180   0.311  0.00  0.00    +0.025 C 
ATOM      3  C   UNL     1       3.468  -0.908   0.474  0.00  0.00    +0.026 C 
ATOM      4  C   UNL     1       4.816  -0.240   0.568  0.00  0.00    +0.104 C 
ATOM      5  C   UNL     1       4.766   1.160   0.029  0.00  0.00    +0.077 C 
ATOM      6  C   UNL     1       3.582   1.809  -0.131  0.00  0.00    +0.107 C 
ATOM      7  C   UNL     1       3.417  -2.310   0.566  0.00  0.00    +0.162 C 
ATOM      8  O   UNL     1       4.448  -2.935   0.722  0.00  0.00    -0.292 OA
ATOM      9  C   UNL     1       2.112  -3.051   0.475  0.00  0.00    +0.080 C 
ATOM     10  C   UNL     1       1.134  -2.237  -0.378  0.00  0.00    +0.014 C 
ATOM     11  C   UNL     1       0.990  -0.846   0.243  0.00  0.00    +0.052 C 
ENDROOT
BRANCH   1  14
ATOM     12  C   UNL     1      -0.707   3.066  -0.337  0.00  0.00    +0.021 A 
ATOM     13  C   UNL     1       0.418   2.307  -0.617  0.00  0.00    +0.027 A 
ATOM     14  C   UNL     1       1.254   1.950   0.438  0.00  0.00    +0.058 A 
ATOM     15  C   UNL     1       0.931   2.364   1.724  0.00  0.00    +0.134 A 
ATOM     16  N   UNL     1      -0.153   3.080   1.947  0.00  0.00    -0.261 NA
ATOM     17  C   UNL     1      -0.962   3.439   0.969  0.00  0.00    +0.111 A 
ENDBRANCH   1  14
BRANCH   4  18
ATOM     18  C   UNL     1       5.248  -0.198   2.011  0.00  0.00    +0.005 A 
ATOM     19  C   UNL     1       6.344  -0.746   2.591  0.00  0.00    +0.014 A 
ATOM     20  C   UNL     1       6.541  -0.574   3.948  0.00  0.00    +0.041 A 
ATOM     21  C   UNL     1       5.628   0.129   4.661  0.00  0.00    +0.164 A 
ATOM     22  S   UNL     1       4.444   0.580   3.403  0.00  0.00    -0.068 S 
BRANCH  21  23
ATOM     23  N   UNL     1       5.614   0.440   6.109  0.00  0.00    +0.063 N 
ATOM     24  O   UNL     1       6.516   0.045   6.825  0.00  0.00    -0.126 OA
ATOM     25  O   UNL     1       4.701   1.092   6.583  0.00  0.00    -0.126 OA
ENDBRANCH  21  23
ENDBRANCH   4  18
BRANCH   6  26
ATOM     26  N   UNL     1       3.562   3.091  -0.626  0.00  0.00    -0.345 N 
ATOM     27  H   UNL     1       2.716   3.522  -0.824  0.00  0.00    +0.144 HD
ATOM     28  H   UNL     1       4.395   3.566  -0.777  0.00  0.00    +0.144 HD
ENDBRANCH   6  26
BRANCH   5  29
ATOM     29  C   UNL     1       5.985   1.821  -0.328  0.00  0.00    +0.099 C 
ATOM     30  N   UNL     1       6.952   2.346  -0.611  0.00  0.00    -0.191 NA
ENDBRANCH   5  29
TORSDOF 5
