REMARK  Name = ZINC16443065
REMARK  8 active torsions:
REMARK  status: ('A' for Active; 'I' for Inactive)
REMARK    1  A    between atoms: C_1  and  C_2
REMARK    2  A    between atoms: C_2  and  C_4
REMARK    3  A    between atoms: C_2  and  N_59
REMARK    4  A    between atoms: N_6  and  C_7
REMARK    5  A    between atoms: C_10  and  C_13
REMARK    6  A    between atoms: N_15  and  C_16
REMARK    7  A    between atoms: C_21  and  O_22
REMARK    8  A    between atoms: O_22  and  C_23
REMARK                            x       y       z     vdW  Elec       q    Type
REMARK                         _______ _______ _______ _____ _____    ______ ____
ROOT
ATOM      1  C   UNL     1       0.624  -2.287  -3.704  0.00  0.00    +0.033 A 
ATOM      2  C   UNL     1       0.580  -3.056  -2.546  0.00  0.00    +0.024 A 
ATOM      3  C   UNL     1       0.648  -4.429  -2.626  0.00  0.00    +0.015 A 
ATOM      4  C   UNL     1       0.773  -5.049  -3.872  0.00  0.00    +0.037 A 
ATOM      5  C   UNL     1       0.823  -4.273  -5.033  0.00  0.00    +0.015 A 
ATOM      6  C   UNL     1       0.749  -2.901  -4.946  0.00  0.00    +0.024 A 
ENDROOT
BRANCH   1   9
ATOM      7  C   UNL     1      -0.073  -0.318  -2.574  0.00  0.00    +0.203 C 
ATOM      8  O   UNL     1      -0.660  -1.002  -1.762  0.00  0.00    -0.277 OA
ATOM      9  N   UNL     1       0.549  -0.897  -3.620  0.00  0.00    -0.287 N 
ATOM     10  H   UNL     1       0.945  -0.347  -4.314  0.00  0.00    +0.155 HD
BRANCH   7  12
ATOM     11  C   UNL     1       1.411   1.647  -2.284  0.00  0.00    -0.004 C 
ATOM     12  C   UNL     1      -0.040   1.180  -2.413  0.00  0.00    +0.017 C 
BRANCH  12  22
ATOM     13  C   UNL     1      -0.959   3.018  -1.128  0.00  0.00    -0.073 C 
ATOM     14  C   UNL     1      -2.031   3.325  -0.082  0.00  0.00    +0.017 C 
ATOM     15  C   UNL     1      -1.723   2.595   1.200  0.00  0.00    -0.048 A 
ATOM     16  C   UNL     1      -2.358   3.004   2.363  0.00  0.00    +0.004 A 
ATOM     17  C   UNL     1      -2.107   2.360   3.558  0.00  0.00    +0.000 A 
ATOM     18  C   UNL     1      -1.218   1.302   3.595  0.00  0.00    +0.000 A 
ATOM     19  C   UNL     1      -0.585   0.895   2.439  0.00  0.00    +0.002 A 
ATOM     20  C   UNL     1      -0.839   1.542   1.234  0.00  0.00    -0.061 A 
ATOM     21  C   UNL     1      -0.117   1.063   0.003  0.00  0.00    -0.042 C 
ATOM     22  N   UNL     1      -0.808   1.551  -1.203  0.00  0.00    +0.390 N 
ATOM     23  H   UNL     1      -1.739   1.121  -1.253  0.00  0.00    -0.080 HD
ENDBRANCH  12  22
ENDBRANCH   7  12
ENDBRANCH   1   9
BRANCH   4  24
ATOM     24  C   UNL     1       0.852  -6.520  -3.961  0.00  0.00    +0.248 C 
ATOM     25  O   UNL     1       0.961  -7.058  -5.046  0.00  0.00    -0.270 OA
ATOM     26  N   UNL     1       0.804  -7.267  -2.840  0.00  0.00    -0.279 N 
ATOM     27  H   UNL     1       0.650  -6.843  -1.982  0.00  0.00    +0.155 HD
BRANCH  26  28
ATOM     28  C   UNL     1       0.977  -8.655  -2.916  0.00  0.00    +0.076 A 
ATOM     29  C   UNL     1       0.499  -9.357  -4.013  0.00  0.00    +0.027 A 
ATOM     30  C   UNL     1       0.675 -10.725  -4.087  0.00  0.00    +0.002 A 
ATOM     31  C   UNL     1       1.318 -11.399  -3.065  0.00  0.00    +0.004 A 
ATOM     32  C   UNL     1       1.793 -10.707  -1.966  0.00  0.00    +0.047 A 
ATOM     33  C   UNL     1       1.625  -9.335  -1.887  0.00  0.00    +0.141 A 
BRANCH  33  34
ATOM     34  O   UNL     1       2.090  -8.652  -0.806  0.00  0.00    -0.493 OA
ATOM     35  C   UNL     1       2.744  -9.415   0.210  0.00  0.00    +0.277 C 
ENDBRANCH  33  34
ENDBRANCH  26  28
ENDBRANCH   4  24
TORSDOF 6
