REMARK  Name = ZINC32217780
REMARK  9 active torsions:
REMARK  status: ('A' for Active; 'I' for Inactive)
REMARK    1  A    between atoms: C_1  and  C_2
REMARK    2  A    between atoms: C_5  and  S_9
REMARK    3  A    between atoms: C_6  and  C_8
REMARK    4  A    between atoms: S_9  and  N_12
REMARK    5  A    between atoms: C_15  and  C_18
REMARK    6  A    between atoms: N_20  and  C_21
REMARK    7  A    between atoms: C_21  and  C_22
REMARK    8  A    between atoms: C_22  and  C_24
REMARK    9  A    between atoms: C_22  and  N_29
REMARK                            x       y       z     vdW  Elec       q    Type
REMARK                         _______ _______ _______ _____ _____    ______ ____
ROOT
ATOM      1  N   UNL     1       1.295  -0.638  -1.611  0.00  0.00    -0.177 NA
ATOM      2  C   UNL     1       0.645  -0.195  -0.370  0.00  0.00    +0.110 C 
ATOM      3  C   UNL     1       0.348   1.304  -0.476  0.00  0.00    +0.030 C 
ATOM      4  C   UNL     1       1.639   2.053  -0.811  0.00  0.00    +0.077 C 
ATOM      5  C   UNL     1       2.176   1.570  -2.161  0.00  0.00    +0.030 C 
ATOM      6  C   UNL     1       2.494   0.074  -2.073  0.00  0.00    +0.110 C 
ENDROOT
BRANCH   4   7
ATOM      7  C   UNL     1       1.357   3.532  -0.884  0.00  0.00    +0.216 C 
ATOM      8  O   UNL     1       0.234   3.945  -0.686  0.00  0.00    -0.276 OA
ATOM      9  N   UNL     1       2.352   4.395  -1.167  0.00  0.00    -0.316 N 
ATOM     10  H   UNL     1       3.371   4.020  -1.346  0.00  0.00    +0.149 HD
BRANCH   9  11
ATOM     11  C   UNL     1       2.078   5.832  -1.237  0.00  0.00    +0.094 C 
BRANCH  11  12
ATOM     12  C   UNL     1       3.388   6.592  -1.453  0.00  0.00    -0.013 C 
BRANCH  12  13
ATOM     13  N   UNL     1       3.126   8.037  -1.430  0.00  0.00    +0.386 N 
ATOM     14  C   UNL     1       2.554   8.454  -0.124  0.00  0.00    -0.078 C 
ATOM     15  C   UNL     1       2.838   9.976  -0.082  0.00  0.00    -0.020 C 
ATOM     16  C   UNL     1       4.232  10.086  -0.742  0.00  0.00    -0.020 C 
ATOM     17  C   UNL     1       4.380   8.806  -1.584  0.00  0.00    -0.078 C 
ATOM     18  H   UNL     1       2.431   8.229  -2.261  0.00  0.00    -0.081 HD
ENDBRANCH  12  13
BRANCH  12  19
ATOM     19  C   UNL     1       3.978   6.209  -2.786  0.00  0.00    -0.022 A 
ATOM     20  C   UNL     1       4.978   5.336  -3.058  0.00  0.00    +0.009 A 
ATOM     21  C   UNL     1       5.356   5.138  -4.373  0.00  0.00    +0.008 A 
ATOM     22  C   UNL     1       4.721   5.830  -5.351  0.00  0.00    +0.045 A 
ATOM     23  S   UNL     1       3.544   6.794  -4.416  0.00  0.00    -0.103 S 
ENDBRANCH  12  19
ENDBRANCH  11  12
ENDBRANCH   9  11
ENDBRANCH   4   7
BRANCH   1  24
ATOM     24  S   UNL     1       0.688  -1.915  -2.472  0.00  0.00    +0.061 S 
ATOM     25  O   UNL     1       1.781  -2.486  -3.178  0.00  0.00    -0.153 OA
ATOM     26  O   UNL     1      -0.114  -2.667  -1.572  0.00  0.00    -0.153 OA
BRANCH  24  31
ATOM     27  C   UNL     1      -3.051   0.353  -6.629  0.00  0.00    +0.044 C 
ATOM     28  C   UNL     1      -2.117  -0.213  -5.591  0.00  0.00    -0.050 A 
ATOM     29  C   UNL     1      -0.937  -0.819  -5.980  0.00  0.00    +0.005 A 
ATOM     30  C   UNL     1      -0.080  -1.339  -5.028  0.00  0.00    +0.029 A 
ATOM     31  C   UNL     1      -0.404  -1.252  -3.686  0.00  0.00    +0.108 A 
ATOM     32  C   UNL     1      -1.586  -0.651  -3.298  0.00  0.00    -0.024 A 
ATOM     33  C   UNL     1      -2.440  -0.127  -4.250  0.00  0.00    +0.008 A 
ATOM     34  C   UNL     1      -1.941  -0.562  -1.836  0.00  0.00    +0.046 C 
ENDBRANCH  24  31
ENDBRANCH   1  24
TORSDOF 7
