REMARK  Name = ZINC51021888
REMARK  3 active torsions:
REMARK  status: ('A' for Active; 'I' for Inactive)
REMARK    1  A    between atoms: C_3  and  S_12
REMARK    2  A    between atoms: C_8  and  N_11
REMARK    3  A    between atoms: S_12  and  C_13
REMARK                            x       y       z     vdW  Elec       q    Type
REMARK                         _______ _______ _______ _____ _____    ______ ____
ROOT
ATOM      1  C   UNL     1      -0.017   1.406   0.010  0.00  0.00    +0.012 A 
ATOM      2  C   UNL     1       1.174   2.068   0.002  0.00  0.00    +0.036 A 
ATOM      3  C   UNL     1       2.374   1.345  -0.013  0.00  0.00    +0.104 A 
ATOM      4  N   UNL     1       2.386   0.028  -0.021  0.00  0.00    -0.240 NA
ATOM      5  C   UNL     1       1.248  -0.677  -0.014  0.00  0.00    +0.072 A 
ATOM      6  C   UNL     1       0.002  -0.004   0.002  0.00  0.00    +0.002 A 
ATOM      7  C   UNL     1      -1.188  -0.747   0.009  0.00  0.00    +0.032 A 
ATOM      8  C   UNL     1      -1.129  -2.123   0.001  0.00  0.00    +0.025 A 
ATOM      9  C   UNL     1       0.106  -2.782  -0.015  0.00  0.00    +0.025 A 
ATOM     10  C   UNL     1       1.272  -2.083  -0.022  0.00  0.00    +0.030 A 
ENDROOT
BRANCH   8  11
ATOM     11  N   UNL     1      -2.312  -2.868   0.008  0.00  0.00    -0.358 N 
ATOM     12  H   UNL     1      -3.170  -2.416   0.019  0.00  0.00    +0.142 HD
ATOM     13  H   UNL     1      -2.275  -3.837   0.002  0.00  0.00    +0.142 HD
ENDBRANCH   8  11
BRANCH   3  14
ATOM     14  S   UNL     1       3.905   2.219  -0.023  0.00  0.00    -0.048 S 
BRANCH  14  15
ATOM     15  C   UNL     1       5.122   0.945  -0.042  0.00  0.00    +0.132 A 
ATOM     16  C   UNL     1       6.483   1.259  -0.047  0.00  0.00    +0.118 A 
ATOM     17  C   UNL     1       7.416   0.209  -0.062  0.00  0.00    +0.182 A 
ATOM     18  N   UNL     1       8.638   0.772  -0.065  0.00  0.00    -0.216 NA
ATOM     19  H   UNL     1       6.867   3.328  -0.032  0.00  0.00    +0.167 HD
ATOM     20  C   UNL     1       8.525   2.071  -0.052  0.00  0.00    +0.199 A 
ATOM     21  N   UNL     1       7.220   2.424  -0.042  0.00  0.00    -0.341 N 
ATOM     22  N   UNL     1       6.964  -1.050  -0.071  0.00  0.00    -0.214 NA
ATOM     23  C   UNL     1       5.673  -1.297  -0.066  0.00  0.00    +0.224 A 
ATOM     24  N   UNL     1       4.766  -0.337  -0.045  0.00  0.00    -0.227 NA
ENDBRANCH  14  15
ENDBRANCH   3  14
TORSDOF 3
