REMARK  Name = ZINC58867739
REMARK  7 active torsions:
REMARK  status: ('A' for Active; 'I' for Inactive)
REMARK    1  A    between atoms: C_4  and  C_7
REMARK    2  A    between atoms: C_7  and  N_9
REMARK    3  A    between atoms: C_10  and  C_11
REMARK    4  A    between atoms: C_13  and  C_25
REMARK    5  A    between atoms: N_16  and  C_19
REMARK    6  A    between atoms: C_25  and  S_26
REMARK    7  A    between atoms: S_26  and  C_27
REMARK                            x       y       z     vdW  Elec       q    Type
REMARK                         _______ _______ _______ _____ _____    ______ ____
ROOT
ATOM      1  C   UNL     1       4.871  -4.164  -0.268  0.00  0.00    +0.156 C 
ATOM      2  C   UNL     1       4.858  -4.604  -1.753  0.00  0.00    +0.102 C 
ATOM      3  N   UNL     1       3.983  -5.798  -1.709  0.00  0.00    -0.228 NA
ATOM      4  N   UNL     1       3.143  -5.662  -0.645  0.00  0.00    -0.204 N 
ATOM      5  C   UNL     1       3.579  -4.760   0.260  0.00  0.00    +0.245 C 
ATOM      6  O   UNL     1       3.036  -4.474   1.306  0.00  0.00    -0.273 OA
ATOM      7  H   UNL     1       4.529  -6.644  -1.633  0.00  0.00    +0.145 HD
ENDROOT
BRANCH   4   8
ATOM      8  C   UNL     1       1.953  -6.385  -0.502  0.00  0.00    +0.053 A 
ATOM      9  C   UNL     1       1.808  -7.617  -1.127  0.00  0.00    +0.025 A 
ATOM     10  C   UNL     1       0.633  -8.328  -0.984  0.00  0.00    +0.002 A 
ATOM     11  C   UNL     1      -0.400  -7.814  -0.221  0.00  0.00    +0.000 A 
ATOM     12  C   UNL     1      -0.259  -6.587   0.402  0.00  0.00    +0.002 A 
ATOM     13  C   UNL     1       0.917  -5.874   0.269  0.00  0.00    +0.025 A 
ENDBRANCH   4   8
BRANCH   1  15
ATOM     14  N   UNL     1       3.714  -2.024  -0.046  0.00  0.00    -0.165 NA
ATOM     15  C   UNL     1       4.856  -2.662  -0.153  0.00  0.00    +0.099 C 
ATOM     16  N   UNL     1       6.016  -1.972  -0.161  0.00  0.00    -0.348 N 
ATOM     17  H   UNL     1       6.012  -1.014  -0.009  0.00  0.00    +0.143 HD
ATOM     18  H   UNL     1       6.854  -2.434  -0.319  0.00  0.00    +0.143 HD
BRANCH  14  19
ATOM     19  C   UNL     1       3.691  -0.678  -0.063  0.00  0.00    +0.269 C 
ATOM     20  O   UNL     1       4.226  -0.072  -0.974  0.00  0.00    -0.268 OA
BRANCH  19  24
ATOM     21  C   UNL     1       1.750   1.454   3.058  0.00  0.00    +0.000 A 
ATOM     22  C   UNL     1       2.358   2.146   2.025  0.00  0.00    +0.001 A 
ATOM     23  C   UNL     1       2.989   1.460   1.009  0.00  0.00    +0.013 A 
ATOM     24  C   UNL     1       3.015   0.065   1.024  0.00  0.00    +0.039 A 
ATOM     25  C   UNL     1       2.401  -0.627   2.069  0.00  0.00    +0.013 A 
ATOM     26  C   UNL     1       1.772   0.071   3.079  0.00  0.00    +0.001 A 
ENDBRANCH  19  24
ENDBRANCH  14  19
ENDBRANCH   1  15
BRANCH   2  27
ATOM     27  C   UNL     1       4.254  -3.514  -2.640  0.00  0.00    +0.096 C 
BRANCH  27  28
ATOM     28  S   UNL     1       4.258  -4.069  -4.367  0.00  0.00    -0.124 S 
BRANCH  28  29
ATOM     29  C   UNL     1       3.541  -2.723  -5.250  0.00  0.00    +0.008 A 
ATOM     30  C   UNL     1       3.138  -1.580  -4.569  0.00  0.00    +0.016 A 
ATOM     31  C   UNL     1       2.577  -0.527  -5.264  0.00  0.00    +0.021 A 
ATOM     32  C   UNL     1       2.416  -0.609  -6.636  0.00  0.00    +0.041 A 
ATOM     33  C   UNL     1       2.816  -1.745  -7.316  0.00  0.00    +0.021 A 
ATOM     34  C   UNL     1       3.383  -2.800  -6.628  0.00  0.00    +0.016 A 
ATOM     35 CL   UNL     1       1.709   0.718  -7.505  0.00  0.00    -0.084 Cl
ENDBRANCH  28  29
ENDBRANCH  27  28
ENDBRANCH   2  27
TORSDOF 7
