REMARK  Name = ZINC38745157
REMARK  6 active torsions:
REMARK  status: ('A' for Active; 'I' for Inactive)
REMARK    1  A    between atoms: C_4  and  C_7
REMARK    2  A    between atoms: C_9  and  C_13
REMARK    3  A    between atoms: C_17  and  C_22
REMARK    4  A    between atoms: C_22  and  C_23
REMARK    5  A    between atoms: C_22  and  C_29
REMARK    6  A    between atoms: C_22  and  O_35
REMARK                            x       y       z     vdW  Elec       q    Type
REMARK                         _______ _______ _______ _____ _____    ______ ____
ROOT
ATOM      1  C   UNL     1       5.763  -2.987  -1.332  0.00  0.00    +0.182 C 
ATOM      2  N   UNL     1       7.232  -3.216  -1.363  0.00  0.00    -0.265 N 
ATOM      3  N   UNL     1       7.804  -3.118  -2.597  0.00  0.00    -0.221 N 
ATOM      4  C   UNL     1       8.965  -3.547  -3.216  0.00  0.00    +0.192 A 
ATOM      5  N   UNL     1       8.966  -3.085  -4.431  0.00  0.00    -0.128 NA
ATOM      6  N   UNL     1       7.894  -2.408  -4.647  0.00  0.00    -0.121 NA
ATOM      7  C   UNL     1       7.156  -2.416  -3.581  0.00  0.00    +0.211 A 
ATOM      8  S   UNL     1       5.621  -1.916  -2.828  0.00  0.00    -0.058 S 
ATOM      9  H   UNL     1       7.704  -2.622  -0.698  0.00  0.00    +0.168 HD
ENDROOT
BRANCH   1  12
ATOM     10  C   UNL     1       3.699  -0.689  -0.037  0.00  0.00    +0.091 C 
ATOM     11  C   UNL     1       3.832  -2.029  -0.051  0.00  0.00    +0.034 C 
ATOM     12  C   UNL     1       5.335  -2.245  -0.065  0.00  0.00    +0.185 C 
ATOM     13  N   UNL     1       5.871  -0.874  -0.056  0.00  0.00    -0.177 NA
ATOM     14  N   UNL     1       4.919  -0.090  -0.047  0.00  0.00    -0.154 NA
BRANCH  10  18
ATOM     15  C   UNL     1      -0.017   1.379   0.010  0.00  0.00    +0.000 A 
ATOM     16  C   UNL     1       1.169   2.092   0.002  0.00  0.00    +0.001 A 
ATOM     17  C   UNL     1       2.377   1.426  -0.013  0.00  0.00    +0.010 A 
ATOM     18  C   UNL     1       2.402   0.033  -0.021  0.00  0.00    +0.002 A 
ATOM     19  C   UNL     1       1.205  -0.680  -0.013  0.00  0.00    +0.010 A 
ATOM     20  C   UNL     1       0.002  -0.004   0.002  0.00  0.00    +0.001 A 
ENDBRANCH  10  18
ENDBRANCH   1  12
BRANCH   4  21
ATOM     21  C   UNL     1      10.039  -4.399  -2.590  0.00  0.00    +0.177 C 
BRANCH  21  22
ATOM     22  C   UNL     1      11.135  -4.643  -3.596  0.00  0.00    -0.004 A 
ATOM     23  C   UNL     1      11.406  -3.697  -4.566  0.00  0.00    +0.007 A 
ATOM     24  C   UNL     1      12.411  -3.922  -5.489  0.00  0.00    +0.000 A 
ATOM     25  C   UNL     1      13.145  -5.092  -5.440  0.00  0.00    +0.000 A 
ATOM     26  C   UNL     1      12.875  -6.037  -4.468  0.00  0.00    +0.000 A 
ATOM     27  C   UNL     1      11.873  -5.811  -3.543  0.00  0.00    +0.007 A 
ENDBRANCH  21  22
BRANCH  21  28
ATOM     28  C   UNL     1      10.609  -3.688  -1.390  0.00  0.00    -0.004 A 
ATOM     29  C   UNL     1      10.630  -2.306  -1.350  0.00  0.00    +0.007 A 
ATOM     30  C   UNL     1      11.152  -1.654  -0.248  0.00  0.00    +0.000 A 
ATOM     31  C   UNL     1      11.653  -2.384   0.813  0.00  0.00    +0.000 A 
ATOM     32  C   UNL     1      11.632  -3.765   0.774  0.00  0.00    +0.000 A 
ATOM     33  C   UNL     1      11.105  -4.417  -0.326  0.00  0.00    +0.007 A 
ENDBRANCH  21  28
BRANCH  21  34
ATOM     34  O   UNL     1       9.479  -5.648  -2.183  0.00  0.00    -0.372 OA
ATOM     35  H   UNL     1       8.766  -5.567  -1.534  0.00  0.00    +0.212 HD
ENDBRANCH  21  34
ENDBRANCH   4  21
TORSDOF 6
