REMARK  Name = ZINC33306444
REMARK  9 active torsions:
REMARK  status: ('A' for Active; 'I' for Inactive)
REMARK    1  A    between atoms: C_1  and  C_2
REMARK    2  A    between atoms: C_4  and  N_9
REMARK    3  A    between atoms: N_9  and  S_10
REMARK    4  A    between atoms: S_10  and  C_13
REMARK    5  A    between atoms: C_16  and  C_18
REMARK    6  A    between atoms: C_19  and  C_20
REMARK    7  A    between atoms: C_21  and  N_26
REMARK    8  A    between atoms: C_22  and  C_25
REMARK    9  A    between atoms: C_27  and  C_29
REMARK                            x       y       z     vdW  Elec       q    Type
REMARK                         _______ _______ _______ _____ _____    ______ ____
ROOT
ATOM      1  C   UNL     1      -5.577   7.371   1.443  0.00  0.00    +0.146 A 
ATOM      2  C   UNL     1      -6.654   6.543   1.471  0.00  0.00    +0.037 A 
ATOM      3  C   UNL     1      -6.474   5.196   1.262  0.00  0.00    +0.017 A 
ATOM      4  C   UNL     1      -5.187   4.731   1.039  0.00  0.00    +0.014 A 
ATOM      5  S   UNL     1      -4.235   6.239   1.118  0.00  0.00    -0.069 S 
ENDROOT
BRANCH   1   6
ATOM      6  S   UNL     1      -5.519   9.117   1.669  0.00  0.00    +0.079 S 
ATOM      7  O   UNL     1      -4.288   9.558   1.112  0.00  0.00    -0.149 OA
ATOM      8  O   UNL     1      -6.775   9.624   1.238  0.00  0.00    -0.149 OA
BRANCH   6   9
ATOM      9  N   UNL     1      -5.429   9.398   3.298  0.00  0.00    -0.216 N 
ATOM     10  H   UNL     1      -4.551   9.907   3.721  0.00  0.00    +0.174 HD
BRANCH   9  14
ATOM     11  C   UNL     1      -6.911   7.184   7.429  0.00  0.00    +0.045 C 
ATOM     12  C   UNL     1      -7.217   7.913   6.146  0.00  0.00    -0.035 A 
ATOM     13  C   UNL     1      -6.187   8.316   5.319  0.00  0.00    +0.029 A 
ATOM     14  C   UNL     1      -6.469   8.988   4.136  0.00  0.00    +0.048 A 
ATOM     15  C   UNL     1      -7.788   9.255   3.791  0.00  0.00    +0.025 A 
ATOM     16  C   UNL     1      -8.814   8.844   4.619  0.00  0.00    +0.017 A 
ATOM     17  C   UNL     1      -8.529   8.176   5.796  0.00  0.00    +0.021 A 
ATOM     18 BR   UNL     1      -9.937   7.621   6.930  0.00  0.00    -0.050 Br
ENDBRANCH   9  14
ENDBRANCH   6   9
ENDBRANCH   1   6
BRANCH   4  19
ATOM     19  C   UNL     1      -4.730   3.363   0.797  0.00  0.00    +0.019 C 
ATOM     20  C   UNL     1      -3.415   3.115   0.594  0.00  0.00    +0.052 C 
BRANCH  20  21
ATOM     21  C   UNL     1      -2.958   1.748   0.352  0.00  0.00    +0.182 A 
ATOM     22  C   UNL     1      -1.653   1.348   0.130  0.00  0.00    +0.103 A 
ATOM     23  C   UNL     1      -1.662  -0.044  -0.060  0.00  0.00    +0.102 A 
ATOM     24  N   UNL     1      -2.892  -0.467   0.047  0.00  0.00    -0.081 NA
ATOM     25  O   UNL     1      -3.732   0.643   0.304  0.00  0.00    -0.353 OA
ATOM     26  C   UNL     1      -0.456  -0.904  -0.338  0.00  0.00    +0.071 C 
BRANCH  22  27
ATOM     27  N   UNL     1      -0.525   2.181   0.096  0.00  0.00    -0.281 N 
ATOM     28  C   UNL     1       0.676   1.706   0.481  0.00  0.00    +0.214 C 
ATOM     29  O   UNL     1       0.767   0.585   0.935  0.00  0.00    -0.276 OA
ATOM     30  C   UNL     1       1.906   2.565   0.342  0.00  0.00    +0.109 C 
ATOM     31  H   UNL     1      -0.621   3.222  -0.245  0.00  0.00    +0.155 HD
ENDBRANCH  22  27
ENDBRANCH  20  21
ENDBRANCH   4  19
TORSDOF 6
