REMARK  Name = ZINC36618847
REMARK  11 active torsions:
REMARK  status: ('A' for Active; 'I' for Inactive)
REMARK    1  A    between atoms: C_1  and  C_2
REMARK    2  A    between atoms: C_2  and  C_3
REMARK    3  A    between atoms: C_2  and  C_4
REMARK    4  A    between atoms: C_4  and  C_5
REMARK    5  A    between atoms: C_8  and  C_11
REMARK    6  A    between atoms: C_18  and  N_38
REMARK    7  A    between atoms: C_19  and  C_36
REMARK    8  A    between atoms: C_20  and  C_22
REMARK    9  A    between atoms: C_27  and  O_28
REMARK   10  A    between atoms: O_28  and  C_29
REMARK   11  A    between atoms: C_29  and  C_31
REMARK                            x       y       z     vdW  Elec       q    Type
REMARK                         _______ _______ _______ _____ _____    ______ ____
ROOT
ATOM      1  C   UNL     1      -1.580   0.533   6.063  0.00  0.00    +0.100 A 
ATOM      2  C   UNL     1      -2.959   0.542   6.291  0.00  0.00    +0.054 A 
ATOM      3  C   UNL     1      -3.177   1.042   7.543  0.00  0.00    +0.223 A 
ATOM      4  N   UNL     1      -1.976   1.335   8.082  0.00  0.00    -0.246 N 
ATOM      5  H   UNL     1      -1.823   1.705   8.966  0.00  0.00    +0.192 HD
ATOM      6  N   UNL     1      -0.987   1.006   7.143  0.00  0.00    -0.171 NA
ATOM      7  O   UNL     1      -4.420   1.184   8.068  0.00  0.00    -0.423 OA
ATOM      8  C   UNL     1      -5.469   1.077   7.228  0.00  0.00    +0.200 C 
ATOM      9  C   UNL     1      -5.380   0.587   5.971  0.00  0.00    +0.098 C 
ATOM     10  C   UNL     1      -4.078   0.100   5.385  0.00  0.00    +0.105 C 
ENDROOT
BRANCH   1  14
ATOM     11  C   UNL     1       0.362  -0.800   2.522  0.00  0.00    -0.047 A 
ATOM     12  C   UNL     1       0.876  -1.140   3.760  0.00  0.00    +0.004 A 
ATOM     13  C   UNL     1       0.251  -0.710   4.912  0.00  0.00    +0.010 A 
ATOM     14  C   UNL     1      -0.902   0.068   4.827  0.00  0.00    +0.003 A 
ATOM     15  C   UNL     1      -1.416   0.408   3.578  0.00  0.00    +0.010 A 
ATOM     16  C   UNL     1      -0.779  -0.023   2.432  0.00  0.00    +0.004 A 
BRANCH  11  17
ATOM     17  C   UNL     1       1.050  -1.272   1.267  0.00  0.00    +0.038 C 
BRANCH  17  19
ATOM     18  C   UNL     1       3.196  -0.159   1.899  0.00  0.00    +0.007 C 
ATOM     19  C   UNL     1       2.095  -0.240   0.839  0.00  0.00    -0.013 C 
ATOM     20  C   UNL     1       2.705  -0.657  -0.500  0.00  0.00    +0.007 C 
ENDBRANCH  17  19
ENDBRANCH  11  17
ENDBRANCH   1  14
BRANCH  10  21
ATOM     21  C   UNL     1      -4.093  -1.404   5.291  0.00  0.00    +0.008 A 
ATOM     22  C   UNL     1      -4.253  -2.166   6.432  0.00  0.00    +0.008 A 
ATOM     23  C   UNL     1      -4.267  -3.546   6.347  0.00  0.00    +0.001 A 
ATOM     24  C   UNL     1      -4.120  -4.167   5.120  0.00  0.00    +0.004 A 
ATOM     25  C   UNL     1      -3.960  -3.410   3.976  0.00  0.00    +0.047 A 
ATOM     26  C   UNL     1      -3.952  -2.024   4.058  0.00  0.00    +0.136 A 
BRANCH  26  27
ATOM     27  O   UNL     1      -3.801  -1.277   2.933  0.00  0.00    -0.420 OA
BRANCH  27  28
ATOM     28  C   UNL     1      -4.914  -0.858   2.296  0.00  0.00    +0.380 C 
ATOM     29  O   UNL     1      -6.008  -1.227   2.678  0.00  0.00    -0.241 OA
BRANCH  28  30
ATOM     30  C   UNL     1      -4.804   0.041   1.145  0.00  0.00    +0.212 A 
ATOM     31  C   UNL     1      -5.846   0.543   0.416  0.00  0.00    +0.056 A 
ATOM     32  C   UNL     1      -5.285   1.352  -0.583  0.00  0.00    +0.042 A 
ATOM     33  C   UNL     1      -3.943   1.310  -0.424  0.00  0.00    +0.196 A 
ATOM     34  O   UNL     1      -3.658   0.524   0.622  0.00  0.00    -0.456 OA
ENDBRANCH  28  30
ENDBRANCH  27  28
ENDBRANCH  26  27
ENDBRANCH  10  21
BRANCH   8  35
ATOM     35  N   UNL     1      -6.699   1.492   7.674  0.00  0.00    -0.328 N 
ATOM     36  H   UNL     1      -6.795   1.849   8.571  0.00  0.00    +0.145 HD
ATOM     37  H   UNL     1      -7.473   1.427   7.093  0.00  0.00    +0.145 HD
ENDBRANCH   8  35
BRANCH   9  38
ATOM     38  C   UNL     1      -6.564   0.526   5.169  0.00  0.00    +0.101 C 
ATOM     39  N   UNL     1      -7.503   0.478   4.532  0.00  0.00    -0.191 NA
ENDBRANCH   9  38
TORSDOF 9
