REMARK  Name = ZINC16613956
REMARK  6 active torsions:
REMARK  status: ('A' for Active; 'I' for Inactive)
REMARK    1  A    between atoms: C_1  and  C_2
REMARK    2  A    between atoms: C_3  and  C_30
REMARK    3  A    between atoms: C_4  and  C_13
REMARK    4  A    between atoms: C_16  and  N_19
REMARK    5  A    between atoms: N_22  and  C_23
REMARK    6  A    between atoms: N_32  and  C_33
REMARK                            x       y       z     vdW  Elec       q    Type
REMARK                         _______ _______ _______ _____ _____    ______ ____
ROOT
ATOM      1  C   UNL     1      -1.153  -2.793  -2.881  0.00  0.00    +0.066 C 
ATOM      2  C   UNL     1      -0.519  -2.451  -1.557  0.00  0.00    +0.051 C 
ATOM      3  C   UNL     1      -0.825  -3.189  -0.454  0.00  0.00    +0.060 C 
ATOM      4  C   UNL     1      -0.225  -2.808   0.878  0.00  0.00    +0.143 C 
ATOM      5  N   UNL     1       1.062  -2.120   0.628  0.00  0.00    -0.299 N 
ATOM      6  C   UNL     1       2.169  -2.403   1.517  0.00  0.00    +0.109 C 
ATOM      7  C   UNL     1       3.141  -1.266   1.738  0.00  0.00    +0.030 C 
ATOM      8  C   UNL     1       3.625  -0.669   0.417  0.00  0.00    +0.079 C 
ATOM      9  S   UNL     1       2.209   0.130  -0.390  0.00  0.00    -0.090 S 
ATOM     10  C   UNL     1       1.105  -1.246  -0.420  0.00  0.00    +0.157 C 
ATOM     11  N   UNL     1       0.333  -1.432  -1.480  0.00  0.00    -0.230 NA
ENDROOT
BRANCH   4  12
ATOM     12  C   UNL     1      -1.162  -1.882   1.610  0.00  0.00    -0.022 A 
ATOM     13  C   UNL     1      -1.213  -0.542   1.271  0.00  0.00    +0.007 A 
ATOM     14  C   UNL     1      -2.075   0.308   1.936  0.00  0.00    +0.024 A 
ATOM     15  C   UNL     1      -2.882  -0.182   2.954  0.00  0.00    +0.035 A 
ATOM     16  C   UNL     1      -2.824  -1.526   3.297  0.00  0.00    +0.024 A 
ATOM     17  C   UNL     1      -1.965  -2.373   2.623  0.00  0.00    +0.007 A 
BRANCH  15  18
ATOM     18  N   UNL     1      -3.751   0.678   3.635  0.00  0.00    -0.269 N 
ATOM     19  C   UNL     1      -3.989   0.495   4.949  0.00  0.00    +0.308 C 
ATOM     20  O   UNL     1      -3.373  -0.354   5.565  0.00  0.00    -0.252 OA
ATOM     21  N   UNL     1      -4.908   1.252   5.580  0.00  0.00    -0.269 N 
ATOM     22  H   UNL     1      -4.182   1.406   3.161  0.00  0.00    +0.156 HD
ATOM     23  H   UNL     1      -5.455   1.873   5.073  0.00  0.00    +0.156 HD
BRANCH  21  24
ATOM     24  C   UNL     1      -5.074   1.142   6.965  0.00  0.00    +0.037 A 
ATOM     25  C   UNL     1      -6.336   1.285   7.528  0.00  0.00    +0.023 A 
ATOM     26  C   UNL     1      -6.499   1.172   8.894  0.00  0.00    +0.005 A 
ATOM     27  C   UNL     1      -5.406   0.926   9.705  0.00  0.00    +0.038 A 
ATOM     28  C   UNL     1      -4.145   0.787   9.148  0.00  0.00    +0.125 A 
ATOM     29  C   UNL     1      -3.978   0.895   7.779  0.00  0.00    +0.061 A 
ATOM     30  F   UNL     1      -3.079   0.547   9.942  0.00  0.00    -0.205 F 
ENDBRANCH  21  24
ENDBRANCH  15  18
ENDBRANCH   4  12
BRANCH   3  31
ATOM     31  C   UNL     1      -1.690  -4.294  -0.554  0.00  0.00    +0.248 C 
ATOM     32  O   UNL     1      -2.266  -4.524  -1.603  0.00  0.00    -0.270 OA
ATOM     33  N   UNL     1      -1.881  -5.099   0.510  0.00  0.00    -0.282 N 
ATOM     34  H   UNL     1      -1.477  -4.878   1.364  0.00  0.00    +0.155 HD
BRANCH  33  35
ATOM     35  C   UNL     1      -2.661  -6.253   0.383  0.00  0.00    +0.034 A 
ATOM     36  C   UNL     1      -3.828  -6.224  -0.370  0.00  0.00    +0.023 A 
ATOM     37  C   UNL     1      -4.593  -7.367  -0.498  0.00  0.00    +0.002 A 
ATOM     38  C   UNL     1      -4.204  -8.535   0.131  0.00  0.00    +0.000 A 
ATOM     39  C   UNL     1      -3.046  -8.565   0.886  0.00  0.00    +0.002 A 
ATOM     40  C   UNL     1      -2.274  -7.428   1.014  0.00  0.00    +0.023 A 
ENDBRANCH  33  35
ENDBRANCH   3  31
TORSDOF 5
