REMARK  Name = ZINC50274040
REMARK  7 active torsions:
REMARK  status: ('A' for Active; 'I' for Inactive)
REMARK    1  A    between atoms: C_1  and  C_2
REMARK    2  A    between atoms: C_2  and  C_4
REMARK    3  A    between atoms: C_2  and  N_14
REMARK    4  A    between atoms: N_6  and  C_7
REMARK    5  A    between atoms: C_20  and  C_29
REMARK    6  A    between atoms: N_25  and  C_26
REMARK    7  A    between atoms: C_26  and  C_27
REMARK                            x       y       z     vdW  Elec       q    Type
REMARK                         _______ _______ _______ _____ _____    ______ ____
ROOT
ATOM      1  N   UNL     1       0.689  -0.479  -1.202  0.00  0.00    -0.281 N 
ATOM      2  C   UNL     1       1.893  -1.321  -1.250  0.00  0.00    +0.160 C 
ATOM      3  C   UNL     1       2.178  -1.509  -2.723  0.00  0.00    +0.043 C 
ATOM      4  C   UNL     1       1.217  -0.832  -3.384  0.00  0.00    +0.058 C 
ATOM      5  C   UNL     1       0.330  -0.224  -2.473  0.00  0.00    +0.247 C 
ATOM      6  O   UNL     1      -0.634   0.447  -2.794  0.00  0.00    -0.270 OA
ATOM      7  C   UNL     1       1.259  -0.849  -4.899  0.00  0.00    +0.142 C 
ATOM      8  N   UNL     1       2.352  -1.609  -5.527  0.00  0.00    -0.288 N 
ATOM      9  C   UNL     1       3.239  -2.236  -4.730  0.00  0.00    +0.307 C 
ATOM     10  O   UNL     1       4.146  -2.866  -5.239  0.00  0.00    -0.252 OA
ATOM     11  N   UNL     1       3.155  -2.188  -3.394  0.00  0.00    -0.253 N 
ATOM     12  H   UNL     1       2.432  -1.658  -6.493  0.00  0.00    +0.151 HD
ENDROOT
BRANCH   7  13
ATOM     13  C   UNL     1      -0.046  -1.418  -5.393  0.00  0.00    -0.022 A 
ATOM     14  C   UNL     1      -0.247  -2.786  -5.393  0.00  0.00    +0.008 A 
ATOM     15  C   UNL     1      -1.443  -3.309  -5.846  0.00  0.00    +0.038 A 
ATOM     16  C   UNL     1      -2.441  -2.463  -6.300  0.00  0.00    +0.123 A 
ATOM     17  C   UNL     1      -2.238  -1.094  -6.299  0.00  0.00    +0.038 A 
ATOM     18  C   UNL     1      -1.043  -0.572  -5.841  0.00  0.00    +0.008 A 
ATOM     19  F   UNL     1      -3.610  -2.974  -6.743  0.00  0.00    -0.205 F 
ENDBRANCH   7  13
BRANCH   1  21
ATOM     20  C   UNL     1      -0.009   1.520   0.022  0.00  0.00    +0.038 C 
ATOM     21  C   UNL     1       0.004  -0.009   0.005  0.00  0.00    +0.160 C 
BRANCH  21  22
ATOM     22  C   UNL     1      -1.412  -0.524   0.012  0.00  0.00    +0.237 C 
ATOM     23  O   UNL     1      -1.810  -1.215  -0.902  0.00  0.00    -0.273 OA
ATOM     24  N   UNL     1      -2.236  -0.217   1.033  0.00  0.00    -0.284 N 
ATOM     25  H   UNL     1      -1.899   0.279   1.796  0.00  0.00    +0.155 HD
BRANCH  24  26
ATOM     26  C   UNL     1      -3.579  -0.613   0.993  0.00  0.00    +0.034 A 
ATOM     27  C   UNL     1      -4.562   0.206   1.532  0.00  0.00    +0.026 A 
ATOM     28  C   UNL     1      -5.885  -0.186   1.492  0.00  0.00    +0.040 A 
ATOM     29  C   UNL     1      -6.232  -1.396   0.914  0.00  0.00    +0.124 A 
ATOM     30  C   UNL     1      -5.253  -2.214   0.376  0.00  0.00    +0.040 A 
ATOM     31  C   UNL     1      -3.929  -1.823   0.409  0.00  0.00    +0.026 A 
ATOM     32  F   UNL     1      -7.527  -1.779   0.876  0.00  0.00    -0.205 F 
ENDBRANCH  24  26
ENDBRANCH  21  22
ENDBRANCH   1  21
BRANCH  11  33
ATOM     33  C   UNL     1       4.166  -2.901  -2.609  0.00  0.00    +0.141 C 
BRANCH  33  34
ATOM     34  C   UNL     1       3.698  -4.310  -2.349  0.00  0.00    -0.015 C 
ATOM     35  C   UNL     1       4.453  -5.324  -2.691  0.00  0.00    +0.005 C 
ENDBRANCH  33  34
ENDBRANCH  11  33
TORSDOF 6
