REMARK  Name = ZINC19820016
REMARK  4 active torsions:
REMARK  status: ('A' for Active; 'I' for Inactive)
REMARK    1  A    between atoms: C_1  and  N_2
REMARK    2  A    between atoms: N_2  and  C_3
REMARK    3  A    between atoms: N_2  and  C_4
REMARK    4  A    between atoms: C_7  and  C_10
REMARK                            x       y       z     vdW  Elec       q    Type
REMARK                         _______ _______ _______ _____ _____    ______ ____
ROOT
ATOM      1  C   UNL     1      -4.870  -2.906   0.033  0.00  0.00    +0.092 C 
ATOM      2  C   UNL     1      -5.637  -2.567   1.277  0.00  0.00    +0.069 A 
ATOM      3  C   UNL     1      -6.705  -1.726   1.233  0.00  0.00    +0.112 A 
ATOM      4  N   UNL     1      -7.377  -1.434   2.390  0.00  0.00    -0.315 N 
ATOM      5  H   UNL     1      -8.139  -0.835   2.370  0.00  0.00    +0.170 HD
ATOM      6  C   UNL     1      -6.976  -1.984   3.570  0.00  0.00    +0.200 A 
ATOM      7  N   UNL     1      -5.946  -2.801   3.625  0.00  0.00    -0.177 NA
ATOM      8  C   UNL     1      -5.255  -3.118   2.519  0.00  0.00    +0.280 A 
ATOM      9  O   UNL     1      -4.303  -3.881   2.587  0.00  0.00    -0.265 OA
ATOM     10  N   UNL     1      -7.656  -1.680   4.719  0.00  0.00    -0.301 N 
ATOM     11  C   UNL     1      -7.321  -2.346   5.985  0.00  0.00    +0.108 C 
ATOM     12  C   UNL     1      -7.047  -1.276   7.047  0.00  0.00    +0.019 C 
ATOM     13  C   UNL     1      -8.246  -0.329   7.133  0.00  0.00    +0.003 C 
ATOM     14  C   UNL     1      -8.445   0.368   5.785  0.00  0.00    +0.019 C 
ATOM     15  C   UNL     1      -8.731  -0.678   4.710  0.00  0.00    +0.108 C 
ATOM     16  N   UNL     1      -7.107  -1.179   0.036  0.00  0.00    -0.304 N 
ATOM     17  C   UNL     1      -6.720  -1.738  -1.151  0.00  0.00    +0.017 C 
ATOM     18  C   UNL     1      -5.663  -2.574  -1.205  0.00  0.00    +0.024 C 
ATOM     19  C   UNL     1      -5.269  -3.163  -2.420  0.00  0.00    +0.162 C 
ATOM     20  O   UNL     1      -4.309  -3.907  -2.437  0.00  0.00    -0.292 OA
ATOM     21  C   UNL     1      -6.013  -2.888  -3.698  0.00  0.00    +0.080 C 
ATOM     22  C   UNL     1      -7.474  -2.569  -3.366  0.00  0.00    +0.014 C 
ATOM     23  C   UNL     1      -7.502  -1.391  -2.395  0.00  0.00    +0.051 C 
ATOM     24  H   UNL     1      -7.670  -0.390   0.035  0.00  0.00    +0.153 HD
ENDROOT
BRANCH   1  28
ATOM     25  C   UNL     1      -1.218  -0.686  -0.011  0.00  0.00    +0.029 A 
ATOM     26  C   UNL     1      -1.188  -2.075  -0.005  0.00  0.00    +0.023 A 
ATOM     27  C   UNL     1      -2.370  -2.789   0.009  0.00  0.00    +0.006 A 
ATOM     28  C   UNL     1      -3.582  -2.123   0.018  0.00  0.00    -0.035 A 
ATOM     29  C   UNL     1      -3.615  -0.741   0.013  0.00  0.00    +0.006 A 
ATOM     30  C   UNL     1      -2.437  -0.021   0.004  0.00  0.00    +0.023 A 
BRANCH  25  32
ATOM     31  C   UNL     1      -0.057   1.504  -0.024  0.00  0.00    +0.129 C 
ATOM     32  N   UNL     1      -0.024   0.039  -0.025  0.00  0.00    -0.336 N 
ATOM     33  C   UNL     1       1.261  -0.665  -0.040  0.00  0.00    +0.129 C 
ENDBRANCH  25  32
ENDBRANCH   1  28
TORSDOF 2
