REMARK  Name = ZINC13369739
REMARK  10 active torsions:
REMARK  status: ('A' for Active; 'I' for Inactive)
REMARK    1  A    between atoms: C_1  and  C_2
REMARK    2  A    between atoms: N_4  and  C_5
REMARK    3  A    between atoms: C_7  and  O_38
REMARK    4  A    between atoms: C_15  and  C_18
REMARK    5  A    between atoms: C_25  and  O_27
REMARK    6  A    between atoms: O_27  and  C_28
REMARK    7  A    between atoms: C_31  and  C_34
REMARK    8  A    between atoms: C_34  and  C_35
REMARK    9  A    between atoms: C_34  and  C_36
REMARK   10  A    between atoms: C_34  and  C_37
REMARK                            x       y       z     vdW  Elec       q    Type
REMARK                         _______ _______ _______ _____ _____    ______ ____
ROOT
ATOM      1  C   UNL     1      -1.175   7.772   0.184  0.00  0.00    +0.173 C 
ATOM      2  C   UNL     1      -2.542   8.464   0.111  0.00  0.00    +0.172 C 
ATOM      3  C   UNL     1      -3.219   8.063  -1.199  0.00  0.00    +0.183 C 
ATOM      4  C   UNL     1      -3.351   6.535  -1.234  0.00  0.00    +0.179 C 
ATOM      5  C   UNL     1      -4.067   6.141  -2.527  0.00  0.00    +0.197 C 
ATOM      6  O   UNL     1      -5.319   6.836  -2.579  0.00  0.00    -0.345 OA
ATOM      7  C   UNL     1      -5.207   8.258  -2.502  0.00  0.00    +0.282 C 
ATOM      8  O   UNL     1      -4.522   8.635  -1.302  0.00  0.00    -0.339 OA
ATOM      9  O   UNL     1      -2.049   5.959  -1.169  0.00  0.00    -0.332 OA
ATOM     10  C   UNL     1      -1.356   6.259   0.047  0.00  0.00    +0.331 C 
ENDROOT
BRANCH   7  11
ATOM     11  C   UNL     1      -6.585   8.868  -2.504  0.00  0.00    +0.008 A 
ATOM     12  C   UNL     1      -7.002   9.636  -1.433  0.00  0.00    +0.008 A 
ATOM     13  C   UNL     1      -8.264  10.200  -1.437  0.00  0.00    +0.000 A 
ATOM     14  C   UNL     1      -9.113   9.987  -2.507  0.00  0.00    +0.000 A 
ATOM     15  C   UNL     1      -8.698   9.215  -3.576  0.00  0.00    +0.000 A 
ATOM     16  C   UNL     1      -7.434   8.655  -3.574  0.00  0.00    +0.008 A 
ENDBRANCH   7  11
BRANCH   1  20
ATOM     17  C   UNL     1       1.446   8.342   2.915  0.00  0.00    +0.109 C 
ATOM     18  C   UNL     1       0.797   8.032   1.591  0.00  0.00    +0.210 C 
ATOM     19  O   UNL     1       1.482   7.745   0.632  0.00  0.00    -0.276 OA
ATOM     20  N   UNL     1      -0.545   8.073   1.472  0.00  0.00    -0.304 N 
ATOM     21  H   UNL     1      -1.093   8.303   2.238  0.00  0.00    +0.149 HD
ENDBRANCH   1  20
BRANCH   2  22
ATOM     22  O   UNL     1      -2.365   9.882   0.146  0.00  0.00    -0.387 OA
ATOM     23  H   UNL     1      -1.926  10.204   0.945  0.00  0.00    +0.210 HD
ENDBRANCH   2  22
BRANCH  10  24
ATOM     24  O   UNL     1      -0.074   5.628   0.032  0.00  0.00    -0.462 OA
BRANCH  24  25
ATOM     25  C   UNL     1      -0.056   4.269   0.025  0.00  0.00    +0.124 A 
ATOM     26  C   UNL     1       1.154   3.591   0.010  0.00  0.00    +0.046 A 
ATOM     27  C   UNL     1       1.170   2.209   0.003  0.00  0.00    +0.008 A 
ATOM     28  C   UNL     1      -0.018   1.503   0.010  0.00  0.00    -0.042 A 
ATOM     29  C   UNL     1      -1.226   2.177   0.020  0.00  0.00    +0.008 A 
ATOM     30  C   UNL     1      -1.247   3.558   0.033  0.00  0.00    +0.046 A 
BRANCH  28  31
ATOM     31  C   UNL     1       0.002  -0.004   0.002  0.00  0.00    -0.013 C 
ATOM     32  C   UNL     1       0.742  -0.511   1.242  0.00  0.00    +0.015 C 
ATOM     33  C   UNL     1      -1.433  -0.534   0.013  0.00  0.00    +0.015 C 
ATOM     34  C   UNL     1       0.718  -0.497  -1.257  0.00  0.00    +0.015 C 
ENDBRANCH  28  31
ENDBRANCH  24  25
ENDBRANCH  10  24
TORSDOF 6
