REMARK  Name = ZINC03266985
REMARK  6 active torsions:
REMARK  status: ('A' for Active; 'I' for Inactive)
REMARK    1  A    between atoms: C_3  and  C_22
REMARK    2  A    between atoms: C_5  and  S_7
REMARK    3  A    between atoms: S_7  and  N_10
REMARK    4  A    between atoms: N_10  and  C_11
REMARK    5  A    between atoms: C_13  and  C_18
REMARK    6  A    between atoms: N_24  and  C_25
REMARK                            x       y       z     vdW  Elec       q    Type
REMARK                         _______ _______ _______ _____ _____    ______ ____
ROOT
ATOM      1  C   UNL     1       1.767   6.404   2.181  0.00  0.00    +0.003 A 
ATOM      2  C   UNL     1       1.705   7.490   3.029  0.00  0.00    +0.013 A 
ATOM      3  C   UNL     1       1.456   7.296   4.389  0.00  0.00    +0.039 A 
ATOM      4  C   UNL     1       1.273   6.002   4.881  0.00  0.00    +0.042 A 
ATOM      5  C   UNL     1       1.338   4.925   4.022  0.00  0.00    +0.109 A 
ATOM      6  C   UNL     1       1.590   5.124   2.676  0.00  0.00    +0.029 A 
ENDROOT
BRANCH   3   7
ATOM      7  C   UNL     1       1.389   8.455   5.304  0.00  0.00    +0.248 C 
ATOM      8  O   UNL     1       1.172   8.283   6.488  0.00  0.00    -0.270 OA
ATOM      9  N   UNL     1       1.566   9.702   4.826  0.00  0.00    -0.282 N 
ATOM     10  H   UNL     1       1.663   9.847   3.871  0.00  0.00    +0.155 HD
BRANCH   9  11
ATOM     11  C   UNL     1       1.611  10.789   5.705  0.00  0.00    +0.034 A 
ATOM     12  C   UNL     1       1.121  12.026   5.309  0.00  0.00    +0.025 A 
ATOM     13  C   UNL     1       1.161  13.096   6.181  0.00  0.00    +0.022 A 
ATOM     14  C   UNL     1       1.700  12.938   7.446  0.00  0.00    +0.041 A 
ATOM     15  C   UNL     1       2.195  11.708   7.842  0.00  0.00    +0.022 A 
ATOM     16  C   UNL     1       2.151  10.634   6.976  0.00  0.00    +0.025 A 
ATOM     17 CL   UNL     1       1.756  14.287   8.538  0.00  0.00    -0.084 Cl
ENDBRANCH   9  11
ENDBRANCH   3   7
BRANCH   5  18
ATOM     18  S   UNL     1       1.107   3.292   4.641  0.00  0.00    +0.072 S 
ATOM     19  O   UNL     1       1.433   3.332   6.024  0.00  0.00    -0.150 OA
ATOM     20  O   UNL     1       1.757   2.416   3.730  0.00  0.00    -0.150 OA
BRANCH  18  21
ATOM     21  N   UNL     1      -0.512   2.957   4.546  0.00  0.00    -0.215 N 
ATOM     22  H   UNL     1      -1.013   2.752   5.352  0.00  0.00    +0.174 HD
BRANCH  21  23
ATOM     23  C   UNL     1      -1.157   2.968   3.307  0.00  0.00    +0.067 A 
ATOM     24  C   UNL     1      -0.489   2.529   2.171  0.00  0.00    +0.038 A 
ATOM     25  C   UNL     1      -1.129   2.542   0.947  0.00  0.00    +0.057 A 
ATOM     26  C   UNL     1      -2.432   2.996   0.850  0.00  0.00    +0.014 A 
ATOM     27  C   UNL     1      -3.102   3.429   1.980  0.00  0.00    +0.022 A 
ATOM     28  C   UNL     1      -2.468   3.419   3.208  0.00  0.00    +0.063 A 
ATOM     29 CL   UNL     1      -3.307   3.969   4.624  0.00  0.00    -0.082 Cl
BRANCH  25  30
ATOM     30  C   UNL     1      -0.405   2.066  -0.286  0.00  0.00    +0.417 C 
ATOM     31  F   UNL     1      -0.619   0.693  -0.451  0.00  0.00    -0.166 F 
ATOM     32  F   UNL     1       0.965   2.311  -0.146  0.00  0.00    -0.166 F 
ATOM     33  F   UNL     1      -0.890   2.751  -1.405  0.00  0.00    -0.166 F 
ENDBRANCH  25  30
ENDBRANCH  21  23
ENDBRANCH  18  21
ENDBRANCH   5  18
TORSDOF 6
