REMARK  Name = ZINC13169088
REMARK  10 active torsions:
REMARK  status: ('A' for Active; 'I' for Inactive)
REMARK    1  A    between atoms: C_1  and  C_2
REMARK    2  A    between atoms: N_8  and  S_9
REMARK    3  A    between atoms: S_9  and  C_12
REMARK    4  A    between atoms: C_15  and  C_18
REMARK    5  A    between atoms: N_20  and  C_21
REMARK    6  A    between atoms: C_23  and  O_31
REMARK    7  A    between atoms: C_24  and  O_29
REMARK    8  A    between atoms: C_26  and  C_27
REMARK    9  A    between atoms: O_29  and  C_30
REMARK   10  A    between atoms: O_31  and  C_32
REMARK                            x       y       z     vdW  Elec       q    Type
REMARK                         _______ _______ _______ _____ _____    ______ ____
ROOT
ATOM      1  C   UNL     1       2.902   0.878  -0.208  0.00  0.00    +0.248 C 
ATOM      2  O   UNL     1       2.616  -0.263  -0.513  0.00  0.00    -0.270 OA
ATOM      3  N   UNL     1       1.935   1.738   0.169  0.00  0.00    -0.281 N 
ATOM      4  H   UNL     1       2.157   2.661   0.367  0.00  0.00    +0.155 HD
ENDROOT
BRANCH   1   8
ATOM      5  C   UNL     1       6.950   2.159  -0.335  0.00  0.00    +0.106 A 
ATOM      6  C   UNL     1       6.628   0.859  -0.682  0.00  0.00    +0.029 A 
ATOM      7  C   UNL     1       5.315   0.437  -0.643  0.00  0.00    +0.015 A 
ATOM      8  C   UNL     1       4.311   1.324  -0.252  0.00  0.00    +0.037 A 
ATOM      9  C   UNL     1       4.642   2.636   0.091  0.00  0.00    +0.015 A 
ATOM     10  C   UNL     1       5.959   3.044   0.053  0.00  0.00    +0.029 A 
BRANCH   5  11
ATOM     11  S   UNL     1       8.629   2.690  -0.388  0.00  0.00    +0.061 S 
ATOM     12  O   UNL     1       8.696   3.898   0.358  0.00  0.00    -0.153 OA
ATOM     13  O   UNL     1       9.424   1.555  -0.072  0.00  0.00    -0.153 OA
BRANCH  11  20
ATOM     14  C   UNL     1       7.948   5.242  -1.405  0.00  0.00    +0.026 C 
ATOM     15  C   UNL     1       8.542   4.375  -2.517  0.00  0.00    +0.077 C 
ATOM     16  C   UNL     1       9.768   5.077  -3.121  0.00  0.00    +0.020 C 
ATOM     17  C   UNL     1      10.434   4.144  -4.135  0.00  0.00    +0.003 C 
ATOM     18  C   UNL     1      10.907   2.872  -3.427  0.00  0.00    +0.017 C 
ATOM     19  C   UNL     1       9.699   2.148  -2.825  0.00  0.00    +0.110 C 
ATOM     20  N   UNL     1       8.969   3.085  -1.960  0.00  0.00    -0.174 NA
ENDBRANCH  11  20
ENDBRANCH   5  11
ENDBRANCH   1   8
BRANCH   3  21
ATOM     21  C   UNL     1       0.617   1.300   0.277  0.00  0.00    +0.052 A 
ATOM     22  C   UNL     1       0.144   0.304  -0.565  0.00  0.00    +0.073 A 
ATOM     23  C   UNL     1      -1.166  -0.131  -0.459  0.00  0.00    +0.163 A 
ATOM     24  C   UNL     1      -2.019   0.429   0.495  0.00  0.00    +0.162 A 
ATOM     25  C   UNL     1      -1.559   1.415   1.342  0.00  0.00    +0.066 A 
ATOM     26  C   UNL     1      -0.237   1.865   1.237  0.00  0.00    +0.088 A 
BRANCH  26  27
ATOM     27  C   UNL     1       0.257   2.922   2.134  0.00  0.00    +0.388 C 
ATOM     28  O   UNL     1       1.432   3.230   2.120  0.00  0.00    -0.241 OA
ATOM     29  O   UNL     1      -0.596   3.552   2.966  0.00  0.00    -0.241 OA
ENDBRANCH  26  27
BRANCH  24  30
ATOM     30  O   UNL     1      -3.305  -0.004   0.593  0.00  0.00    -0.491 OA
ATOM     31  C   UNL     1      -4.122   0.612   1.590  0.00  0.00    +0.277 C 
ENDBRANCH  24  30
BRANCH  23  32
ATOM     32  O   UNL     1      -1.624  -1.106  -1.285  0.00  0.00    -0.491 OA
ATOM     33  C   UNL     1      -0.700  -1.636  -2.238  0.00  0.00    +0.277 C 
ENDBRANCH  23  32
ENDBRANCH   3  21
TORSDOF 7
