REMARK  Name = ZINC12858083
REMARK  10 active torsions:
REMARK  status: ('A' for Active; 'I' for Inactive)
REMARK    1  A    between atoms: C_1  and  C_2
REMARK    2  A    between atoms: C_2  and  C_3
REMARK    3  A    between atoms: C_9  and  C_31
REMARK    4  A    between atoms: C_11  and  N_30
REMARK    5  A    between atoms: C_12  and  C_16
REMARK    6  A    between atoms: N_18  and  C_19
REMARK    7  A    between atoms: C_22  and  C_25
REMARK    8  A    between atoms: C_25  and  O_27
REMARK    9  A    between atoms: O_27  and  C_28
REMARK   10  A    between atoms: C_28  and  C_29
REMARK                            x       y       z     vdW  Elec       q    Type
REMARK                         _______ _______ _______ _____ _____    ______ ____
ROOT
ATOM      1  C   UNL     1       9.044  -0.745  -1.858  0.00  0.00    -0.007 C 
ATOM      2  C   UNL     1       8.494  -2.018  -2.513  0.00  0.00    +0.010 C 
ATOM      3  C   UNL     1       7.277  -2.482  -1.716  0.00  0.00    +0.056 C 
ATOM      4  C   UNL     1       6.302  -1.347  -1.529  0.00  0.00    +0.046 A 
ATOM      5  C   UNL     1       6.662  -0.023  -1.700  0.00  0.00    -0.013 A 
ATOM      6  C   UNL     1       5.729   0.977  -1.500  0.00  0.00    +0.071 A 
ATOM      7  C   UNL     1       4.409   0.637  -1.125  0.00  0.00    +0.041 A 
ATOM      8  C   UNL     1       3.279   1.516  -0.866  0.00  0.00    +0.054 A 
ATOM      9  C   UNL     1       2.075   0.946  -0.513  0.00  0.00    +0.097 A 
ATOM     10  S   UNL     1       2.430  -0.800  -0.510  0.00  0.00    -0.062 S 
ATOM     11  C   UNL     1       4.142  -0.743  -0.982  0.00  0.00    +0.112 A 
ATOM     12  N   UNL     1       5.061  -1.658  -1.181  0.00  0.00    -0.244 NA
ATOM     13  C   UNL     1       8.053   0.391  -2.105  0.00  0.00    +0.041 C 
ENDROOT
BRANCH   9  14
ATOM     14  C   UNL     1       0.850   1.593  -0.216  0.00  0.00    +0.257 C 
ATOM     15  O   UNL     1       0.777   2.808  -0.259  0.00  0.00    -0.269 OA
ATOM     16  N   UNL     1      -0.235   0.864   0.113  0.00  0.00    -0.281 N 
ATOM     17  H   UNL     1      -0.212  -0.102   0.033  0.00  0.00    +0.155 HD
BRANCH  16  18
ATOM     18  C   UNL     1      -1.390   1.499   0.563  0.00  0.00    +0.034 A 
ATOM     19  C   UNL     1      -1.778   2.713   0.003  0.00  0.00    +0.024 A 
ATOM     20  C   UNL     1      -2.921   3.341   0.441  0.00  0.00    +0.017 A 
ATOM     21  C   UNL     1      -3.688   2.763   1.457  0.00  0.00    +0.059 A 
ATOM     22  C   UNL     1      -3.293   1.546   2.021  0.00  0.00    +0.017 A 
ATOM     23  C   UNL     1      -2.151   0.921   1.575  0.00  0.00    +0.024 A 
BRANCH  21  24
ATOM     24  C   UNL     1      -4.911   3.435   1.933  0.00  0.00    +0.339 C 
ATOM     25  O   UNL     1      -5.577   2.931   2.816  0.00  0.00    -0.245 OA
BRANCH  24  26
ATOM     26  O   UNL     1      -5.291   4.608   1.388  0.00  0.00    -0.461 OA
BRANCH  26  27
ATOM     27  C   UNL     1      -6.506   5.212   1.905  0.00  0.00    +0.229 C 
ATOM     28  C   UNL     1      -6.774   6.527   1.171  0.00  0.00    +0.048 C 
ENDBRANCH  26  27
ENDBRANCH  24  26
ENDBRANCH  21  24
ENDBRANCH  16  18
ENDBRANCH   9  14
BRANCH   6  29
ATOM     29  C   UNL     1       6.118   2.422  -1.681  0.00  0.00    +0.418 C 
ATOM     30  F   UNL     1       6.390   2.992  -0.433  0.00  0.00    -0.166 F 
ATOM     31  F   UNL     1       7.258   2.501  -2.488  0.00  0.00    -0.166 F 
ATOM     32  F   UNL     1       5.066   3.114  -2.291  0.00  0.00    -0.166 F 
ENDBRANCH   6  29
BRANCH   8  33
ATOM     33  N   UNL     1       3.410   2.893  -0.972  0.00  0.00    -0.356 N 
ATOM     34  H   UNL     1       2.691   3.421  -1.354  0.00  0.00    +0.142 HD
ATOM     35  H   UNL     1       4.220   3.329  -0.662  0.00  0.00    +0.142 HD
ENDBRANCH   8  33
BRANCH   1  37
ATOM     36  C   UNL     1      11.420  -1.472  -2.122  0.00  0.00    +0.004 C 
ATOM     37  C   UNL     1      10.398  -0.390  -2.478  0.00  0.00    +0.000 C 
ENDBRANCH   1  37
TORSDOF 8
