REMARK  Name = ZINC12296652
REMARK  14 active torsions:
REMARK  status: ('A' for Active; 'I' for Inactive)
REMARK    1  A    between atoms: C_1  and  C_2
REMARK    2  A    between atoms: C_2  and  C_4
REMARK    3  A    between atoms: C_10  and  C_41
REMARK    4  A    between atoms: N_22  and  O_23
REMARK    5  A    between atoms: O_23  and  C_24
REMARK    6  A    between atoms: C_24  and  C_25
REMARK    7  A    between atoms: N_27  and  C_28
REMARK    8  A    between atoms: C_28  and  C_29
REMARK    9  A    between atoms: C_29  and  C_30
REMARK   10  A    between atoms: C_29  and  C_31
REMARK   11  A    between atoms: C_29  and  C_32
REMARK   12  A    between atoms: C_32  and  C_34
REMARK   13  A    between atoms: C_32  and  O_36
REMARK   14  A    between atoms: C_39  and  C_40
REMARK                            x       y       z     vdW  Elec       q    Type
REMARK                         _______ _______ _______ _____ _____    ______ ____
ROOT
ATOM      1  C   UNL     1      -3.616  -0.403  -2.522  0.00  0.00    +0.061 C 
ATOM      2  C   UNL     1      -4.117   0.946  -3.095  0.00  0.00    +0.012 C 
ATOM      3  C   UNL     1      -4.116   1.955  -1.914  0.00  0.00    +0.005 C 
ATOM      4  C   UNL     1      -3.144   1.307  -0.916  0.00  0.00    -0.001 C 
ATOM      5  C   UNL     1      -3.551  -0.183  -1.005  0.00  0.00    -0.019 C 
ATOM      6  C   UNL     1      -2.524  -1.004  -0.263  0.00  0.00    +0.008 C 
ATOM      7  C   UNL     1      -2.402  -0.540   1.185  0.00  0.00    +0.005 C 
ATOM      8  C   UNL     1      -2.309   0.962   1.408  0.00  0.00    +0.002 C 
ATOM      9  C   UNL     1      -3.236   1.767   0.514  0.00  0.00    -0.003 C 
ATOM     10  C   UNL     1      -3.039   3.275   0.631  0.00  0.00    +0.008 C 
ATOM     11  C   UNL     1      -1.579   3.644   0.354  0.00  0.00    +0.031 C 
ATOM     12  C   UNL     1      -0.755   2.922   1.408  0.00  0.00    -0.062 C 
ATOM     13  C   UNL     1       0.012   3.660   2.201  0.00  0.00    +0.026 C 
ATOM     14  C   UNL     1       0.798   2.967   3.241  0.00  0.00    +0.080 C 
ATOM     15  N   UNL     1       1.958   3.379   3.631  0.00  0.00    -0.089 NA
ATOM     16  C   UNL     1       0.131   1.728   3.811  0.00  0.00    +0.059 C 
ATOM     17  C   UNL     1      -0.155   0.783   2.651  0.00  0.00    +0.017 C 
ATOM     18  C   UNL     1      -0.867   1.433   1.476  0.00  0.00    -0.007 C 
ATOM     19  C   UNL     1      -0.113   0.914   0.245  0.00  0.00    +0.016 C 
ATOM     20  C   UNL     1      -4.944  -0.434  -0.427  0.00  0.00    +0.012 C 
ENDROOT
BRANCH   1  22
ATOM     21  C   UNL     1      -4.135  -2.940  -2.837  0.00  0.00    +0.086 C 
ATOM     22  C   UNL     1      -4.591  -1.504  -2.842  0.00  0.00    +0.134 C 
ATOM     23  O   UNL     1      -5.739  -1.236  -3.103  0.00  0.00    -0.297 OA
ENDBRANCH   1  22
BRANCH  15  24
ATOM     24  O   UNL     1       2.525   4.543   3.059  0.00  0.00    -0.384 OA
BRANCH  24  25
ATOM     25  C   UNL     1       3.810   4.882   3.584  0.00  0.00    +0.358 C 
BRANCH  25  26
ATOM     26  C   UNL     1       4.316   6.130   2.908  0.00  0.00    +0.253 C 
ATOM     27  O   UNL     1       3.643   6.675   2.059  0.00  0.00    -0.272 OA
ATOM     28  N   UNL     1       5.517   6.640   3.246  0.00  0.00    -0.312 N 
ATOM     29  H   UNL     1       6.055   6.204   3.924  0.00  0.00    +0.149 HD
BRANCH  28  30
ATOM     30  C   UNL     1       6.009   7.853   2.588  0.00  0.00    +0.113 C 
BRANCH  30  31
ATOM     31  C   UNL     1       7.384   8.216   3.150  0.00  0.00    +0.017 C 
ATOM     32  C   UNL     1       7.271   8.463   4.656  0.00  0.00    +0.015 C 
ATOM     33  C   UNL     1       8.360   7.066   2.894  0.00  0.00    +0.015 C 
BRANCH  31  34
ATOM     34  C   UNL     1       7.898   9.483   2.463  0.00  0.00    +0.234 C 
BRANCH  34  35
ATOM     35  C   UNL     1       9.253   9.841   3.018  0.00  0.00    +0.384 C 
ATOM     36  O   UNL     1       9.400  10.866   3.640  0.00  0.00    -0.243 OA
ATOM     37  O   UNL     1      10.297   9.021   2.819  0.00  0.00    -0.243 OA
ENDBRANCH  34  35
BRANCH  34  38
ATOM     38  O   UNL     1       6.987  10.558   2.703  0.00  0.00    -0.380 OA
ATOM     39  H   UNL     1       6.866  10.770   3.638  0.00  0.00    +0.211 HD
ENDBRANCH  34  38
ENDBRANCH  31  34
ENDBRANCH  30  31
ENDBRANCH  28  30
ENDBRANCH  25  26
ENDBRANCH  24  25
ENDBRANCH  15  24
TORSDOF 9
