REMARK  Name = ZINC26884590
REMARK  7 active torsions:
REMARK  status: ('A' for Active; 'I' for Inactive)
REMARK    1  A    between atoms: C_1  and  C_2
REMARK    2  A    between atoms: C_6  and  C_7
REMARK    3  A    between atoms: N_9  and  C_10
REMARK    4  A    between atoms: C_13  and  N_17
REMARK    5  A    between atoms: C_18  and  C_20
REMARK    6  A    between atoms: C_23  and  S_26
REMARK    7  A    between atoms: S_26  and  C_29
REMARK                            x       y       z     vdW  Elec       q    Type
REMARK                         _______ _______ _______ _____ _____    ______ ____
ROOT
ATOM      1  C   UNL     1       2.339  -6.973  -0.324  0.00  0.00    +0.037 A 
ATOM      2  C   UNL     1       3.520  -6.282  -0.564  0.00  0.00    +0.045 A 
ATOM      3  C   UNL     1       3.547  -4.905  -0.462  0.00  0.00    +0.065 A 
ATOM      4  C   UNL     1       2.393  -4.210  -0.120  0.00  0.00    +0.071 A 
ATOM      5  C   UNL     1       1.214  -4.902   0.126  0.00  0.00    +0.065 A 
ATOM      6  C   UNL     1       1.186  -6.279   0.019  0.00  0.00    +0.045 A 
ATOM      7 CL   UNL     1      -0.226  -4.036   0.562  0.00  0.00    -0.082 Cl
ATOM      8 CL   UNL     1       5.023  -4.041  -0.763  0.00  0.00    -0.082 Cl
ENDROOT
BRANCH   1  11
ATOM      9  C   UNL     1       1.215  -8.988  -0.907  0.00  0.00    +0.255 C 
ATOM     10  O   UNL     1       0.218  -8.341  -1.171  0.00  0.00    -0.269 OA
ATOM     11  N   UNL     1       2.312  -8.369  -0.427  0.00  0.00    -0.281 N 
ATOM     12  H   UNL     1       3.185  -8.961  -0.115  0.00  0.00    +0.155 HD
BRANCH   9  18
ATOM     13  C   UNL     1      -1.133 -10.704  -1.979  0.00  0.00    +0.045 C 
ATOM     14  C   UNL     1       0.211 -11.260  -1.587  0.00  0.00    -0.031 A 
ATOM     15  C   UNL     1       0.490 -12.600  -1.686  0.00  0.00    +0.011 A 
ATOM     16  C   UNL     1       1.715 -13.053  -1.313  0.00  0.00    +0.046 A 
ATOM     17  S   UNL     1       2.535 -11.610  -0.812  0.00  0.00    -0.092 S 
ATOM     18  C   UNL     1       1.223 -10.439  -1.113  0.00  0.00    +0.077 A 
ENDBRANCH   9  18
ENDBRANCH   1  11
BRANCH   4  19
ATOM     19  N   UNL     1       2.421  -2.813  -0.016  0.00  0.00    -0.279 N 
ATOM     20  C   UNL     1       2.907  -2.072  -1.032  0.00  0.00    +0.248 C 
ATOM     21  O   UNL     1       3.414  -2.616  -1.993  0.00  0.00    -0.270 OA
ATOM     22  H   UNL     1       2.046  -2.322   0.893  0.00  0.00    +0.155 HD
BRANCH  20  23
ATOM     23  C   UNL     1       2.824  -0.597  -0.976  0.00  0.00    +0.037 A 
ATOM     24  C   UNL     1       3.327   0.173  -2.025  0.00  0.00    +0.015 A 
ATOM     25  C   UNL     1       3.246   1.549  -1.967  0.00  0.00    +0.027 A 
ATOM     26  C   UNL     1       2.669   2.166  -0.871  0.00  0.00    +0.088 A 
ATOM     27  C   UNL     1       2.169   1.407   0.173  0.00  0.00    +0.027 A 
ATOM     28  C   UNL     1       2.243   0.031   0.127  0.00  0.00    +0.015 A 
BRANCH  26  29
ATOM     29  S   UNL     1       2.571   3.924  -0.804  0.00  0.00    -0.006 S 
ATOM     30  O   UNL     1       2.533   4.232   0.583  0.00  0.00    -0.170 OA
ATOM     31  O   UNL     1       3.642   4.378  -1.619  0.00  0.00    -0.170 OA
ATOM     32  C   UNL     1       0.981   4.332  -1.577  0.00  0.00    +0.200 C 
ENDBRANCH  26  29
ENDBRANCH  20  23
ENDBRANCH   4  19
TORSDOF 5
