REMARK  Name = ZINC13679774
REMARK  10 active torsions:
REMARK  status: ('A' for Active; 'I' for Inactive)
REMARK    1  A    between atoms: C_1  and  C_2
REMARK    2  A    between atoms: C_2  and  C_3
REMARK    3  A    between atoms: C_3  and  C_5
REMARK    4  A    between atoms: C_3  and  N_6
REMARK    5  A    between atoms: C_7  and  C_9
REMARK    6  A    between atoms: C_14  and  N_15
REMARK    7  A    between atoms: C_16  and  C_18
REMARK    8  A    between atoms: N_21  and  S_29
REMARK    9  A    between atoms: S_29  and  C_32
REMARK   10  A    between atoms: C_32  and  C_33
REMARK                            x       y       z     vdW  Elec       q    Type
REMARK                         _______ _______ _______ _____ _____    ______ ____
ROOT
ATOM      1  C   UNL     1      -1.149   6.414  -0.322  0.00  0.00    +0.278 C 
ATOM      2  C   UNL     1      -1.760   6.362   1.086  0.00  0.00    +0.185 C 
ATOM      3  N   UNL     1      -2.972   7.200   1.076  0.00  0.00    -0.200 N 
ATOM      4  C   UNL     1      -2.909   8.431   0.403  0.00  0.00    +0.093 A 
ATOM      5  C   UNL     1      -3.901   9.379   0.594  0.00  0.00    +0.028 A 
ATOM      6  C   UNL     1      -3.836  10.588  -0.074  0.00  0.00    +0.002 A 
ATOM      7  C   UNL     1      -2.782  10.851  -0.929  0.00  0.00    +0.004 A 
ATOM      8  C   UNL     1      -1.789   9.909  -1.123  0.00  0.00    +0.047 A 
ATOM      9  C   UNL     1      -1.845   8.694  -0.457  0.00  0.00    +0.144 A 
ATOM     10  O   UNL     1      -0.863   7.775  -0.653  0.00  0.00    -0.476 OA
ENDROOT
BRANCH   1  12
ATOM     11  N   UNL     1       0.081   4.274  -0.162  0.00  0.00    -0.282 N 
ATOM     12  C   UNL     1       0.124   5.608  -0.350  0.00  0.00    +0.260 C 
ATOM     13  O   UNL     1       1.187   6.160  -0.542  0.00  0.00    -0.271 OA
ATOM     14  H   UNL     1      -0.773   3.822  -0.085  0.00  0.00    +0.155 HD
BRANCH  11  20
ATOM     15  C   UNL     1       1.329   2.244  -0.598  0.00  0.00    +0.058 A 
ATOM     16  C   UNL     1       2.521   1.521  -0.503  0.00  0.00    +0.015 A 
ATOM     17  C   UNL     1       3.626   2.092   0.090  0.00  0.00    +0.001 A 
ATOM     18  C   UNL     1       3.559   3.377   0.602  0.00  0.00    +0.002 A 
ATOM     19  C   UNL     1       2.387   4.102   0.521  0.00  0.00    +0.024 A 
ATOM     20  C   UNL     1       1.265   3.545  -0.078  0.00  0.00    +0.046 A 
BRANCH  15  22
ATOM     21  N   UNL     1       0.237   0.430  -1.823  0.00  0.00    -0.309 N 
ATOM     22  C   UNL     1       0.144   1.640  -1.236  0.00  0.00    +0.246 C 
ATOM     23  O   UNL     1      -0.916   2.236  -1.236  0.00  0.00    -0.270 OA
ATOM     24  H   UNL     1       1.084  -0.043  -1.826  0.00  0.00    +0.149 HD
BRANCH  21  25
ATOM     25  C   UNL     1      -0.940  -0.169  -2.456  0.00  0.00    +0.070 C 
ATOM     26  C   UNL     1      -1.766  -0.908  -1.402  0.00  0.00    +0.028 C 
BRANCH  25  28
ATOM     27  C   UNL     1       0.228  -0.398  -4.653  0.00  0.00    +0.005 C 
ATOM     28  C   UNL     1      -0.491  -1.156  -3.536  0.00  0.00    +0.018 C 
ENDBRANCH  25  28
ENDBRANCH  21  25
ENDBRANCH  15  22
ENDBRANCH  11  20
ENDBRANCH   1  12
BRANCH   3  29
ATOM     29  S   UNL     1      -4.360   6.708   1.833  0.00  0.00    +0.050 S 
ATOM     30  O   UNL     1      -5.406   7.375   1.139  0.00  0.00    -0.155 OA
ATOM     31  O   UNL     1      -4.285   5.289   1.840  0.00  0.00    -0.155 OA
BRANCH  29  32
ATOM     32  C   UNL     1      -4.222   7.351   3.523  0.00  0.00    +0.224 C 
BRANCH  32  33
ATOM     33  C   UNL     1      -5.446   6.958   4.311  0.00  0.00    -0.025 A 
ATOM     34  C   UNL     1      -6.548   7.791   4.337  0.00  0.00    +0.005 A 
ATOM     35  C   UNL     1      -7.672   7.429   5.056  0.00  0.00    +0.000 A 
ATOM     36  C   UNL     1      -7.689   6.237   5.756  0.00  0.00    +0.000 A 
ATOM     37  C   UNL     1      -6.585   5.406   5.735  0.00  0.00    +0.000 A 
ATOM     38  C   UNL     1      -5.463   5.766   5.012  0.00  0.00    +0.005 A 
ENDBRANCH  32  33
ENDBRANCH  29  32
ENDBRANCH   3  29
TORSDOF 8
