REMARK  Name = ZINC38811799
REMARK  7 active torsions:
REMARK  status: ('A' for Active; 'I' for Inactive)
REMARK    1  A    between atoms: C_4  and  C_7
REMARK    2  A    between atoms: N_15  and  C_24
REMARK    3  A    between atoms: C_16  and  C_18
REMARK    4  A    between atoms: C_24  and  C_25
REMARK    5  A    between atoms: C_25  and  C_26
REMARK    6  A    between atoms: N_28  and  N_29
REMARK    7  A    between atoms: C_30  and  C_31
REMARK                            x       y       z     vdW  Elec       q    Type
REMARK                         _______ _______ _______ _____ _____    ______ ____
ROOT
ATOM      1  C   UNL     1       3.750  -0.643   0.002  0.00  0.00    +0.076 C 
ATOM      2  C   UNL     1       3.745  -1.604  -1.165  0.00  0.00    -0.017 A 
ATOM      3  C   UNL     1       3.655  -1.378  -2.525  0.00  0.00    +0.006 A 
ATOM      4  C   UNL     1       3.671  -2.441  -3.409  0.00  0.00    +0.000 A 
ATOM      5  C   UNL     1       3.779  -3.733  -2.928  0.00  0.00    +0.002 A 
ATOM      6  C   UNL     1       3.870  -3.964  -1.572  0.00  0.00    +0.023 A 
ATOM      7  C   UNL     1       3.854  -2.895  -0.673  0.00  0.00    +0.034 A 
ATOM      8  N   UNL     1       3.932  -2.910   0.720  0.00  0.00    -0.321 N 
ATOM      9  C   UNL     1       3.877  -1.540   1.244  0.00  0.00    +0.115 C 
ENDROOT
BRANCH   1  13
ATOM     10  C   UNL     1       0.097   1.568   0.126  0.00  0.00    +0.000 A 
ATOM     11  C   UNL     1       1.286   2.178   0.480  0.00  0.00    +0.000 A 
ATOM     12  C   UNL     1       2.468   1.462   0.440  0.00  0.00    +0.004 A 
ATOM     13  C   UNL     1       2.461   0.137   0.046  0.00  0.00    -0.038 A 
ATOM     14  C   UNL     1       1.272  -0.473  -0.307  0.00  0.00    +0.004 A 
ATOM     15  C   UNL     1       0.090   0.243  -0.269  0.00  0.00    +0.000 A 
ENDBRANCH   1  13
BRANCH   9  16
ATOM     16  C   UNL     1       2.676  -1.369   2.138  0.00  0.00    -0.026 A 
ATOM     17  C   UNL     1       1.555  -2.156   1.948  0.00  0.00    +0.005 A 
ATOM     18  C   UNL     1       0.454  -1.999   2.768  0.00  0.00    +0.000 A 
ATOM     19  C   UNL     1       0.472  -1.056   3.778  0.00  0.00    +0.000 A 
ATOM     20  C   UNL     1       1.593  -0.269   3.968  0.00  0.00    +0.000 A 
ATOM     21  C   UNL     1       2.697  -0.429   3.151  0.00  0.00    +0.005 A 
ENDBRANCH   9  16
BRANCH   8  22
ATOM     22  C   UNL     1       4.054  -4.118   1.541  0.00  0.00    +0.115 C 
BRANCH  22  23
ATOM     23  C   UNL     1       5.534  -4.447   1.747  0.00  0.00    +0.116 C 
BRANCH  23  24
ATOM     24  C   UNL     1       5.659  -5.689   2.591  0.00  0.00    +0.234 C 
ATOM     25  O   UNL     1       4.663  -6.255   2.989  0.00  0.00    -0.274 OA
ATOM     26  N   UNL     1       6.878  -6.171   2.904  0.00  0.00    -0.207 N 
ATOM     27  H   UNL     1       7.675  -5.719   2.586  0.00  0.00    +0.177 HD
BRANCH  26  28
ATOM     28  N   UNL     1       6.994  -7.326   3.689  0.00  0.00    -0.188 NA
ATOM     29  C   UNL     1       8.178  -7.795   3.993  0.00  0.00    +0.136 C 
BRANCH  29  30
ATOM     30  C   UNL     1       8.295  -8.950   4.779  0.00  0.00    +0.000 C 
ATOM     31  C   UNL     1       9.470  -9.571   5.194  0.00  0.00    +0.004 A 
ATOM     32  C   UNL     1      10.834  -9.272   4.981  0.00  0.00    +0.010 A 
ATOM     33  C   UNL     1      11.790 -10.072   5.519  0.00  0.00    +0.001 A 
ATOM     34  C   UNL     1      11.461 -11.194   6.284  0.00  0.00    +0.002 A 
ATOM     35  C   UNL     1      10.175 -11.541   6.529  0.00  0.00    +0.026 A 
ATOM     36  C   UNL     1       9.118 -10.753   6.000  0.00  0.00    +0.043 A 
ATOM     37  N   UNL     1       7.811 -10.875   6.092  0.00  0.00    -0.380 N 
ATOM     38  C   UNL     1       7.170  -9.779   5.358  0.00  0.00    +0.150 C 
ATOM     39  H   UNL     1       7.345 -11.577   6.572  0.00  0.00    +0.160 HD
ENDBRANCH  29  30
ENDBRANCH  26  28
ENDBRANCH  23  24
ENDBRANCH  22  23
ENDBRANCH   8  22
TORSDOF 7
