REMARK  Name = ZINC35576981
REMARK  6 active torsions:
REMARK  status: ('A' for Active; 'I' for Inactive)
REMARK    1  A    between atoms: C_1  and  C_2
REMARK    2  A    between atoms: C_2  and  C_3
REMARK    3  A    between atoms: C_2  and  N_4
REMARK    4  A    between atoms: C_7  and  C_22
REMARK    5  A    between atoms: C_9  and  N_21
REMARK    6  A    between atoms: N_10  and  C_14
REMARK                            x       y       z     vdW  Elec       q    Type
REMARK                         _______ _______ _______ _____ _____    ______ ____
ROOT
ATOM      1  N   UNL     1      -1.198  -0.917   0.710  0.00  0.00    -0.311 N 
ATOM      2  C   UNL     1      -1.548  -2.004  -0.071  0.00  0.00    +0.218 A 
ATOM      3  N   UNL     1      -2.802  -2.443  -0.011  0.00  0.00    -0.214 NA
ATOM      4  C   UNL     1      -3.223  -3.479  -0.726  0.00  0.00    +0.089 A 
ATOM      5  C   UNL     1      -2.297  -4.127  -1.574  0.00  0.00    +0.086 A 
ATOM      6  C   UNL     1      -2.335  -5.203  -2.452  0.00  0.00    +0.131 A 
ATOM      7  N   UNL     1      -1.103  -5.340  -2.980  0.00  0.00    -0.216 N 
ATOM      8  N   UNL     1      -0.250  -4.361  -2.458  0.00  0.00    -0.144 NA
ATOM      9  C   UNL     1      -0.917  -3.608  -1.611  0.00  0.00    +0.189 A 
ATOM     10  N   UNL     1      -0.623  -2.545  -0.838  0.00  0.00    -0.193 NA
ATOM     11  H   UNL     1      -1.858  -0.499   1.284  0.00  0.00    +0.149 HD
ENDROOT
BRANCH   7  12
ATOM     12  C   UNL     1      -0.731  -6.316  -3.912  0.00  0.00    +0.068 A 
ATOM     13  C   UNL     1      -1.293  -7.585  -3.853  0.00  0.00    +0.029 A 
ATOM     14  C   UNL     1      -0.925  -8.546  -4.773  0.00  0.00    +0.022 A 
ATOM     15  C   UNL     1       0.004  -8.246  -5.755  0.00  0.00    +0.041 A 
ATOM     16  C   UNL     1       0.566  -6.983  -5.816  0.00  0.00    +0.022 A 
ATOM     17  C   UNL     1       0.197  -6.016  -4.902  0.00  0.00    +0.029 A 
ATOM     18 CL   UNL     1       0.465  -9.457  -6.910  0.00  0.00    -0.084 Cl
ENDBRANCH   7  12
BRANCH   4  19
ATOM     19  C   UNL     1      -4.625  -3.944  -0.637  0.00  0.00    +0.001 A 
ATOM     20  C   UNL     1      -4.903  -5.304  -0.494  0.00  0.00    +0.013 A 
ATOM     21  C   UNL     1      -6.211  -5.732  -0.411  0.00  0.00    +0.039 A 
ATOM     22  C   UNL     1      -7.249  -4.814  -0.470  0.00  0.00    +0.123 A 
ATOM     23  C   UNL     1      -6.977  -3.462  -0.611  0.00  0.00    +0.039 A 
ATOM     24  C   UNL     1      -5.672  -3.023  -0.689  0.00  0.00    +0.013 A 
ATOM     25  F   UNL     1      -8.529  -5.239  -0.389  0.00  0.00    -0.205 F 
ENDBRANCH   4  19
BRANCH   1  27
ATOM     26  C   UNL     1       0.169   1.077   1.074  0.00  0.00    +0.027 C 
ATOM     27  C   UNL     1       0.172  -0.398   0.669  0.00  0.00    +0.067 C 
ATOM     28  C   UNL     1       1.047  -1.192   1.640  0.00  0.00    +0.027 C 
ENDBRANCH   1  27
BRANCH   6  29
ATOM     29  N   UNL     1      -3.436  -5.991  -2.731  0.00  0.00    -0.342 N 
ATOM     30  H   UNL     1      -4.315  -5.724  -2.421  0.00  0.00    +0.144 HD
ATOM     31  H   UNL     1      -3.329  -6.811  -3.239  0.00  0.00    +0.144 HD
ENDBRANCH   6  29
TORSDOF 4
