REMARK  Name = ZINC12211601
REMARK  6 active torsions:
REMARK  status: ('A' for Active; 'I' for Inactive)
REMARK    1  A    between atoms: C_1  and  C_2
REMARK    2  A    between atoms: N_4  and  S_5
REMARK    3  A    between atoms: S_5  and  C_8
REMARK    4  A    between atoms: C_11  and  N_14
REMARK    5  A    between atoms: C_22  and  S_24
REMARK    6  A    between atoms: S_24  and  C_25
REMARK                            x       y       z     vdW  Elec       q    Type
REMARK                         _______ _______ _______ _____ _____    ______ ____
ROOT
ATOM      1  N   UNL     1      -6.721  -4.149   0.044  0.00  0.00    -0.299 N 
ATOM      2  C   UNL     1      -7.421  -4.262  -1.145  0.00  0.00    +0.136 A 
ATOM      3  C   UNL     1      -8.806  -4.593  -1.136  0.00  0.00    +0.051 A 
ATOM      4  C   UNL     1      -9.677  -4.854   0.012  0.00  0.00    -0.025 A 
ATOM      5  C   UNL     1     -10.965  -5.149  -0.253  0.00  0.00    -0.004 A 
ATOM      6  S   UNL     1     -11.098  -5.097  -2.020  0.00  0.00    -0.073 S 
ATOM      7  C   UNL     1      -9.417  -4.680  -2.402  0.00  0.00    +0.115 A 
ATOM      8  N   UNL     1      -8.739  -4.468  -3.514  0.00  0.00    -0.215 NA
ATOM      9  C   UNL     1      -7.449  -4.164  -3.462  0.00  0.00    +0.191 A 
ATOM     10  N   UNL     1      -6.812  -4.059  -2.301  0.00  0.00    -0.206 NA
ATOM     11  C   UNL     1     -12.048  -5.455   0.736  0.00  0.00    +0.043 C 
ATOM     12  C   UNL     1     -11.395  -5.751   2.094  0.00  0.00    +0.005 C 
ATOM     13  C   UNL     1     -10.365  -4.658   2.391  0.00  0.00    +0.005 C 
ATOM     14  C   UNL     1      -9.169  -4.802   1.450  0.00  0.00    +0.037 C 
ATOM     15  H   UNL     1      -7.153  -4.371   0.884  0.00  0.00    +0.154 HD
ENDROOT
BRANCH   1  19
ATOM     16  C   UNL     1      -2.762  -2.858   0.016  0.00  0.00    +0.113 A 
ATOM     17  C   UNL     1      -3.597  -2.499   1.058  0.00  0.00    +0.031 A 
ATOM     18  C   UNL     1      -4.911  -2.925   1.070  0.00  0.00    +0.025 A 
ATOM     19  C   UNL     1      -5.393  -3.716   0.034  0.00  0.00    +0.032 A 
ATOM     20  C   UNL     1      -4.551  -4.075  -1.011  0.00  0.00    +0.025 A 
ATOM     21  C   UNL     1      -3.240  -3.641  -1.020  0.00  0.00    +0.031 A 
BRANCH  16  22
ATOM     22  S   UNL     1      -1.087  -2.312   0.004  0.00  0.00    +0.102 S 
ATOM     23  O   UNL     1      -0.366  -3.231  -0.806  0.00  0.00    -0.146 OA
ATOM     24  O   UNL     1      -0.736  -2.049   1.355  0.00  0.00    -0.146 OA
BRANCH  22  28
ATOM     25  C   UNL     1       0.099   1.093  -1.655  0.00  0.00    +0.116 C 
ATOM     26  C   UNL     1       0.067  -0.232  -0.936  0.00  0.00    +0.262 C 
ATOM     27  O   UNL     1       1.208  -0.763  -0.451  0.00  0.00    -0.270 OA
ATOM     28  N   UNL     1      -1.052  -0.857  -0.786  0.00  0.00    -0.091 NA
ENDBRANCH  22  28
ENDBRANCH  16  22
ENDBRANCH   1  19
BRANCH   9  29
ATOM     29  S   UNL     1      -6.565  -3.886  -4.960  0.00  0.00    -0.089 S 
ATOM     30  C   UNL     1      -7.812  -4.125  -6.256  0.00  0.00    +0.093 C 
ENDBRANCH   9  29
TORSDOF 4
