REMARK  Name = ZINC59293545
REMARK  10 active torsions:
REMARK  status: ('A' for Active; 'I' for Inactive)
REMARK    1  A    between atoms: C_1  and  C_2
REMARK    2  A    between atoms: C_2  and  C_3
REMARK    3  A    between atoms: C_3  and  N_4
REMARK    4  A    between atoms: C_5  and  C_7
REMARK    5  A    between atoms: C_13  and  C_14
REMARK    6  A    between atoms: C_17  and  C_20
REMARK    7  A    between atoms: C_22  and  N_35
REMARK    8  A    between atoms: C_23  and  C_33
REMARK    9  A    between atoms: C_24  and  C_26
REMARK   10  A    between atoms: C_29  and  C_32
REMARK                            x       y       z     vdW  Elec       q    Type
REMARK                         _______ _______ _______ _____ _____    ______ ____
ROOT
ATOM      1  C   UNL     1       1.602  -3.997  -2.070  0.00  0.00    +0.057 C 
ATOM      2  C   UNL     1       2.287  -4.621  -3.064  0.00  0.00    +0.099 A 
ATOM      3  N   UNL     1       2.673  -5.946  -3.030  0.00  0.00    -0.257 N 
ATOM      4  C   UNL     1       3.349  -6.428  -4.092  0.00  0.00    +0.271 A 
ATOM      5  O   UNL     1       3.717  -7.587  -4.123  0.00  0.00    -0.266 OA
ATOM      6  C   UNL     1       3.631  -5.520  -5.212  0.00  0.00    +0.079 A 
ATOM      7  C   UNL     1       4.285  -5.763  -6.375  0.00  0.00    +0.028 C 
ATOM      8  S   UNL     1       2.881  -4.008  -4.628  0.00  0.00    -0.065 S 
ATOM      9  C   UNL     1       2.351  -6.721  -1.910  0.00  0.00    +0.118 C 
ATOM     10  C   UNL     1       1.675  -6.249  -0.840  0.00  0.00    +0.079 C 
ATOM     11  C   UNL     1       1.237  -4.798  -0.836  0.00  0.00    +0.100 C 
ENDROOT
BRANCH   7  12
ATOM     12  C   UNL     1       4.669  -7.138  -6.729  0.00  0.00    -0.024 A 
ATOM     13  C   UNL     1       3.775  -8.194  -6.520  0.00  0.00    +0.008 A 
ATOM     14  C   UNL     1       4.143  -9.479  -6.854  0.00  0.00    +0.004 A 
ATOM     15  C   UNL     1       5.393  -9.727  -7.395  0.00  0.00    -0.050 A 
ATOM     16  C   UNL     1       6.283  -8.688  -7.604  0.00  0.00    +0.004 A 
ATOM     17  C   UNL     1       5.928  -7.396  -7.281  0.00  0.00    +0.008 A 
ATOM     18  C   UNL     1       5.786 -11.136  -7.757  0.00  0.00    +0.044 C 
ENDBRANCH   7  12
BRANCH  11  19
ATOM     19  C   UNL     1      -0.261  -4.762  -0.676  0.00  0.00    -0.035 A 
ATOM     20  C   UNL     1      -1.075  -5.268  -1.672  0.00  0.00    +0.005 A 
ATOM     21  C   UNL     1      -2.449  -5.235  -1.525  0.00  0.00    +0.003 A 
ATOM     22  C   UNL     1      -3.009  -4.696  -0.382  0.00  0.00    -0.050 A 
ATOM     23  C   UNL     1      -2.195  -4.190   0.614  0.00  0.00    +0.003 A 
ATOM     24  C   UNL     1      -0.821  -4.227   0.469  0.00  0.00    +0.005 A 
ATOM     25  C   UNL     1      -4.508  -4.658  -0.223  0.00  0.00    +0.044 C 
ENDBRANCH  11  19
BRANCH   1  27
ATOM     26  N   UNL     1       0.570  -2.040  -1.183  0.00  0.00    -0.312 N 
ATOM     27  C   UNL     1       1.245  -2.644  -2.181  0.00  0.00    +0.244 C 
ATOM     28  O   UNL     1       1.546  -2.014  -3.181  0.00  0.00    -0.270 OA
ATOM     29  H   UNL     1       0.331  -2.541  -0.388  0.00  0.00    +0.149 HD
BRANCH  26  30
ATOM     30  C   UNL     1       0.198  -0.628  -1.299  0.00  0.00    +0.104 C 
BRANCH  30  32
ATOM     31  C   UNL     1      -0.942   1.281  -0.160  0.00  0.00    +0.005 C 
ATOM     32  C   UNL     1      -0.554  -0.194  -0.039  0.00  0.00    +0.015 C 
ENDBRANCH  30  32
ENDBRANCH  26  30
ENDBRANCH   1  27
BRANCH   9  33
ATOM     33  N   UNL     1       2.745  -8.037  -1.898  0.00  0.00    -0.343 N 
ATOM     34  H   UNL     1       3.534  -8.312  -2.391  0.00  0.00    +0.144 HD
ATOM     35  H   UNL     1       2.235  -8.692  -1.397  0.00  0.00    +0.144 HD
ENDBRANCH   9  33
BRANCH  10  36
ATOM     36  C   UNL     1       1.381  -7.103   0.271  0.00  0.00    +0.099 C 
ATOM     37  N   UNL     1       1.147  -7.780   1.153  0.00  0.00    -0.191 NA
ENDBRANCH  10  36
TORSDOF 7
