REMARK  Name = ZINC39665315
REMARK  9 active torsions:
REMARK  status: ('A' for Active; 'I' for Inactive)
REMARK    1  A    between atoms: C_1  and  C_2
REMARK    2  A    between atoms: C_2  and  C_4
REMARK    3  A    between atoms: C_2  and  O_34
REMARK    4  A    between atoms: C_4  and  N_5
REMARK    5  A    between atoms: C_6  and  C_8
REMARK    6  A    between atoms: C_19  and  C_21
REMARK    7  A    between atoms: C_26  and  O_27
REMARK    8  A    between atoms: O_27  and  C_28
REMARK    9  A    between atoms: O_34  and  C_35
REMARK                            x       y       z     vdW  Elec       q    Type
REMARK                         _______ _______ _______ _____ _____    ______ ____
ROOT
ATOM      1  C   UNL     1       0.457  -3.653   1.815  0.00  0.00    +0.100 C 
ATOM      2  C   UNL     1       1.138  -4.209   0.544  0.00  0.00    +0.121 C 
ATOM      3  N   UNL     1       2.530  -4.499   0.962  0.00  0.00    -0.296 N 
ATOM      4  C   UNL     1       2.396  -5.058   2.328  0.00  0.00    +0.115 C 
ATOM      5  C   UNL     1       1.283  -4.216   2.984  0.00  0.00    -0.004 C 
ATOM      6  C   UNL     1       1.894  -3.077   3.796  0.00  0.00    -0.010 C 
ATOM      7  C   UNL     1       2.664  -3.660   4.984  0.00  0.00    -0.082 C 
ATOM      8  N   UNL     1       1.752  -4.449   5.821  0.00  0.00    +0.379 N 
ATOM      9  C   UNL     1       1.240  -5.596   5.060  0.00  0.00    -0.082 C 
ATOM     10  C   UNL     1       0.410  -5.095   3.874  0.00  0.00    -0.010 C 
ATOM     11  C   UNL     1       3.662  -4.300   0.258  0.00  0.00    +0.252 C 
ATOM     12  O   UNL     1       4.731  -4.654   0.714  0.00  0.00    -0.270 OA
ATOM     13  H   UNL     1       2.247  -4.781   6.635  0.00  0.00    -0.086 HD
ATOM     14  H   UNL     1       0.979  -3.869   6.113  0.00  0.00    -0.086 HD
ENDROOT
BRANCH  11  15
ATOM     15  C   UNL     1       3.603  -3.652  -1.066  0.00  0.00    +0.099 A 
ATOM     16  C   UNL     1       2.527  -3.891  -1.929  0.00  0.00    +0.020 A 
ATOM     17  C   UNL     1       2.518  -3.259  -3.159  0.00  0.00    +0.021 A 
ATOM     18  C   UNL     1       3.563  -2.417  -3.499  0.00  0.00    +0.114 A 
ATOM     19  N   UNL     1       4.567  -2.207  -2.671  0.00  0.00    -0.220 NA
ATOM     20  C   UNL     1       4.621  -2.781  -1.481  0.00  0.00    +0.233 A 
BRANCH  20  21
ATOM     21  O   UNL     1       5.669  -2.532  -0.660  0.00  0.00    -0.437 OA
BRANCH  21  22
ATOM     22  C   UNL     1       6.581  -1.603  -1.053  0.00  0.00    +0.130 A 
ATOM     23  C   UNL     1       7.819  -2.005  -1.533  0.00  0.00    +0.046 A 
ATOM     24  C   UNL     1       8.744  -1.060  -1.932  0.00  0.00    +0.004 A 
ATOM     25  C   UNL     1       8.436   0.286  -1.855  0.00  0.00    +0.000 A 
ATOM     26  C   UNL     1       7.202   0.689  -1.377  0.00  0.00    +0.004 A 
ATOM     27  C   UNL     1       6.272  -0.253  -0.981  0.00  0.00    +0.046 A 
ENDBRANCH  21  22
ENDBRANCH  20  21
ENDBRANCH  11  15
BRANCH   1  29
ATOM     28  N   UNL     1      -0.367  -1.449   2.578  0.00  0.00    -0.312 N 
ATOM     29  C   UNL     1       0.501  -2.147   1.819  0.00  0.00    +0.218 C 
ATOM     30  O   UNL     1       1.317  -1.563   1.138  0.00  0.00    -0.275 OA
ATOM     31  H   UNL     1      -1.019  -1.916   3.123  0.00  0.00    +0.149 HD
BRANCH  28  32
ATOM     32  C   UNL     1      -0.324   0.015   2.582  0.00  0.00    +0.148 C 
BRANCH  32  34
ATOM     33  C   UNL     1      -1.361   2.084   3.523  0.00  0.00    +0.053 C 
ATOM     34  C   UNL     1      -1.405   0.555   3.520  0.00  0.00    +0.187 C 
BRANCH  34  35
ATOM     35  O   UNL     1      -2.689   0.117   3.069  0.00  0.00    -0.488 OA
BRANCH  35  36
ATOM     36  C   UNL     1      -3.621  -0.145   4.023  0.00  0.00    +0.121 A 
ATOM     37  C   UNL     1      -4.844  -0.695   3.666  0.00  0.00    +0.045 A 
ATOM     38  C   UNL     1      -5.790  -0.960   4.637  0.00  0.00    +0.004 A 
ATOM     39  C   UNL     1      -5.519  -0.678   5.964  0.00  0.00    +0.000 A 
ATOM     40  C   UNL     1      -4.301  -0.130   6.321  0.00  0.00    +0.004 A 
ATOM     41  C   UNL     1      -3.349   0.132   5.355  0.00  0.00    +0.045 A 
ENDBRANCH  35  36
ENDBRANCH  34  35
ENDBRANCH  32  34
ENDBRANCH  28  32
ENDBRANCH   1  29
TORSDOF 8
