REMARK  Name = ZINC64775297
REMARK  4 active torsions:
REMARK  status: ('A' for Active; 'I' for Inactive)
REMARK    1  A    between atoms: C_3  and  C_32
REMARK    2  A    between atoms: C_5  and  N_7
REMARK    3  A    between atoms: C_13  and  C_15
REMARK    4  A    between atoms: C_20  and  C_28
REMARK                            x       y       z     vdW  Elec       q    Type
REMARK                         _______ _______ _______ _____ _____    ______ ____
ROOT
ATOM      1  N   UNL     1       1.238  -2.077  -0.021  0.00  0.00    -0.327 N 
ATOM      2  C   UNL     1       2.510  -2.804  -0.141  0.00  0.00    +0.124 C 
ATOM      3  C   UNL     1       2.635  -3.771   1.042  0.00  0.00    +0.127 C 
ATOM      4  N   UNL     1       1.388  -4.540   1.155  0.00  0.00    -0.296 N 
ATOM      5  C   UNL     1       0.117  -3.813   1.276  0.00  0.00    +0.127 C 
ATOM      6  C   UNL     1      -0.009  -2.846   0.098  0.00  0.00    +0.124 C 
ATOM      7  C   UNL     1       1.410  -5.888   1.148  0.00  0.00    +0.252 C 
ATOM      8  O   UNL     1       2.465  -6.476   1.047  0.00  0.00    -0.272 OA
ENDROOT
BRANCH   7   9
ATOM      9  C   UNL     1       0.123  -6.663   1.264  0.00  0.00    +0.247 C 
ATOM     10  N   UNL     1       0.353  -8.055   0.887  0.00  0.00    -0.319 N 
ATOM     11  C   UNL     1       1.101  -8.943   1.657  0.00  0.00    +0.056 A 
ATOM     12  C   UNL     1       1.651 -10.067   1.042  0.00  0.00    +0.037 A 
ATOM     13  C   UNL     1       2.382 -10.973   1.780  0.00  0.00    +0.057 A 
ATOM     14  C   UNL     1       2.575 -10.775   3.135  0.00  0.00    +0.014 A 
ATOM     15  C   UNL     1       2.038  -9.659   3.751  0.00  0.00    +0.031 A 
ATOM     16  C   UNL     1       1.313  -8.746   3.014  0.00  0.00    +0.126 A 
ATOM     17  S   UNL     1       0.663  -7.301   3.797  0.00  0.00    +0.062 S 
ATOM     18  O   UNL     1      -0.153  -7.744   4.874  0.00  0.00    -0.153 OA
ATOM     19  O   UNL     1       1.748  -6.401   3.975  0.00  0.00    -0.153 OA
ATOM     20  N   UNL     1      -0.356  -6.620   2.661  0.00  0.00    -0.161 NA
ATOM     21  H   UNL     1      -0.035  -8.378   0.059  0.00  0.00    +0.148 HD
ATOM     22  H   UNL     1      -1.209  -6.225   2.901  0.00  0.00    +0.151 HD
BRANCH  13  23
ATOM     23  C   UNL     1       2.974 -12.185   1.107  0.00  0.00    +0.417 C 
ATOM     24  F   UNL     1       4.258 -11.880   0.643  0.00  0.00    -0.166 F 
ATOM     25  F   UNL     1       3.048 -13.238   2.025  0.00  0.00    -0.166 F 
ATOM     26  F   UNL     1       2.165 -12.561   0.029  0.00  0.00    -0.166 F 
ENDBRANCH  13  23
ENDBRANCH   7   9
BRANCH   1  31
ATOM     27  C   UNL     1       2.380   1.415   0.004  0.00  0.00    +0.002 A 
ATOM     28  C   UNL     1       1.171   2.086   0.002  0.00  0.00    +0.012 A 
ATOM     29  C   UNL     1      -0.016   1.377  -0.007  0.00  0.00    +0.057 A 
ATOM     30  C   UNL     1       0.002  -0.004  -0.015  0.00  0.00    +0.035 A 
ATOM     31  C   UNL     1       1.215  -0.681  -0.013  0.00  0.00    +0.030 A 
ATOM     32  C   UNL     1       2.406   0.035  -0.004  0.00  0.00    +0.023 A 
BRANCH  29  33
ATOM     33  C   UNL     1      -1.332   2.112  -0.008  0.00  0.00    +0.417 C 
ATOM     34  F   UNL     1      -1.096   3.491   0.001  0.00  0.00    -0.166 F 
ATOM     35  F   UNL     1      -2.056   1.770  -1.155  0.00  0.00    -0.166 F 
ATOM     36  F   UNL     1      -2.065   1.757   1.129  0.00  0.00    -0.166 F 
ENDBRANCH  29  33
ENDBRANCH   1  31
TORSDOF 4
