REMARK  Name = ZINC33260009
REMARK  12 active torsions:
REMARK  status: ('A' for Active; 'I' for Inactive)
REMARK    1  A    between atoms: C_1  and  C_2
REMARK    2  A    between atoms: C_4  and  C_34
REMARK    3  A    between atoms: C_5  and  S_9
REMARK    4  A    between atoms: C_6  and  C_8
REMARK    5  A    between atoms: S_9  and  N_12
REMARK    6  A    between atoms: N_12  and  C_13
REMARK    7  A    between atoms: C_16  and  N_22
REMARK    8  A    between atoms: C_18  and  C_19
REMARK    9  A    between atoms: N_25  and  C_28
REMARK   10  A    between atoms: C_28  and  C_29
REMARK   11  A    between atoms: N_31  and  C_32
REMARK   12  A    between atoms: N_31  and  C_33
REMARK                            x       y       z     vdW  Elec       q    Type
REMARK                         _______ _______ _______ _____ _____    ______ ____
ROOT
ATOM      1  C   UNL     1       0.463  -5.150   1.875  0.00  0.00    +0.062 A 
ATOM      2  C   UNL     1      -0.283  -4.758   2.980  0.00  0.00    +0.027 A 
ATOM      3  C   UNL     1       0.339  -4.517   4.186  0.00  0.00    +0.025 A 
ATOM      4  C   UNL     1       1.718  -4.666   4.310  0.00  0.00    +0.031 A 
ATOM      5  C   UNL     1       2.476  -5.056   3.221  0.00  0.00    +0.040 A 
ATOM      6  C   UNL     1       1.853  -5.308   1.994  0.00  0.00    +0.087 A 
ENDROOT
BRANCH   4   7
ATOM      7  N   UNL     1       2.339  -4.418   5.540  0.00  0.00    -0.327 N 
ATOM      8  C   UNL     1       3.804  -4.442   5.664  0.00  0.00    +0.120 C 
ATOM      9  C   UNL     1       4.256  -3.148   6.350  0.00  0.00    +0.104 C 
ATOM     10  N   UNL     1       3.527  -2.989   7.616  0.00  0.00    -0.291 NA
ATOM     11  C   UNL     1       2.084  -2.846   7.386  0.00  0.00    +0.104 C 
ATOM     12  C   UNL     1       1.543  -4.121   6.741  0.00  0.00    +0.120 C 
BRANCH  10  13
ATOM     13  C   UNL     1       4.053  -1.854   8.386  0.00  0.00    +0.180 C 
BRANCH  13  14
ATOM     14  C   UNL     1       3.458  -1.868   9.771  0.00  0.00    +0.229 C 
ATOM     15  O   UNL     1       2.674  -2.738  10.085  0.00  0.00    -0.274 OA
ATOM     16  N   UNL     1       3.798  -0.913  10.660  0.00  0.00    -0.307 N 
ATOM     17  C   UNL     1       3.220  -0.927  12.006  0.00  0.00    +0.131 C 
ATOM     18  C   UNL     1       4.745   0.138  10.280  0.00  0.00    +0.131 C 
ENDBRANCH  13  14
ENDBRANCH  10  13
ENDBRANCH   4   7
BRANCH   6  19
ATOM     19  C   UNL     1       2.651  -5.729   0.833  0.00  0.00    +0.388 C 
ATOM     20  O   UNL     1       3.863  -5.865   0.940  0.00  0.00    -0.241 OA
ATOM     21  O   UNL     1       2.104  -5.944  -0.240  0.00  0.00    -0.241 OA
ENDBRANCH   6  19
BRANCH   1  22
ATOM     22  N   UNL     1      -0.165  -5.392   0.659  0.00  0.00    -0.215 N 
ATOM     23  H   UNL     1       0.139  -6.118   0.092  0.00  0.00    +0.174 HD
BRANCH  22  24
ATOM     24  S   UNL     1      -1.433  -4.441   0.179  0.00  0.00    +0.073 S 
ATOM     25  O   UNL     1      -2.302  -4.327   1.297  0.00  0.00    -0.150 OA
ATOM     26  O   UNL     1      -1.867  -4.946  -1.076  0.00  0.00    -0.150 OA
BRANCH  24  31
ATOM     27  C   UNL     1       0.776   1.078  -0.856  0.00  0.00    +0.044 C 
ATOM     28  C   UNL     1       0.225  -0.300  -0.598  0.00  0.00    -0.050 A 
ATOM     29  C   UNL     1      -0.486  -0.554   0.560  0.00  0.00    +0.008 A 
ATOM     30  C   UNL     1      -0.993  -1.819   0.797  0.00  0.00    -0.023 A 
ATOM     31  C   UNL     1      -0.788  -2.829  -0.124  0.00  0.00    +0.114 A 
ATOM     32  C   UNL     1      -0.078  -2.574  -1.282  0.00  0.00    -0.023 A 
ATOM     33  C   UNL     1       0.424  -1.309  -1.521  0.00  0.00    +0.008 A 
ATOM     34  C   UNL     1       0.145  -3.676  -2.286  0.00  0.00    +0.046 C 
ATOM     35  C   UNL     1      -1.767  -2.096   2.060  0.00  0.00    +0.046 C 
ENDBRANCH  24  31
ENDBRANCH  22  24
ENDBRANCH   1  22
TORSDOF 7
