REMARK  Name = ZINC09396240
REMARK  10 active torsions:
REMARK  status: ('A' for Active; 'I' for Inactive)
REMARK    1  A    between atoms: C_1  and  C_2
REMARK    2  A    between atoms: C_5  and  C_8
REMARK    3  A    between atoms: N_10  and  N_11
REMARK    4  A    between atoms: C_12  and  C_14
REMARK    5  A    between atoms: C_14  and  S_15
REMARK    6  A    between atoms: S_15  and  C_16
REMARK    7  A    between atoms: C_19  and  C_28
REMARK    8  A    between atoms: N_20  and  C_21
REMARK    9  A    between atoms: C_28  and  C_30
REMARK   10  A    between atoms: C_28  and  N_64
REMARK                            x       y       z     vdW  Elec       q    Type
REMARK                         _______ _______ _______ _____ _____    ______ ____
ROOT
ATOM      1  C   UNL     1       7.574   1.264  -0.064  0.00  0.00    +0.197 A 
ATOM      2  N   UNL     1       7.524  -0.048  -0.070  0.00  0.00    -0.122 NA
ATOM      3  N   UNL     1       8.714  -0.531  -0.085  0.00  0.00    -0.135 NA
ATOM      4  C   UNL     1       9.590   0.434  -0.088  0.00  0.00    +0.125 A 
ATOM      5  N   UNL     1       8.896   1.614  -0.080  0.00  0.00    -0.275 N 
ENDROOT
BRANCH   5   6
ATOM      6  C   UNL     1       9.430   2.912  -0.084  0.00  0.00    +0.050 A 
ATOM      7  C   UNL     1      10.155   3.362  -1.179  0.00  0.00    +0.029 A 
ATOM      8  C   UNL     1      10.674   4.641  -1.184  0.00  0.00    +0.040 A 
ATOM      9  C   UNL     1      10.483   5.471  -0.092  0.00  0.00    +0.124 A 
ATOM     10  C   UNL     1       9.766   5.022   1.004  0.00  0.00    +0.040 A 
ATOM     11  C   UNL     1       9.239   3.745   1.010  0.00  0.00    +0.029 A 
ATOM     12  F   UNL     1      10.997   6.721  -0.096  0.00  0.00    -0.205 F 
ENDBRANCH   5   6
BRANCH   4  13
ATOM     13  C   UNL     1      11.089   0.279  -0.104  0.00  0.00    -0.002 C 
ATOM     14  C   UNL     1      11.544  -0.138  -1.504  0.00  0.00    -0.005 C 
BRANCH  13  20
ATOM     15  C   UNL     1      10.978  -0.434   2.207  0.00  0.00    -0.078 C 
ATOM     16  C   UNL     1      11.283  -1.594   3.157  0.00  0.00    -0.019 C 
ATOM     17  C   UNL     1      12.796  -1.824   3.205  0.00  0.00    -0.004 C 
ATOM     18  C   UNL     1      13.307  -2.104   1.789  0.00  0.00    -0.019 C 
ATOM     19  C   UNL     1      12.943  -0.929   0.878  0.00  0.00    -0.078 C 
ATOM     20  N   UNL     1      11.473  -0.776   0.857  0.00  0.00    +0.386 N 
ATOM     21  H   UNL     1      11.050  -1.665   0.563  0.00  0.00    -0.081 HD
ENDBRANCH  13  20
ENDBRANCH   4  13
BRANCH   1  22
ATOM     22  S   UNL     1       6.199   2.366  -0.044  0.00  0.00    -0.076 S 
BRANCH  22  23
ATOM     23  C   UNL     1       4.839   1.171  -0.038  0.00  0.00    +0.174 C 
BRANCH  23  25
ATOM     24  N   UNL     1       2.366   1.217  -0.014  0.00  0.00    -0.233 N 
ATOM     25  C   UNL     1       3.524   1.907  -0.021  0.00  0.00    +0.239 C 
ATOM     26  O   UNL     1       3.508   3.119  -0.015  0.00  0.00    -0.273 OA
ATOM     27  H   UNL     1       2.379   0.247  -0.019  0.00  0.00    +0.173 HD
BRANCH  24  30
ATOM     28  C   UNL     1      -0.014   1.211   0.009  0.00  0.00    +0.260 C 
ATOM     29  O   UNL     1       0.002  -0.004   0.002  0.00  0.00    -0.269 OA
ATOM     30  N   UNL     1       1.143   1.901   0.001  0.00  0.00    -0.230 N 
ATOM     31  H   UNL     1       1.130   2.871   0.007  0.00  0.00    +0.173 HD
BRANCH  28  36
ATOM     32  C   UNL     1      -5.037   4.021   0.049  0.00  0.00    +0.044 C 
ATOM     33  C   UNL     1      -3.721   3.285   0.038  0.00  0.00    -0.050 A 
ATOM     34  C   UNL     1      -3.706   1.901   0.030  0.00  0.00    +0.004 A 
ATOM     35  C   UNL     1      -2.506   1.222   0.021  0.00  0.00    +0.013 A 
ATOM     36  C   UNL     1      -1.305   1.933   0.019  0.00  0.00    +0.038 A 
ATOM     37  C   UNL     1      -1.327   3.329   0.032  0.00  0.00    +0.013 A 
ATOM     38  C   UNL     1      -2.534   3.996   0.037  0.00  0.00    +0.004 A 
ENDBRANCH  28  36
ENDBRANCH  24  30
ENDBRANCH  23  25
ENDBRANCH  22  23
ENDBRANCH   1  22
TORSDOF 8
