REMARK  Name = ZINC39676774
REMARK  10 active torsions:
REMARK  status: ('A' for Active; 'I' for Inactive)
REMARK    1  A    between atoms: C_1  and  C_2
REMARK    2  A    between atoms: C_5  and  O_8
REMARK    3  A    between atoms: O_8  and  C_9
REMARK    4  A    between atoms: C_10  and  C_15
REMARK    5  A    between atoms: C_19  and  C_28
REMARK    6  A    between atoms: N_30  and  C_31
REMARK    7  A    between atoms: C_31  and  C_33
REMARK    8  A    between atoms: C_31  and  C_34
REMARK    9  A    between atoms: C_38  and  O_40
REMARK   10  A    between atoms: O_40  and  C_41
REMARK                            x       y       z     vdW  Elec       q    Type
REMARK                         _______ _______ _______ _____ _____    ______ ____
ROOT
ATOM      1  C   UNL     1       0.284  -6.854  -0.109  0.00  0.00    +0.252 C 
ATOM      2  O   UNL     1       0.248  -6.280  -1.180  0.00  0.00    -0.270 OA
ATOM      3  N   UNL     1       0.311  -8.201  -0.067  0.00  0.00    -0.296 N 
ATOM      4  C   UNL     1       0.427  -9.070   1.127  0.00  0.00    +0.121 C 
ATOM      5  C   UNL     1      -0.526 -10.252   0.844  0.00  0.00    +0.100 C 
ATOM      6  C   UNL     1      -0.649 -10.299  -0.689  0.00  0.00    -0.004 C 
ATOM      7  C   UNL     1       0.226  -9.147  -1.205  0.00  0.00    +0.115 C 
ATOM      8  C   UNL     1      -0.135 -11.634  -1.220  0.00  0.00    -0.010 C 
ATOM      9  C   UNL     1      -0.321 -11.679  -2.739  0.00  0.00    -0.082 C 
ATOM     10  N   UNL     1      -1.742 -11.515  -3.065  0.00  0.00    +0.379 N 
ATOM     11  C   UNL     1      -2.205 -10.191  -2.634  0.00  0.00    -0.082 C 
ATOM     12  C   UNL     1      -2.099 -10.082  -1.110  0.00  0.00    -0.010 C 
ATOM     13  H   UNL     1      -1.870 -11.606  -4.062  0.00  0.00    -0.086 HD
ATOM     14  H   UNL     1      -2.279 -12.228  -2.594  0.00  0.00    -0.086 HD
ENDROOT
BRANCH   1  16
ATOM     15  C   UNL     1      -0.432  -4.883   1.252  0.00  0.00    +0.233 A 
ATOM     16  C   UNL     1       0.297  -6.077   1.144  0.00  0.00    +0.099 A 
ATOM     17  C   UNL     1       1.037  -6.517   2.248  0.00  0.00    +0.020 A 
ATOM     18  C   UNL     1       1.016  -5.752   3.400  0.00  0.00    +0.021 A 
ATOM     19  C   UNL     1       0.273  -4.586   3.430  0.00  0.00    +0.114 A 
ATOM     20  N   UNL     1      -0.414  -4.186   2.376  0.00  0.00    -0.220 NA
BRANCH  15  21
ATOM     21  O   UNL     1      -1.156  -4.438   0.197  0.00  0.00    -0.437 OA
BRANCH  21  26
ATOM     22  C   UNL     1      -3.658   0.589   0.636  0.00  0.00    +0.044 C 
ATOM     23  C   UNL     1      -2.989  -0.756   0.519  0.00  0.00    -0.050 A 
ATOM     24  C   UNL     1      -1.609  -0.842   0.514  0.00  0.00    +0.007 A 
ATOM     25  C   UNL     1      -0.993  -2.074   0.407  0.00  0.00    +0.046 A 
ATOM     26  C   UNL     1      -1.760  -3.225   0.303  0.00  0.00    +0.130 A 
ATOM     27  C   UNL     1      -3.144  -3.136   0.308  0.00  0.00    +0.046 A 
ATOM     28  C   UNL     1      -3.756  -1.903   0.422  0.00  0.00    +0.007 A 
ENDBRANCH  21  26
ENDBRANCH  15  21
ENDBRANCH   1  16
BRANCH   5  29
ATOM     29  C   UNL     1       0.062 -11.538   1.365  0.00  0.00    +0.219 C 
ATOM     30  O   UNL     1       1.264 -11.648   1.489  0.00  0.00    -0.275 OA
ATOM     31  N   UNL     1      -0.746 -12.566   1.692  0.00  0.00    -0.308 N 
ATOM     32  H   UNL     1      -1.707 -12.477   1.592  0.00  0.00    +0.149 HD
BRANCH  31  33
ATOM     33  C   UNL     1      -0.174 -13.815   2.198  0.00  0.00    +0.100 C 
ATOM     34  C   UNL     1       0.234 -14.703   1.021  0.00  0.00    +0.033 C 
BRANCH  33  35
ATOM     35  C   UNL     1      -1.199 -14.534   3.038  0.00  0.00    -0.024 A 
ATOM     36  C   UNL     1      -2.523 -14.562   2.637  0.00  0.00    +0.005 A 
ATOM     37  C   UNL     1      -3.466 -15.220   3.405  0.00  0.00    +0.004 A 
ATOM     38  C   UNL     1      -3.088 -15.851   4.574  0.00  0.00    +0.045 A 
ATOM     39  C   UNL     1      -1.761 -15.824   4.978  0.00  0.00    +0.120 A 
ATOM     40  C   UNL     1      -0.815 -15.168   4.203  0.00  0.00    +0.051 A 
BRANCH  39  41
ATOM     41  O   UNL     1      -1.387 -16.444   6.128  0.00  0.00    -0.495 OA
ATOM     42  C   UNL     1      -2.413 -17.104   6.872  0.00  0.00    +0.277 C 
ENDBRANCH  39  41
ENDBRANCH  33  35
ENDBRANCH  31  33
ENDBRANCH   5  29
TORSDOF 7
