REMARK  Name = ZINC00714903
REMARK  4 active torsions:
REMARK  status: ('A' for Active; 'I' for Inactive)
REMARK    1  A    between atoms: C_6  and  C_7
REMARK    2  A    between atoms: C_10  and  C_30
REMARK    3  A    between atoms: C_15  and  C_17
REMARK    4  A    between atoms: N_19  and  C_20
REMARK                            x       y       z     vdW  Elec       q    Type
REMARK                         _______ _______ _______ _____ _____    ______ ____
ROOT
ATOM      1  C   UNL     1      -1.268  -0.762   0.004  0.00  0.00    +0.104 C 
ATOM      2  C   UNL     1      -1.558  -1.250   1.427  0.00  0.00    +0.063 C 
ATOM      3  C   UNL     1      -0.389  -2.099   1.937  0.00  0.00    +0.215 C 
ATOM      4  N   UNL     1      -0.062  -3.111   0.928  0.00  0.00    -0.238 N 
ATOM      5  C   UNL     1      -0.433  -3.020  -0.384  0.00  0.00    +0.119 A 
ATOM      6  C   UNL     1       0.025  -4.113  -1.026  0.00  0.00    +0.078 A 
ATOM      7  C   UNL     1       0.708  -4.910  -0.079  0.00  0.00    +0.149 A 
ATOM      8  N   UNL     1       0.650  -4.298   1.091  0.00  0.00    -0.164 NA
ATOM      9  N   UNL     1      -1.165  -1.935  -0.887  0.00  0.00    -0.322 N 
ATOM     10  H   UNL     1      -1.579  -1.952  -1.763  0.00  0.00    +0.148 HD
ENDROOT
BRANCH   1  16
ATOM     11  C   UNL     1       0.019   1.385  -0.012  0.00  0.00    +0.007 A 
ATOM     12  C   UNL     1       1.209   2.087  -0.028  0.00  0.00    +0.022 A 
ATOM     13  C   UNL     1       2.413   1.407  -0.046  0.00  0.00    +0.059 A 
ATOM     14  C   UNL     1       2.426   0.023  -0.049  0.00  0.00    +0.060 A 
ATOM     15  C   UNL     1       1.234  -0.679  -0.033  0.00  0.00    +0.027 A 
ATOM     16  C   UNL     1       0.031   0.003  -0.014  0.00  0.00    -0.026 A 
ATOM     17 CL   UNL     1       3.936  -0.832  -0.072  0.00  0.00    -0.082 Cl
ATOM     18 CL   UNL     1       3.909   2.289  -0.067  0.00  0.00    -0.082 Cl
ENDBRANCH   1  16
BRANCH   7  19
ATOM     19  C   UNL     1       1.370  -6.202  -0.350  0.00  0.00    +0.268 C 
ATOM     20  O   UNL     1       1.356  -6.668  -1.473  0.00  0.00    -0.268 OA
ATOM     21  N   UNL     1       1.989  -6.864   0.647  0.00  0.00    -0.280 N 
ATOM     22  H   UNL     1       2.058  -6.462   1.527  0.00  0.00    +0.155 HD
BRANCH  21  23
ATOM     23  C   UNL     1       2.533  -8.133   0.412  0.00  0.00    +0.037 A 
ATOM     24  C   UNL     1       2.498  -9.098   1.410  0.00  0.00    +0.027 A 
ATOM     25  C   UNL     1       3.034 -10.351   1.180  0.00  0.00    +0.051 A 
ATOM     26  C   UNL     1       3.607 -10.648  -0.046  0.00  0.00    +0.166 A 
ATOM     27  C   UNL     1       3.643  -9.682  -1.048  0.00  0.00    +0.168 A 
ATOM     28  C   UNL     1       3.102  -8.428  -0.819  0.00  0.00    +0.072 A 
ATOM     29  O   UNL     1       4.254 -10.215  -2.147  0.00  0.00    -0.453 OA
ATOM     30  C   UNL     1       4.955 -11.379  -1.670  0.00  0.00    +0.466 C 
ATOM     31  O   UNL     1       4.195 -11.787  -0.516  0.00  0.00    -0.453 OA
ENDBRANCH  21  23
ENDBRANCH   7  19
BRANCH   3  32
ATOM     32  C   UNL     1      -0.786  -2.787   3.245  0.00  0.00    +0.412 C 
ATOM     33  F   UNL     1      -1.896  -3.609   3.021  0.00  0.00    -0.168 F 
ATOM     34  F   UNL     1       0.282  -3.562   3.708  0.00  0.00    -0.168 F 
ATOM     35  F   UNL     1      -1.109  -1.818   4.201  0.00  0.00    -0.168 F 
ENDBRANCH   3  32
TORSDOF 4
