REMARK  Name = ZINC01508389
REMARK  7 active torsions:
REMARK  status: ('A' for Active; 'I' for Inactive)
REMARK    1  A    between atoms: C_1  and  C_2
REMARK    2  A    between atoms: C_3  and  C_20
REMARK    3  A    between atoms: C_4  and  C_10
REMARK    4  A    between atoms: C_20  and  O_22
REMARK    5  A    between atoms: O_22  and  C_23
REMARK    6  A    between atoms: C_23  and  C_24
REMARK    7  A    between atoms: C_24  and  C_25
REMARK                            x       y       z     vdW  Elec       q    Type
REMARK                         _______ _______ _______ _____ _____    ______ ____
ROOT
ATOM      1  C   UNL     1       0.528   1.692  -0.596  0.00  0.00    +0.061 C 
ATOM      2  C   UNL     1       0.411   0.203  -0.388  0.00  0.00    +0.021 C 
ATOM      3  C   UNL     1      -0.812  -0.365  -0.322  0.00  0.00    +0.078 C 
ATOM      4  C   UNL     1      -0.883  -1.864  -0.112  0.00  0.00    +0.145 C 
ATOM      5  N   UNL     1       0.397  -2.583   0.004  0.00  0.00    -0.288 N 
ATOM      6  C   UNL     1       1.540  -1.875  -0.082  0.00  0.00    +0.304 C 
ATOM      7  O   UNL     1       2.602  -2.459   0.012  0.00  0.00    -0.252 OA
ATOM      8  N   UNL     1       1.545  -0.549  -0.275  0.00  0.00    -0.273 N 
ATOM      9  H   UNL     1       0.417  -3.543   0.140  0.00  0.00    +0.151 HD
ATOM     10  H   UNL     1       2.402  -0.098  -0.332  0.00  0.00    +0.156 HD
ENDROOT
BRANCH   4  11
ATOM     11  C   UNL     1      -1.647  -2.459  -1.266  0.00  0.00    -0.005 A 
ATOM     12  C   UNL     1      -0.969  -2.897  -2.389  0.00  0.00    +0.056 A 
ATOM     13  C   UNL     1      -1.668  -3.444  -3.452  0.00  0.00    +0.167 A 
ATOM     14  C   UNL     1      -3.055  -3.552  -3.387  0.00  0.00    +0.167 A 
ATOM     15  C   UNL     1      -3.728  -3.112  -2.259  0.00  0.00    +0.065 A 
ATOM     16  C   UNL     1      -3.023  -2.572  -1.198  0.00  0.00    +0.027 A 
ATOM     17 BR   UNL     1      -3.944  -1.979   0.343  0.00  0.00    -0.050 Br
ATOM     18  O   UNL     1      -3.504  -4.117  -4.545  0.00  0.00    -0.453 OA
ATOM     19  C   UNL     1      -2.422  -3.978  -5.485  0.00  0.00    +0.466 C 
ATOM     20  O   UNL     1      -1.248  -3.941  -4.652  0.00  0.00    -0.453 OA
ENDBRANCH   4  11
BRANCH   3  21
ATOM     21  C   UNL     1      -1.987   0.413  -0.444  0.00  0.00    +0.339 C 
ATOM     22  O   UNL     1      -2.578   0.460  -1.507  0.00  0.00    -0.245 OA
BRANCH  21  23
ATOM     23  O   UNL     1      -2.453   1.103   0.618  0.00  0.00    -0.455 OA
BRANCH  23  24
ATOM     24  C   UNL     1      -3.693   1.793   0.450  0.00  0.00    +0.317 C 
BRANCH  24  25
ATOM     25  C   UNL     1      -4.120   2.408   1.784  0.00  0.00    +0.374 C 
ATOM     26  F   UNL     1      -5.335   3.081   1.620  0.00  0.00    -0.192 F 
ATOM     27  F   UNL     1      -4.273   1.394   2.736  0.00  0.00    -0.192 F 
BRANCH  25  28
ATOM     28  C   UNL     1      -3.050   3.394   2.257  0.00  0.00    +0.457 C 
ATOM     29  F   UNL     1      -2.951   4.449   1.343  0.00  0.00    -0.165 F 
ATOM     30  F   UNL     1      -3.402   3.897   3.514  0.00  0.00    -0.165 F 
ATOM     31  F   UNL     1      -1.818   2.737   2.346  0.00  0.00    -0.165 F 
ENDBRANCH  25  28
ENDBRANCH  24  25
ENDBRANCH  23  24
ENDBRANCH  21  23
ENDBRANCH   3  21
TORSDOF 6
