REMARK  Name = ZINC02077754
REMARK  24 active torsions:
REMARK  status: ('A' for Active; 'I' for Inactive)
REMARK    1  A    between atoms: C_1  and  C_2
REMARK    2  A    between atoms: C_2  and  C_3
REMARK    3  A    between atoms: C_2  and  N_4
REMARK    4  A    between atoms: C_7  and  C_34
REMARK    5  A    between atoms: C_8  and  C_30
REMARK    6  A    between atoms: N_11  and  C_27
REMARK    7  A    between atoms: C_14  and  C_21
REMARK    8  A    between atoms: C_15  and  C_17
REMARK    9  A    between atoms: C_17  and  C_18
REMARK   10  A    between atoms: C_17  and  C_19
REMARK   11  A    between atoms: C_17  and  C_20
REMARK   12  A    between atoms: C_21  and  C_23
REMARK   13  A    between atoms: C_23  and  C_24
REMARK   14  A    between atoms: C_23  and  C_25
REMARK   15  A    between atoms: C_23  and  C_26
REMARK   16  A    between atoms: C_27  and  C_28
REMARK   17  A    between atoms: C_27  and  C_29
REMARK   18  A    between atoms: C_30  and  C_31
REMARK   19  A    between atoms: C_30  and  C_32
REMARK   20  A    between atoms: C_30  and  C_33
REMARK   21  A    between atoms: C_34  and  C_36
REMARK   22  A    between atoms: C_36  and  C_37
REMARK   23  A    between atoms: C_36  and  C_38
REMARK   24  A    between atoms: C_36  and  C_39
REMARK                            x       y       z     vdW  Elec       q    Type
REMARK                         _______ _______ _______ _____ _____    ______ ____
ROOT
ATOM      1  N   UNL     1       1.128  -6.888  -1.739  0.00  0.00    -0.205 N 
ATOM      2  C   UNL     1       2.201  -7.704  -1.818  0.00  0.00    +0.260 C 
ATOM      3  O   UNL     1       2.135  -8.761  -2.416  0.00  0.00    -0.269 OA
ATOM      4  C   UNL     1       3.456  -7.284  -1.165  0.00  0.00    +0.118 C 
ATOM      5  C   UNL     1       3.417  -6.202  -0.306  0.00  0.00    +0.127 C 
ATOM      6  O   UNL     1       2.242  -5.600  -0.063  0.00  0.00    -0.423 OA
ATOM      7  C   UNL     1       1.271  -5.557  -1.141  0.00  0.00    +0.429 C 
ATOM      8  N   UNL     1      -0.026  -5.129  -0.607  0.00  0.00    -0.205 N 
ATOM      9  C   UNL     1      -0.298  -3.813  -0.490  0.00  0.00    +0.260 C 
ATOM     10  O   UNL     1      -1.314  -3.436   0.063  0.00  0.00    -0.269 OA
ATOM     11  C   UNL     1       0.659  -2.841  -1.052  0.00  0.00    +0.118 C 
ATOM     12  C   UNL     1       1.671  -3.314  -1.866  0.00  0.00    +0.127 C 
ATOM     13  O   UNL     1       1.721  -4.623  -2.156  0.00  0.00    -0.423 OA
ENDROOT
BRANCH  12  14
ATOM     14  C   UNL     1       2.707  -2.370  -2.421  0.00  0.00    +0.021 C 
ATOM     15  C   UNL     1       3.128  -1.379  -1.335  0.00  0.00    +0.019 C 
ATOM     16  C   UNL     1       3.928  -3.168  -2.885  0.00  0.00    +0.019 C 
ATOM     17  C   UNL     1       2.117  -1.606  -3.608  0.00  0.00    +0.019 C 
ENDBRANCH  12  14
BRANCH   5  18
ATOM     18  C   UNL     1       4.678  -5.703   0.350  0.00  0.00    +0.021 C 
ATOM     19  C   UNL     1       5.810  -5.670  -0.679  0.00  0.00    +0.019 C 
ATOM     20  C   UNL     1       4.446  -4.293   0.897  0.00  0.00    +0.019 C 
ATOM     21  C   UNL     1       5.061  -6.639   1.498  0.00  0.00    +0.019 C 
ENDBRANCH   5  18
BRANCH   1  23
ATOM     22  C   UNL     1      -0.107  -7.463  -3.771  0.00  0.00    +0.028 C 
ATOM     23  C   UNL     1      -0.173  -7.331  -2.248  0.00  0.00    +0.079 C 
ATOM     24  C   UNL     1      -0.526  -8.687  -1.634  0.00  0.00    +0.028 C 
ENDBRANCH   1  23
BRANCH   8  25
ATOM     25  C   UNL     1      -1.018  -6.126  -0.196  0.00  0.00    +0.079 C 
ATOM     26  C   UNL     1      -1.194  -6.075   1.323  0.00  0.00    +0.028 C 
ATOM     27  C   UNL     1      -2.356  -5.824  -0.875  0.00  0.00    +0.028 C 
ENDBRANCH   8  25
BRANCH  11  28
ATOM     28  C   UNL     1       0.544  -1.416  -0.751  0.00  0.00    +0.177 C 
ATOM     29  O   UNL     1       0.372  -0.618  -1.649  0.00  0.00    -0.291 OA
BRANCH  28  30
ATOM     30  C   UNL     1       0.639  -0.937   0.674  0.00  0.00    +0.025 C 
ATOM     31  C   UNL     1       0.570   0.592   0.705  0.00  0.00    +0.019 C 
ATOM     32  C   UNL     1       1.966  -1.399   1.280  0.00  0.00    +0.019 C 
ATOM     33  C   UNL     1      -0.521  -1.516   1.486  0.00  0.00    +0.019 C 
ENDBRANCH  28  30
ENDBRANCH  11  28
BRANCH   4  34
ATOM     34  C   UNL     1       4.707  -7.994  -1.419  0.00  0.00    +0.177 C 
ATOM     35  O   UNL     1       5.279  -8.561  -0.510  0.00  0.00    -0.291 OA
BRANCH  34  36
ATOM     36  C   UNL     1       5.288  -8.023  -2.809  0.00  0.00    +0.025 C 
ATOM     37  C   UNL     1       6.657  -8.707  -2.776  0.00  0.00    +0.019 C 
ATOM     38  C   UNL     1       4.352  -8.799  -3.737  0.00  0.00    +0.019 C 
ATOM     39  C   UNL     1       5.447  -6.591  -3.325  0.00  0.00    +0.019 C 
ENDBRANCH  34  36
ENDBRANCH   4  34
TORSDOF 8
