REMARK  Name = ZINC08758116
REMARK  7 active torsions:
REMARK  status: ('A' for Active; 'I' for Inactive)
REMARK    1  A    between atoms: C_4  and  C_7
REMARK    2  A    between atoms: C_7  and  C_8
REMARK    3  A    between atoms: C_7  and  N_75
REMARK    4  A    between atoms: C_24  and  C_27
REMARK    5  A    between atoms: N_29  and  C_30
REMARK    6  A    between atoms: C_33  and  O_36
REMARK    7  A    between atoms: O_36  and  C_37
REMARK                            x       y       z     vdW  Elec       q    Type
REMARK                         _______ _______ _______ _____ _____    ______ ____
ROOT
ATOM      1  C   UNL     1       5.441   8.668  -1.261  0.00  0.00    -0.058 C 
ATOM      2  C   UNL     1       4.398   9.647  -1.809  0.00  0.00    +0.089 C 
ATOM      3  N   UNL     1       3.249   9.669  -0.890  0.00  0.00    -0.309 N 
ATOM      4  C   UNL     1       3.507   9.892   0.540  0.00  0.00    +0.089 C 
ATOM      5  C   UNL     1       4.586   8.897   0.997  0.00  0.00    -0.058 C 
ATOM      6  C   UNL     1       1.980   9.492  -1.353  0.00  0.00    +0.175 C 
ATOM      7  N   UNL     1       1.770   9.298  -2.645  0.00  0.00    -0.151 NA
ATOM      8  C   UNL     1       0.555   9.140  -3.152  0.00  0.00    +0.241 C 
ATOM      9  O   UNL     1       0.429   8.941  -4.344  0.00  0.00    -0.274 OA
ATOM     10  C   UNL     1      -0.672   9.204  -2.280  0.00  0.00    +0.129 C 
ATOM     11  C   UNL     1      -0.291   8.778  -0.855  0.00  0.00    +0.168 C 
ATOM     12  N   UNL     1       0.927   9.515  -0.480  0.00  0.00    -0.307 N 
ATOM     13  H   UNL     1       0.981  10.002   0.357  0.00  0.00    +0.149 HD
ATOM     14  N   UNL     1       5.772   9.055   0.128  0.00  0.00    +0.389 N 
ATOM     15  H   UNL     1       6.064  10.040   0.138  0.00  0.00    -0.080 HD
ENDROOT
BRANCH  11  16
ATOM     16  C   UNL     1      -0.024   7.296  -0.818  0.00  0.00    +0.238 C 
ATOM     17  O   UNL     1       1.117   6.884  -0.857  0.00  0.00    -0.273 OA
ATOM     18  N   UNL     1      -1.052   6.427  -0.744  0.00  0.00    -0.284 N 
ATOM     19  H   UNL     1      -1.959   6.756  -0.645  0.00  0.00    +0.155 HD
BRANCH  18  20
ATOM     20  C   UNL     1      -0.810   5.049  -0.809  0.00  0.00    +0.034 A 
ATOM     21  C   UNL     1       0.231   4.562  -1.587  0.00  0.00    +0.027 A 
ATOM     22  C   UNL     1       0.469   3.204  -1.651  0.00  0.00    +0.048 A 
ATOM     23  C   UNL     1      -0.332   2.325  -0.936  0.00  0.00    +0.129 A 
ATOM     24  C   UNL     1      -1.376   2.810  -0.162  0.00  0.00    +0.048 A 
ATOM     25  C   UNL     1      -1.612   4.169  -0.094  0.00  0.00    +0.027 A 
BRANCH  23  26
ATOM     26  O   UNL     1      -0.097   0.987  -0.999  0.00  0.00    -0.456 OA
BRANCH  26  27
ATOM     27  C   UNL     1      -0.970   0.156  -0.371  0.00  0.00    +0.128 A 
ATOM     28  C   UNL     1      -0.581  -0.523   0.775  0.00  0.00    +0.046 A 
ATOM     29  C   UNL     1      -1.468  -1.371   1.409  0.00  0.00    +0.004 A 
ATOM     30  C   UNL     1      -2.743  -1.544   0.901  0.00  0.00    +0.000 A 
ATOM     31  C   UNL     1      -3.133  -0.869  -0.241  0.00  0.00    +0.004 A 
ATOM     32  C   UNL     1      -2.250  -0.020  -0.878  0.00  0.00    +0.046 A 
ENDBRANCH  26  27
ENDBRANCH  23  26
ENDBRANCH  18  20
ENDBRANCH  11  16
BRANCH  14  33
ATOM     33  C   UNL     1       6.882   8.221   0.633  0.00  0.00    -0.007 C 
BRANCH  33  37
ATOM     34  C   UNL     1      10.276   8.745  -1.908  0.00  0.00    +0.000 A 
ATOM     35  C   UNL     1       9.915   7.478  -1.490  0.00  0.00    +0.000 A 
ATOM     36  C   UNL     1       8.817   7.308  -0.668  0.00  0.00    +0.002 A 
ATOM     37  C   UNL     1       8.080   8.406  -0.264  0.00  0.00    -0.057 A 
ATOM     38  C   UNL     1       8.437   9.672  -0.686  0.00  0.00    +0.002 A 
ATOM     39  C   UNL     1       9.538   9.843  -1.505  0.00  0.00    +0.000 A 
ENDBRANCH  33  37
BRANCH  33  40
ATOM     40  C   UNL     1       7.228   8.663   2.031  0.00  0.00    -0.057 A 
ATOM     41  C   UNL     1       7.257  10.010   2.342  0.00  0.00    +0.002 A 
ATOM     42  C   UNL     1       7.570  10.415   3.626  0.00  0.00    +0.000 A 
ATOM     43  C   UNL     1       7.864   9.475   4.596  0.00  0.00    +0.000 A 
ATOM     44  C   UNL     1       7.840   8.129   4.283  0.00  0.00    +0.000 A 
ATOM     45  C   UNL     1       7.523   7.723   3.001  0.00  0.00    +0.002 A 
ENDBRANCH  33  40
ENDBRANCH  14  33
TORSDOF 7
