REMARK  Name = ZINC08856240
REMARK  7 active torsions:
REMARK  status: ('A' for Active; 'I' for Inactive)
REMARK    1  A    between atoms: C_4  and  C_7
REMARK    2  A    between atoms: N_9  and  C_10
REMARK    3  A    between atoms: C_10  and  C_19
REMARK    4  A    between atoms: C_11  and  C_12
REMARK    5  A    between atoms: C_17  and  O_18
REMARK    6  A    between atoms: N_21  and  N_22
REMARK    7  A    between atoms: C_23  and  C_24
REMARK                            x       y       z     vdW  Elec       q    Type
REMARK                         _______ _______ _______ _____ _____    ______ ____
ROOT
ATOM      1  C   UNL     1       5.015  -2.567  -0.212  0.00  0.00    +0.098 C 
ATOM      2  C   UNL     1       6.134  -1.805  -0.177  0.00  0.00    +0.040 C 
ENDROOT
BRANCH   2   3
ATOM      3  C   UNL     1       6.027  -0.340  -0.187  0.00  0.00    +0.018 A 
ATOM      4  C   UNL     1       4.890   0.279  -0.720  0.00  0.00    +0.011 A 
ATOM      5  C   UNL     1       4.796   1.654  -0.725  0.00  0.00    +0.001 A 
ATOM      6  C   UNL     1       5.822   2.427  -0.205  0.00  0.00    +0.004 A 
ATOM      7  C   UNL     1       6.950   1.829   0.324  0.00  0.00    +0.046 A 
ATOM      8  C   UNL     1       7.061   0.448   0.343  0.00  0.00    +0.124 A 
BRANCH   8   9
ATOM      9  O   UNL     1       8.166  -0.140   0.867  0.00  0.00    -0.506 OA
ATOM     10  H   UNL     1       8.875  -0.287   0.226  0.00  0.00    +0.292 HD
ENDBRANCH   8   9
ENDBRANCH   2   3
BRANCH   1  13
ATOM     11  C   UNL     1       2.836  -2.161  -1.078  0.00  0.00    +0.248 C 
ATOM     12  O   UNL     1       3.066  -2.934  -1.988  0.00  0.00    -0.270 OA
ATOM     13  N   UNL     1       3.756  -1.965  -0.112  0.00  0.00    -0.277 N 
ATOM     14  H   UNL     1       3.545  -1.406   0.652  0.00  0.00    +0.155 HD
BRANCH  11  18
ATOM     15  C   UNL     1      -0.863  -0.079  -0.943  0.00  0.00    +0.000 A 
ATOM     16  C   UNL     1      -0.560  -0.874  -2.034  0.00  0.00    +0.001 A 
ATOM     17  C   UNL     1       0.640  -1.553  -2.084  0.00  0.00    +0.013 A 
ATOM     18  C   UNL     1       1.549  -1.436  -1.031  0.00  0.00    +0.037 A 
ATOM     19  C   UNL     1       1.237  -0.632   0.066  0.00  0.00    +0.013 A 
ATOM     20  C   UNL     1       0.034   0.042   0.104  0.00  0.00    +0.001 A 
ENDBRANCH  11  18
ENDBRANCH   1  13
BRANCH   1  21
ATOM     21  C   UNL     1       5.122  -4.023  -0.356  0.00  0.00    +0.277 C 
ATOM     22  O   UNL     1       4.116  -4.708  -0.388  0.00  0.00    -0.267 OA
ATOM     23  N   UNL     1       6.335  -4.603  -0.453  0.00  0.00    -0.202 N 
ATOM     24  H   UNL     1       7.137  -4.058  -0.427  0.00  0.00    +0.178 HD
BRANCH  23  25
ATOM     25  N   UNL     1       6.438  -5.994  -0.590  0.00  0.00    -0.184 NA
ATOM     26  C   UNL     1       7.609  -6.553  -0.683  0.00  0.00    +0.176 C 
BRANCH  26  27
ATOM     27  C   UNL     1       7.716  -8.008  -0.826  0.00  0.00    +0.149 A 
ATOM     28  C   UNL     1       8.877  -8.720  -0.928  0.00  0.00    +0.052 A 
ATOM     29  C   UNL     1       8.512 -10.073  -1.047  0.00  0.00    +0.056 A 
ATOM     30  C   UNL     1       7.163 -10.125  -1.013  0.00  0.00    +0.165 A 
ATOM     31  O   UNL     1       6.687  -8.877  -0.875  0.00  0.00    -0.448 OA
ATOM     32  I   UNL     1       6.005 -11.866  -1.147  0.00  0.00    -0.001 I 
ENDBRANCH  26  27
ENDBRANCH  23  25
ENDBRANCH   1  21
TORSDOF 7
