REMARK  Name = ZINC58847739
REMARK  4 active torsions:
REMARK  status: ('A' for Active; 'I' for Inactive)
REMARK    1  A    between atoms: C_6  and  C_7
REMARK    2  A    between atoms: C_18  and  S_23
REMARK    3  A    between atoms: S_23  and  N_26
REMARK    4  A    between atoms: N_26  and  C_27
REMARK                            x       y       z     vdW  Elec       q    Type
REMARK                         _______ _______ _______ _____ _____    ______ ____
ROOT
ATOM      1  C   UNL     1      -1.322  -0.233   0.095  0.00  0.00    +0.105 C 
ATOM      2  C   UNL     1      -1.818  -0.326  -1.317  0.00  0.00    +0.029 C 
ATOM      3  C   UNL     1      -1.739   1.026  -2.056  0.00  0.00    +0.033 C 
ATOM      4  C   UNL     1      -2.845   0.939  -3.086  0.00  0.00    -0.030 C 
ATOM      5  C   UNL     1      -3.694  -0.008  -2.782  0.00  0.00    -0.023 C 
ATOM      6  C   UNL     1      -3.295  -0.671  -1.487  0.00  0.00    +0.049 C 
ATOM      7  C   UNL     1      -4.162  -0.114  -0.393  0.00  0.00    -0.018 A 
ATOM      8  C   UNL     1      -5.535  -0.093  -0.588  0.00  0.00    +0.034 A 
ATOM      9  C   UNL     1      -6.372   0.420   0.383  0.00  0.00    +0.109 A 
ATOM     10  C   UNL     1      -5.845   0.919   1.560  0.00  0.00    +0.030 A 
ATOM     11  C   UNL     1      -4.481   0.898   1.764  0.00  0.00    +0.025 A 
ATOM     12  C   UNL     1      -3.636   0.377   0.788  0.00  0.00    +0.031 A 
ATOM     13  N   UNL     1      -2.277   0.321   1.031  0.00  0.00    -0.336 N 
ATOM     14  H   UNL     1      -1.948   0.698   1.862  0.00  0.00    +0.147 HD
ENDROOT
BRANCH   1  20
ATOM     15  C   UNL     1      -0.203   2.004   0.134  0.00  0.00    +0.009 A 
ATOM     16  C   UNL     1       0.929   2.798   0.148  0.00  0.00    +0.050 A 
ATOM     17  C   UNL     1       2.185   2.215   0.138  0.00  0.00    +0.166 A 
ATOM     18  C   UNL     1       2.304   0.827   0.113  0.00  0.00    +0.167 A 
ATOM     19  C   UNL     1       1.166   0.038   0.099  0.00  0.00    +0.055 A 
ATOM     20  C   UNL     1      -0.085   0.627   0.110  0.00  0.00    -0.023 A 
ATOM     21  O   UNL     1       3.630   0.503   0.107  0.00  0.00    -0.453 OA
ATOM     22  C   UNL     1       4.318   1.706  -0.284  0.00  0.00    +0.466 C 
ATOM     23  O   UNL     1       3.437   2.759   0.147  0.00  0.00    -0.453 OA
ENDBRANCH   1  20
BRANCH   9  24
ATOM     24  S   UNL     1      -8.114   0.439   0.121  0.00  0.00    +0.072 S 
ATOM     25  O   UNL     1      -8.638   1.468   0.949  0.00  0.00    -0.150 OA
ATOM     26  O   UNL     1      -8.314   0.416  -1.286  0.00  0.00    -0.150 OA
BRANCH  24  27
ATOM     27  N   UNL     1      -8.713  -0.990   0.707  0.00  0.00    -0.215 N 
ATOM     28  H   UNL     1      -9.175  -1.602   0.113  0.00  0.00    +0.174 HD
BRANCH  27  29
ATOM     29  C   UNL     1      -8.552  -1.314   2.057  0.00  0.00    +0.066 A 
ATOM     30  C   UNL     1      -8.605  -0.318   3.023  0.00  0.00    +0.027 A 
ATOM     31  C   UNL     1      -8.447  -0.640   4.356  0.00  0.00    +0.022 A 
ATOM     32  C   UNL     1      -8.235  -1.956   4.731  0.00  0.00    +0.042 A 
ATOM     33  C   UNL     1      -8.180  -2.951   3.772  0.00  0.00    +0.042 A 
ATOM     34  C   UNL     1      -8.345  -2.635   2.436  0.00  0.00    +0.065 A 
ATOM     35 CL   UNL     1      -8.284  -3.885   1.234  0.00  0.00    -0.082 Cl
ATOM     36 CL   UNL     1      -8.035  -2.357   6.408  0.00  0.00    -0.083 Cl
ENDBRANCH  27  29
ENDBRANCH  24  27
ENDBRANCH   9  24
TORSDOF 4
