REMARK  Name = ZINC11121905
REMARK  7 active torsions:
REMARK  status: ('A' for Active; 'I' for Inactive)
REMARK    1  A    between atoms: C_1  and  C_2
REMARK    2  A    between atoms: C_4  and  C_33
REMARK    3  A    between atoms: C_5  and  C_9
REMARK    4  A    between atoms: C_6  and  C_8
REMARK    5  A    between atoms: C_15  and  C_17
REMARK    6  A    between atoms: N_20  and  S_23
REMARK    7  A    between atoms: S_23  and  C_26
REMARK                            x       y       z     vdW  Elec       q    Type
REMARK                         _______ _______ _______ _____ _____    ______ ____
ROOT
ATOM      1  C   UNL     1      -0.259  11.046   7.472  0.00  0.00    +0.081 A 
ATOM      2  C   UNL     1       0.871  11.813   7.408  0.00  0.00    +0.076 A 
ATOM      3  S   UNL     1       1.938  10.752   6.442  0.00  0.00    -0.060 S 
ATOM      4  C   UNL     1       0.778   9.409   6.224  0.00  0.00    +0.165 A 
ATOM      5  N   UNL     1      -0.277   9.865   6.872  0.00  0.00    -0.225 NA
ATOM      6  N   UNL     1       0.943   8.207   5.548  0.00  0.00    -0.264 N 
ATOM      7  C   UNL     1       2.113   7.931   4.939  0.00  0.00    +0.222 C 
ATOM      8  O   UNL     1       3.023   8.732   4.982  0.00  0.00    -0.275 OA
ATOM      9  H   UNL     1       0.215   7.566   5.514  0.00  0.00    +0.157 HD
ENDROOT
BRANCH   1  14
ATOM     10  C   UNL     1      -4.905  12.945  10.296  0.00  0.00    +0.044 C 
ATOM     11  C   UNL     1      -3.689  12.448   9.557  0.00  0.00    -0.050 A 
ATOM     12  C   UNL     1      -3.808  12.009   8.251  0.00  0.00    +0.007 A 
ATOM     13  C   UNL     1      -2.698  11.553   7.569  0.00  0.00    -0.041 A 
ATOM     14  C   UNL     1      -1.455  11.535   8.199  0.00  0.00    +0.007 A 
ATOM     15  C   UNL     1      -1.342  11.973   9.518  0.00  0.00    -0.041 A 
ATOM     16  C   UNL     1      -2.458  12.432  10.188  0.00  0.00    +0.007 A 
ATOM     17  C   UNL     1      -0.003  11.950  10.208  0.00  0.00    +0.044 C 
ATOM     18  C   UNL     1      -2.830  11.076   6.145  0.00  0.00    +0.044 C 
ENDBRANCH   1  14
BRANCH   7  19
ATOM     19  C   UNL     1       2.292   6.627   4.205  0.00  0.00    +0.078 C 
ATOM     20  C   UNL     1       3.700   6.565   3.610  0.00  0.00    +0.030 C 
ATOM     21  C   UNL     1       3.890   5.224   2.894  0.00  0.00    +0.110 C 
ATOM     22  N   UNL     1       2.811   5.056   1.911  0.00  0.00    -0.177 NA
ATOM     23  C   UNL     1       1.419   5.192   2.359  0.00  0.00    +0.110 C 
ATOM     24  C   UNL     1       1.257   6.528   3.082  0.00  0.00    +0.030 C 
BRANCH  22  25
ATOM     25  S   UNL     1       3.159   4.727   0.325  0.00  0.00    +0.061 S 
ATOM     26  O   UNL     1       4.476   5.205   0.091  0.00  0.00    -0.153 OA
ATOM     27  O   UNL     1       2.042   5.168  -0.435  0.00  0.00    -0.153 OA
BRANCH  25  28
ATOM     28  C   UNL     1       3.222   2.974   0.159  0.00  0.00    +0.106 A 
ATOM     29  C   UNL     1       2.076   2.269  -0.159  0.00  0.00    +0.030 A 
ATOM     30  C   UNL     1       2.125   0.894  -0.290  0.00  0.00    +0.022 A 
ATOM     31  C   UNL     1       3.321   0.223  -0.103  0.00  0.00    +0.041 A 
ATOM     32  C   UNL     1       4.467   0.930   0.215  0.00  0.00    +0.022 A 
ATOM     33  C   UNL     1       4.417   2.305   0.346  0.00  0.00    +0.030 A 
ATOM     34 CL   UNL     1       3.383  -1.504  -0.268  0.00  0.00    -0.084 Cl
ENDBRANCH  25  28
ENDBRANCH  22  25
ENDBRANCH   7  19
TORSDOF 4
