REMARK  Name = ZINC02236928
REMARK  10 active torsions:
REMARK  status: ('A' for Active; 'I' for Inactive)
REMARK    1  A    between atoms: C_1  and  C_2
REMARK    2  A    between atoms: C_2  and  C_4
REMARK    3  A    between atoms: C_2  and  O_30
REMARK    4  A    between atoms: C_4  and  N_5
REMARK    5  A    between atoms: N_5  and  C_6
REMARK    6  A    between atoms: C_6  and  C_7
REMARK    7  A    between atoms: C_7  and  C_9
REMARK    8  A    between atoms: C_7  and  O_10
REMARK    9  A    between atoms: C_22  and  C_25
REMARK   10  A    between atoms: C_22  and  C_26
REMARK                            x       y       z     vdW  Elec       q    Type
REMARK                         _______ _______ _______ _____ _____    ______ ____
ROOT
ATOM      1  N   UNL     1       0.607   3.604   1.272  0.00  0.00    -0.307 N 
ATOM      2  C   UNL     1      -0.683   3.163   1.526  0.00  0.00    +0.168 A 
ATOM      3  C   UNL     1      -1.308   3.450   2.745  0.00  0.00    +0.196 A 
ATOM      4  C   UNL     1      -2.612   2.981   2.938  0.00  0.00    +0.123 A 
ATOM      5  C   UNL     1      -3.001   3.436   4.282  0.00  0.00    +0.066 A 
ATOM      6  C   UNL     1      -4.143   3.306   5.067  0.00  0.00    +0.023 A 
ATOM      7  C   UNL     1      -4.147   3.886   6.326  0.00  0.00    +0.000 A 
ATOM      8  C   UNL     1      -3.027   4.569   6.762  0.00  0.00    +0.053 A 
ATOM      9  N   UNL     1      -1.957   4.679   5.993  0.00  0.00    -0.217 NA
ATOM     10  C   UNL     1      -1.897   4.146   4.782  0.00  0.00    +0.230 A 
ATOM     11  O   UNL     1      -0.925   4.132   3.844  0.00  0.00    -0.432 OA
ATOM     12  C   UNL     1      -2.992   5.208   8.130  0.00  0.00    +0.090 C 
ATOM     13  C   UNL     1      -4.415   5.346   8.673  0.00  0.00    +0.070 C 
ATOM     14  O   UNL     1      -5.079   4.085   8.536  0.00  0.00    -0.369 OA
ATOM     15  C   UNL     1      -5.379   3.755   7.180  0.00  0.00    +0.197 C 
ATOM     16  C   UNL     1      -5.168   6.413   7.876  0.00  0.00    +0.041 C 
ATOM     17  C   UNL     1      -4.365   5.742  10.150  0.00  0.00    +0.041 C 
ATOM     18  N   UNL     1      -3.204   2.279   1.975  0.00  0.00    -0.231 NA
ATOM     19  C   UNL     1      -2.575   2.029   0.846  0.00  0.00    +0.224 A 
ATOM     20  N   UNL     1      -1.347   2.455   0.618  0.00  0.00    -0.217 NA
ENDROOT
BRANCH   1  21
ATOM     21  C   UNL     1       1.089   3.104  -0.022  0.00  0.00    +0.137 C 
BRANCH  21  23
ATOM     22  C   UNL     1       0.634   3.091  -2.478  0.00  0.00    +0.039 C 
ATOM     23  C   UNL     1       0.313   3.783  -1.152  0.00  0.00    +0.129 C 
BRANCH  23  24
ATOM     24  O   UNL     1       0.691   5.159  -1.230  0.00  0.00    -0.391 OA
ATOM     25  H   UNL     1       0.237   5.653  -1.926  0.00  0.00    +0.210 HD
ENDBRANCH  23  24
ENDBRANCH  21  23
ENDBRANCH   1  21
BRANCH   1  26
ATOM     26  C   UNL     1       0.684   5.070   1.332  0.00  0.00    +0.137 C 
BRANCH  26  27
ATOM     27  C   UNL     1       2.145   5.509   1.218  0.00  0.00    +0.129 C 
ATOM     28  C   UNL     1       2.224   7.036   1.280  0.00  0.00    +0.039 C 
BRANCH  27  29
ATOM     29  O   UNL     1       2.897   4.949   2.296  0.00  0.00    -0.391 OA
ATOM     30  H   UNL     1       2.587   5.215   3.172  0.00  0.00    +0.210 HD
ENDBRANCH  27  29
ENDBRANCH  26  27
ENDBRANCH   1  26
TORSDOF 6
