REMARK  Name = ZINC09881944
REMARK  8 active torsions:
REMARK  status: ('A' for Active; 'I' for Inactive)
REMARK    1  A    between atoms: C_3  and  N_11
REMARK    2  A    between atoms: C_6  and  C_7
REMARK    3  A    between atoms: C_12  and  C_14
REMARK    4  A    between atoms: C_14  and  S_15
REMARK    5  A    between atoms: S_15  and  C_16
REMARK    6  A    between atoms: C_19  and  C_28
REMARK    7  A    between atoms: N_20  and  C_21
REMARK    8  A    between atoms: C_28  and  N_57
REMARK                            x       y       z     vdW  Elec       q    Type
REMARK                         _______ _______ _______ _____ _____    ______ ____
ROOT
ATOM      1  C   UNL     1       3.864  -6.549  -0.522  0.00  0.00    +0.197 A 
ATOM      2  N   UNL     1       2.702  -7.161  -0.502  0.00  0.00    -0.122 NA
ATOM      3  N   UNL     1       2.874  -8.430  -0.619  0.00  0.00    -0.135 NA
ATOM      4  C   UNL     1       4.145  -8.704  -0.710  0.00  0.00    +0.122 A 
ATOM      5  N   UNL     1       4.823  -7.515  -0.652  0.00  0.00    -0.276 N 
ENDROOT
BRANCH   5   6
ATOM      6  C   UNL     1       6.212  -7.328  -0.712  0.00  0.00    +0.050 A 
ATOM      7  C   UNL     1       6.908  -7.656  -1.868  0.00  0.00    +0.029 A 
ATOM      8  C   UNL     1       8.275  -7.466  -1.927  0.00  0.00    +0.040 A 
ATOM      9  C   UNL     1       8.953  -6.959  -0.831  0.00  0.00    +0.124 A 
ATOM     10  C   UNL     1       8.261  -6.637   0.325  0.00  0.00    +0.040 A 
ATOM     11  C   UNL     1       6.894  -6.820   0.386  0.00  0.00    +0.029 A 
ATOM     12  F   UNL     1      10.290  -6.778  -0.889  0.00  0.00    -0.205 F 
ENDBRANCH   5   6
BRANCH   1  13
ATOM     13  S   UNL     1       4.135  -4.812  -0.398  0.00  0.00    -0.076 S 
BRANCH  13  14
ATOM     14  C   UNL     1       2.425  -4.236  -0.258  0.00  0.00    +0.173 C 
BRANCH  14  16
ATOM     15  N   UNL     1       1.237  -2.079  -0.020  0.00  0.00    -0.285 N 
ATOM     16  C   UNL     1       2.410  -2.734  -0.137  0.00  0.00    +0.227 C 
ATOM     17  O   UNL     1       3.452  -2.114  -0.144  0.00  0.00    -0.275 OA
ATOM     18  H   UNL     1       0.409  -2.578   0.062  0.00  0.00    +0.155 HD
BRANCH  15  21
ATOM     19  C   UNL     1       2.111   1.412  -0.771  0.00  0.00    +0.014 A 
ATOM     20  C   UNL     1       2.137   0.031  -0.774  0.00  0.00    +0.024 A 
ATOM     21  C   UNL     1       1.214  -0.680  -0.019  0.00  0.00    +0.033 A 
ATOM     22  C   UNL     1       0.268  -0.001   0.737  0.00  0.00    +0.024 A 
ATOM     23  C   UNL     1       0.248   1.380   0.736  0.00  0.00    +0.014 A 
ATOM     24  C   UNL     1       1.168   2.086  -0.017  0.00  0.00    +0.055 A 
BRANCH  24  25
ATOM     25  C   UNL     1       1.143   3.593  -0.015  0.00  0.00    +0.417 C 
ATOM     26  F   UNL     1       0.306   4.046  -1.041  0.00  0.00    -0.166 F 
ATOM     27  F   UNL     1       0.662   4.050   1.216  0.00  0.00    -0.166 F 
ATOM     28  F   UNL     1       2.438   4.081  -0.221  0.00  0.00    -0.166 F 
ENDBRANCH  24  25
ENDBRANCH  15  21
ENDBRANCH  14  16
ENDBRANCH  13  14
ENDBRANCH   1  13
BRANCH   4  29
ATOM     29  C   UNL     1       4.755 -10.074  -0.853  0.00  0.00    -0.001 C 
BRANCH  29  35
ATOM     30  C   UNL     1       6.062  -9.852   1.172  0.00  0.00    -0.078 C 
ATOM     31  C   UNL     1       6.217 -10.367   2.605  0.00  0.00    -0.019 C 
ATOM     32  C   UNL     1       6.603 -11.848   2.570  0.00  0.00    -0.004 C 
ATOM     33  C   UNL     1       5.534 -12.629   1.802  0.00  0.00    -0.019 C 
ATOM     34  C   UNL     1       5.399 -12.048   0.392  0.00  0.00    -0.078 C 
ATOM     35  N   UNL     1       5.002 -10.628   0.495  0.00  0.00    +0.384 N 
ATOM     36  H   UNL     1       4.138 -10.562   1.046  0.00  0.00    -0.081 HD
ENDBRANCH  29  35
ENDBRANCH   4  29
TORSDOF 8
