REMARK  Name = ZINC29063180
REMARK  7 active torsions:
REMARK  status: ('A' for Active; 'I' for Inactive)
REMARK    1  A    between atoms: C_1  and  C_2
REMARK    2  A    between atoms: C_2  and  C_3
REMARK    3  A    between atoms: C_2  and  C_4
REMARK    4  A    between atoms: C_2  and  C_5
REMARK    5  A    between atoms: C_10  and  C_15
REMARK    6  A    between atoms: N_17  and  N_18
REMARK    7  A    between atoms: C_19  and  C_21
REMARK                            x       y       z     vdW  Elec       q    Type
REMARK                         _______ _______ _______ _____ _____    ______ ____
ROOT
ATOM      1  C   UNL     1       5.278  -1.143  -5.117  0.00  0.00    +0.276 C 
ATOM      2  O   UNL     1       5.272  -1.772  -6.158  0.00  0.00    -0.267 OA
ATOM      3  N   UNL     1       6.395  -0.497  -4.726  0.00  0.00    -0.229 N 
ATOM      4  H   UNL     1       6.400   0.004  -3.895  0.00  0.00    +0.173 HD
ENDROOT
BRANCH   1  10
ATOM      5  C   UNL     1       0.707  -0.490  -1.238  0.00  0.00    -0.040 A 
ATOM      6  C   UNL     1       0.026  -1.288  -2.149  0.00  0.00    +0.005 A 
ATOM      7  C   UNL     1       0.646  -1.739  -3.277  0.00  0.00    +0.010 A 
ATOM      8  C   UNL     1       1.982  -1.396  -3.523  0.00  0.00    +0.000 A 
ATOM      9  C   UNL     1       2.886  -1.694  -4.571  0.00  0.00    +0.041 A 
ATOM     10  C   UNL     1       4.067  -1.087  -4.285  0.00  0.00    +0.104 A 
ATOM     11  N   UNL     1       3.949  -0.410  -3.087  0.00  0.00    -0.351 N 
ATOM     12  H   UNL     1       4.650   0.106  -2.658  0.00  0.00    +0.166 HD
ATOM     13  C   UNL     1       2.675  -0.586  -2.602  0.00  0.00    +0.047 A 
ATOM     14  C   UNL     1       2.019  -0.134  -1.460  0.00  0.00    +0.030 A 
BRANCH   5  16
ATOM     15  C   UNL     1      -0.019   1.526   0.010  0.00  0.00    +0.015 C 
ATOM     16  C   UNL     1       0.002  -0.004   0.002  0.00  0.00    -0.013 C 
ATOM     17  C   UNL     1       0.742  -0.511   1.242  0.00  0.00    +0.015 C 
ATOM     18  C   UNL     1      -1.433  -0.534   0.013  0.00  0.00    +0.015 C 
ENDBRANCH   5  16
ENDBRANCH   1  10
BRANCH   3  19
ATOM     19  N   UNL     1       7.549  -0.551  -5.518  0.00  0.00    -0.229 N 
ATOM     20  C   UNL     1       8.665   0.095  -5.127  0.00  0.00    +0.276 C 
ATOM     21  O   UNL     1       8.671   0.724  -4.085  0.00  0.00    -0.267 OA
ATOM     22  H   UNL     1       7.544  -1.052  -6.349  0.00  0.00    +0.173 HD
BRANCH  20  23
ATOM     23  C   UNL     1       9.873   0.039  -5.957  0.00  0.00    +0.104 A 
ATOM     24  C   UNL     1      11.082   0.643  -5.679  0.00  0.00    +0.047 A 
ATOM     25  C   UNL     1      11.949   0.331  -6.731  0.00  0.00    +0.036 A 
ATOM     26  C   UNL     1      11.270  -0.441  -7.614  0.00  0.00    +0.098 A 
ATOM     27  N   UNL     1      10.009  -0.630  -7.152  0.00  0.00    -0.356 N 
ATOM     28  H   UNL     1       9.317  -1.149  -7.592  0.00  0.00    +0.166 HD
ATOM     29 BR   UNL     1      13.749   0.888  -6.893  0.00  0.00    -0.049 Br
ENDBRANCH  20  23
ENDBRANCH   3  19
TORSDOF 4
