REMARK  Name = ZINC67339785
REMARK  7 active torsions:
REMARK  status: ('A' for Active; 'I' for Inactive)
REMARK    1  A    between atoms: C_1  and  C_2
REMARK    2  A    between atoms: C_4  and  S_23
REMARK    3  A    between atoms: C_6  and  C_7
REMARK    4  A    between atoms: C_11  and  N_20
REMARK    5  A    between atoms: N_20  and  C_21
REMARK    6  A    between atoms: N_20  and  C_22
REMARK    7  A    between atoms: S_23  and  N_26
REMARK                            x       y       z     vdW  Elec       q    Type
REMARK                         _______ _______ _______ _____ _____    ______ ____
ROOT
ATOM      1  C   UNL     1       0.031  -0.283   2.562  0.00  0.00    +0.258 C 
ATOM      2  O   UNL     1      -0.077  -0.671   1.414  0.00  0.00    -0.269 OA
ATOM      3  N   UNL     1       0.154  -1.174   3.566  0.00  0.00    -0.268 N 
ATOM      4  C   UNL     1       0.157  -0.727   4.965  0.00  0.00    +0.099 C 
ATOM      5  C   UNL     1       1.287  -1.467   5.692  0.00  0.00    -0.047 C 
ATOM      6  C   UNL     1       0.984  -2.966   5.679  0.00  0.00    +0.023 C 
ATOM      7  C   UNL     1       0.679  -3.430   4.279  0.00  0.00    -0.027 A 
ATOM      8  C   UNL     1       0.276  -2.543   3.292  0.00  0.00    +0.040 A 
ATOM      9  C   UNL     1      -0.008  -3.005   2.012  0.00  0.00    +0.024 A 
ATOM     10  C   UNL     1       0.109  -4.350   1.722  0.00  0.00    +0.002 A 
ATOM     11  C   UNL     1       0.509  -5.236   2.705  0.00  0.00    +0.000 A 
ATOM     12  C   UNL     1       0.801  -4.776   3.979  0.00  0.00    +0.005 A 
ENDROOT
BRANCH   1  18
ATOM     13  C   UNL     1       0.938   2.000   0.647  0.00  0.00    +0.045 C 
ATOM     14  C   UNL     1       0.416   2.210   2.045  0.00  0.00    -0.029 A 
ATOM     15  C   UNL     1       0.291   3.462   2.598  0.00  0.00    +0.040 A 
ATOM     16  C   UNL     1      -0.186   3.580   3.862  0.00  0.00    +0.143 A 
ATOM     17  S   UNL     1      -0.479   1.996   4.340  0.00  0.00    -0.064 S 
ATOM     18  C   UNL     1       0.026   1.153   2.854  0.00  0.00    +0.079 A 
BRANCH  16  19
ATOM     19  S   UNL     1      -0.439   5.056   4.790  0.00  0.00    +0.062 S 
ATOM     20  O   UNL     1      -0.400   4.685   6.162  0.00  0.00    -0.153 OA
ATOM     21  O   UNL     1       0.431   6.035   4.241  0.00  0.00    -0.153 OA
BRANCH  19  22
ATOM     22  N   UNL     1      -1.983   5.569   4.483  0.00  0.00    -0.203 NA
ATOM     23  H   UNL     1      -2.552   5.063   3.881  0.00  0.00    +0.144 HD
ATOM     24  H   UNL     1      -2.320   6.375   4.904  0.00  0.00    +0.144 HD
ENDBRANCH  19  22
ENDBRANCH  16  19
ENDBRANCH   1  18
BRANCH   5  25
ATOM     25  N   UNL     1       1.375  -0.992   7.079  0.00  0.00    +0.379 N 
ATOM     26  C   UNL     1       2.458  -1.703   7.772  0.00  0.00    -0.096 C 
ATOM     27  C   UNL     1       1.653   0.450   7.086  0.00  0.00    -0.096 C 
ATOM     28  H   UNL     1       0.501  -1.169   7.551  0.00  0.00    -0.082 HD
ENDBRANCH   5  25
TORSDOF 4
