REMARK  Name = ZINC12412585
REMARK  7 active torsions:
REMARK  status: ('A' for Active; 'I' for Inactive)
REMARK    1  A    between atoms: C_1  and  C_2
REMARK    2  A    between atoms: C_2  and  S_3
REMARK    3  A    between atoms: S_3  and  C_4
REMARK    4  A    between atoms: C_15  and  C_17
REMARK    5  A    between atoms: C_15  and  C_18
REMARK    6  A    between atoms: C_29  and  C_32
REMARK    7  A    between atoms: C_30  and  N_31
REMARK                            x       y       z     vdW  Elec       q    Type
REMARK                         _______ _______ _______ _____ _____    ______ ____
ROOT
ATOM      1  C   UNL     1       0.086  -2.640   0.269  0.00  0.00    +0.160 A 
ATOM      2  N   UNL     1      -0.045  -2.078  -0.924  0.00  0.00    -0.133 NA
ATOM      3  N   UNL     1      -0.087  -0.826  -1.070  0.00  0.00    -0.124 NA
ATOM      4  C   UNL     1       0.006   0.003  -0.043  0.00  0.00    +0.194 A 
ATOM      5  S   UNL     1       0.162  -1.175   1.296  0.00  0.00    -0.024 S 
ATOM      6  N   UNL     1      -0.017   1.396  -0.012  0.00  0.00    -0.237 N 
ATOM      7  C   UNL     1       1.160   2.095  -0.080  0.00  0.00    +0.028 C 
ATOM      8  C   UNL     1       1.221   3.380   0.331  0.00  0.00    +0.037 C 
ATOM      9  C   UNL     1       2.424   4.105   0.266  0.00  0.00    +0.163 C 
ATOM     10  O   UNL     1       2.441   5.265   0.628  0.00  0.00    -0.292 OA
ATOM     11  C   UNL     1       3.690   3.471  -0.242  0.00  0.00    +0.086 C 
ATOM     12  C   UNL     1       3.638   1.964   0.031  0.00  0.00    -0.023 C 
ATOM     13  C   UNL     1       2.379   1.395  -0.628  0.00  0.00    +0.058 C 
ATOM     14  C   UNL     1       3.584   1.717   1.540  0.00  0.00    +0.011 C 
ATOM     15  C   UNL     1       4.878   1.291  -0.561  0.00  0.00    +0.011 C 
ATOM     16  C   UNL     1       0.000   4.074   0.877  0.00  0.00    +0.141 C 
ATOM     17  C   UNL     1       0.107   4.235   2.362  0.00  0.00    -0.002 A 
ATOM     18  C   UNL     1       0.193   3.305   3.376  0.00  0.00    +0.007 A 
ATOM     19  C   UNL     1       0.281   3.795   4.675  0.00  0.00    +0.000 A 
ATOM     20  C   UNL     1       0.280   5.151   4.933  0.00  0.00    +0.002 A 
ATOM     21  C   UNL     1       0.194   6.091   3.918  0.00  0.00    +0.023 A 
ATOM     22  C   UNL     1       0.106   5.612   2.610  0.00  0.00    +0.038 A 
ATOM     23  N   UNL     1       0.012   6.315   1.422  0.00  0.00    -0.284 N 
ATOM     24  C   UNL     1      -0.053   5.495   0.353  0.00  0.00    +0.238 C 
ATOM     25  O   UNL     1      -0.137   5.832  -0.809  0.00  0.00    -0.274 OA
ATOM     26  C   UNL     1      -1.258   3.347   0.507  0.00  0.00    +0.089 C 
ATOM     27  C   UNL     1      -1.222   2.055   0.081  0.00  0.00    +0.109 C 
ATOM     28  H   UNL     1      -0.005   7.283   1.364  0.00  0.00    +0.155 HD
ENDROOT
BRANCH  27  29
ATOM     29  N   UNL     1      -2.387   1.407  -0.252  0.00  0.00    -0.345 N 
ATOM     30  H   UNL     1      -2.371   0.461  -0.467  0.00  0.00    +0.144 HD
ATOM     31  H   UNL     1      -3.225   1.895  -0.272  0.00  0.00    +0.144 HD
ENDBRANCH  27  29
BRANCH  26  32
ATOM     32  C   UNL     1      -2.517   4.024   0.598  0.00  0.00    +0.100 C 
ATOM     33  N   UNL     1      -3.515   4.561   0.671  0.00  0.00    -0.191 NA
ENDBRANCH  26  32
BRANCH   1  34
ATOM     34  S   UNL     1       0.161  -4.343   0.717  0.00  0.00    -0.097 S 
BRANCH  34  36
ATOM     35  C   UNL     1       0.070  -6.729  -0.617  0.00  0.00    +0.016 C 
ATOM     36  C   UNL     1       0.018  -5.220  -0.864  0.00  0.00    +0.073 C 
ENDBRANCH  34  36
ENDBRANCH   1  34
TORSDOF 4
