REMARK  Name = ZINC20579727
REMARK  6 active torsions:
REMARK  status: ('A' for Active; 'I' for Inactive)
REMARK    1  A    between atoms: C_4  and  C_7
REMARK    2  A    between atoms: C_7  and  C_9
REMARK    3  A    between atoms: C_7  and  S_31
REMARK    4  A    between atoms: C_15  and  C_17
REMARK    5  A    between atoms: N_22  and  C_24
REMARK    6  A    between atoms: S_31  and  C_32
REMARK                            x       y       z     vdW  Elec       q    Type
REMARK                         _______ _______ _______ _____ _____    ______ ____
ROOT
ATOM      1  C   UNL     1       6.233  10.559  -3.122  0.00  0.00    +0.236 C 
ATOM      2  O   UNL     1       6.014   9.719  -3.969  0.00  0.00    -0.274 OA
ATOM      3  N   UNL     1       5.961  10.298  -1.828  0.00  0.00    -0.262 N 
ATOM      4  C   UNL     1       5.431   9.065  -1.464  0.00  0.00    +0.188 A 
ATOM      5  N   UNL     1       5.123   8.024  -2.219  0.00  0.00    -0.126 NA
ATOM      6  N   UNL     1       4.649   6.961  -1.729  0.00  0.00    -0.144 NA
ATOM      7  C   UNL     1       4.433   6.857  -0.433  0.00  0.00    +0.109 A 
ATOM      8  S   UNL     1       4.992   8.467   0.110  0.00  0.00    -0.035 S 
ATOM      9  H   UNL     1       6.160  11.059  -1.060  0.00  0.00    +0.157 HD
ENDROOT
BRANCH   7  10
ATOM     10  C   UNL     1       3.878   5.706   0.365  0.00  0.00    +0.073 C 
ATOM     11  C   UNL     1       4.644   4.399   0.057  0.00  0.00    +0.108 C 
ATOM     12  C   UNL     1       3.576   3.328   0.089  0.00  0.00    +0.220 C 
ATOM     13  O   UNL     1       3.788   2.137   0.179  0.00  0.00    -0.275 OA
ATOM     14  N   UNL     1       2.357   3.889   0.001  0.00  0.00    -0.271 N 
ATOM     15  C   UNL     1       2.448   5.350  -0.098  0.00  0.00    +0.124 C 
BRANCH  14  16
ATOM     16  C   UNL     1       1.155   3.171   0.008  0.00  0.00    +0.036 A 
ATOM     17  C   UNL     1      -0.058   3.846   0.038  0.00  0.00    +0.026 A 
ATOM     18  C   UNL     1      -1.243   3.136   0.045  0.00  0.00    +0.040 A 
ATOM     19  C   UNL     1      -1.221   1.751   0.027  0.00  0.00    +0.124 A 
ATOM     20  C   UNL     1      -0.013   1.076  -0.009  0.00  0.00    +0.040 A 
ATOM     21  C   UNL     1       1.174   1.782  -0.015  0.00  0.00    +0.026 A 
ATOM     22  F   UNL     1      -2.381   1.058   0.039  0.00  0.00    -0.205 F 
ENDBRANCH  14  16
ENDBRANCH   7  10
BRANCH   1  23
ATOM     23  C   UNL     1       6.807  11.895  -3.516  0.00  0.00    +0.167 C 
BRANCH  23  27
ATOM     24  C   UNL     1      11.055  11.806  -3.069  0.00  0.00    +0.000 A 
ATOM     25  C   UNL     1      10.303  12.718  -2.351  0.00  0.00    +0.000 A 
ATOM     26  C   UNL     1       8.928  12.747  -2.496  0.00  0.00    +0.005 A 
ATOM     27  C   UNL     1       8.306  11.864  -3.358  0.00  0.00    -0.025 A 
ATOM     28  C   UNL     1       9.057  10.949  -4.072  0.00  0.00    +0.005 A 
ATOM     29  C   UNL     1      10.432  10.924  -3.931  0.00  0.00    +0.000 A 
ENDBRANCH  23  27
BRANCH  23  30
ATOM     30  S   UNL     1       6.389  12.247  -5.246  0.00  0.00    -0.108 S 
BRANCH  30  31
ATOM     31  C   UNL     1       6.992  13.882  -5.507  0.00  0.00    +0.009 A 
ATOM     32  C   UNL     1       7.615  14.568  -4.471  0.00  0.00    +0.015 A 
ATOM     33  C   UNL     1       8.093  15.846  -4.681  0.00  0.00    +0.001 A 
ATOM     34  C   UNL     1       7.941  16.448  -5.917  0.00  0.00    +0.000 A 
ATOM     35  C   UNL     1       7.317  15.771  -6.948  0.00  0.00    +0.001 A 
ATOM     36  C   UNL     1       6.842  14.490  -6.747  0.00  0.00    +0.015 A 
ENDBRANCH  30  31
ENDBRANCH  23  30
ENDBRANCH   1  23
TORSDOF 6
