REMARK  Name = ZINC09324312
REMARK  4 active torsions:
REMARK  status: ('A' for Active; 'I' for Inactive)
REMARK    1  A    between atoms: C_11  and  C_13
REMARK    2  A    between atoms: C_13  and  S_14
REMARK    3  A    between atoms: S_14  and  C_15
REMARK    4  A    between atoms: N_23  and  C_24
REMARK                            x       y       z     vdW  Elec       q    Type
REMARK                         _______ _______ _______ _____ _____    ______ ____
ROOT
ATOM      1  C   UNL     1       0.042   1.040  -2.810  0.00  0.00    +0.160 A 
ATOM      2  N   UNL     1       1.135   0.300  -2.792  0.00  0.00    -0.133 NA
ATOM      3  N   UNL     1       1.711  -0.098  -3.976  0.00  0.00    -0.125 NA
ATOM      4  C   UNL     1       1.170   0.263  -5.123  0.00  0.00    +0.190 A 
ATOM      5  S   UNL     1      -0.237   1.210  -4.566  0.00  0.00    -0.024 S 
ATOM      6  N   UNL     1       1.583  -0.025  -6.422  0.00  0.00    -0.247 N 
ATOM      7  C   UNL     1       2.684  -0.773  -6.629  0.00  0.00    +0.310 C 
ATOM      8  O   UNL     1       3.318  -1.198  -5.682  0.00  0.00    -0.252 OA
ATOM      9  N   UNL     1       3.083  -1.052  -7.886  0.00  0.00    -0.269 N 
ATOM     10  H   UNL     1       1.077   0.313  -7.177  0.00  0.00    +0.158 HD
ATOM     11  H   UNL     1       2.541  -0.771  -8.640  0.00  0.00    +0.156 HD
ENDROOT
BRANCH   9  12
ATOM     12  C   UNL     1       4.279  -1.746  -8.103  0.00  0.00    +0.035 A 
ATOM     13  C   UNL     1       5.065  -1.448  -9.209  0.00  0.00    +0.025 A 
ATOM     14  C   UNL     1       6.247  -2.131  -9.418  0.00  0.00    +0.022 A 
ATOM     15  C   UNL     1       6.643  -3.119  -8.533  0.00  0.00    +0.041 A 
ATOM     16  C   UNL     1       5.859  -3.421  -7.434  0.00  0.00    +0.022 A 
ATOM     17  C   UNL     1       4.679  -2.737  -7.217  0.00  0.00    +0.025 A 
ATOM     18 CL   UNL     1       8.126  -3.979  -8.803  0.00  0.00    -0.084 Cl
ENDBRANCH   9  12
BRANCH   1  19
ATOM     19  S   UNL     1      -0.894   1.683  -1.462  0.00  0.00    -0.088 S 
BRANCH  19  20
ATOM     20  C   UNL     1      -0.009   1.092   0.008  0.00  0.00    +0.172 C 
BRANCH  20  31
ATOM     21  C   UNL     1      -1.920   2.438   8.182  0.00  0.00    +0.002 A 
ATOM     22  C   UNL     1      -3.021   3.181   7.779  0.00  0.00    +0.001 A 
ATOM     23  C   UNL     1      -3.272   3.342   6.429  0.00  0.00    +0.017 A 
ATOM     24  C   UNL     1      -2.430   2.766   5.510  0.00  0.00    +0.041 A 
ATOM     25  C   UNL     1      -1.301   2.002   5.883  0.00  0.00    +0.080 A 
ATOM     26  C   UNL     1      -1.075   1.859   7.272  0.00  0.00    +0.029 A 
ATOM     27  N   UNL     1      -0.571   1.501   4.864  0.00  0.00    -0.225 NA
ATOM     28  C   UNL     1      -0.883   1.705   3.605  0.00  0.00    +0.165 A 
ATOM     29  S   UNL     1      -2.354   2.712   3.736  0.00  0.00    -0.052 S 
ATOM     30  N   UNL     1      -0.234   1.259   2.465  0.00  0.00    -0.264 N 
ATOM     31  C   UNL     1      -0.715   1.578   1.247  0.00  0.00    +0.229 C 
ATOM     32  O   UNL     1      -1.716   2.255   1.149  0.00  0.00    -0.275 OA
ATOM     33  H   UNL     1       0.567   0.717   2.544  0.00  0.00    +0.157 HD
ENDBRANCH  20  31
ENDBRANCH  19  20
ENDBRANCH   1  19
TORSDOF 4
