REMARK  Name = ZINC39652855
REMARK  7 active torsions:
REMARK  status: ('A' for Active; 'I' for Inactive)
REMARK    1  A    between atoms: C_6  and  C_7
REMARK    2  A    between atoms: C_7  and  C_8
REMARK    3  A    between atoms: C_8  and  N_9
REMARK    4  A    between atoms: C_10  and  C_12
REMARK    5  A    between atoms: C_23  and  C_25
REMARK    6  A    between atoms: C_25  and  C_26
REMARK    7  A    between atoms: C_26  and  C_27
REMARK                            x       y       z     vdW  Elec       q    Type
REMARK                         _______ _______ _______ _____ _____    ______ ____
ROOT
ATOM      1  C   UNL     1      -4.888  -2.887  -2.576  0.00  0.00    +0.100 C 
ATOM      2  C   UNL     1      -5.971  -2.111  -1.794  0.00  0.00    +0.121 C 
ATOM      3  N   UNL     1      -6.716  -1.359  -2.830  0.00  0.00    -0.300 N 
ATOM      4  C   UNL     1      -6.814  -2.300  -3.971  0.00  0.00    +0.115 C 
ATOM      5  C   UNL     1      -5.447  -3.012  -4.004  0.00  0.00    -0.004 C 
ATOM      6  C   UNL     1      -4.517  -2.321  -4.997  0.00  0.00    -0.010 C 
ATOM      7  C   UNL     1      -5.064  -2.507  -6.415  0.00  0.00    -0.082 C 
ATOM      8  N   UNL     1      -5.160  -3.940  -6.720  0.00  0.00    +0.379 N 
ATOM      9  C   UNL     1      -6.126  -4.580  -5.819  0.00  0.00    -0.082 C 
ATOM     10  C   UNL     1      -5.625  -4.481  -4.376  0.00  0.00    -0.010 C 
ATOM     11  C   UNL     1      -7.196  -0.101  -2.753  0.00  0.00    +0.216 C 
ATOM     12  O   UNL     1      -7.790   0.380  -3.695  0.00  0.00    -0.276 OA
ATOM     13  H   UNL     1      -5.462  -4.059  -7.675  0.00  0.00    -0.086 HD
ATOM     14  H   UNL     1      -4.255  -4.369  -6.600  0.00  0.00    -0.086 HD
ENDROOT
BRANCH   1  16
ATOM     15  N   UNL     1      -2.420  -2.772  -2.678  0.00  0.00    -0.315 N 
ATOM     16  C   UNL     1      -3.594  -2.116  -2.585  0.00  0.00    +0.218 C 
ATOM     17  O   UNL     1      -3.608  -0.906  -2.508  0.00  0.00    -0.275 OA
ATOM     18  H   UNL     1      -2.408  -3.740  -2.740  0.00  0.00    +0.149 HD
BRANCH  15  19
ATOM     19  C   UNL     1      -1.161  -2.022  -2.686  0.00  0.00    +0.109 C 
BRANCH  19  20
ATOM     20  C   UNL     1       0.013  -2.997  -2.799  0.00  0.00    +0.054 C 
BRANCH  20  26
ATOM     21  C   UNL     1       1.954  -1.948  -1.617  0.00  0.00    +0.005 A 
ATOM     22  C   UNL     1       3.141  -1.241  -1.624  0.00  0.00    +0.015 A 
ATOM     23  C   UNL     1       3.683  -0.812  -2.822  0.00  0.00    +0.018 A 
ATOM     24  C   UNL     1       3.036  -1.090  -4.013  0.00  0.00    +0.015 A 
ATOM     25  C   UNL     1       1.849  -1.797  -4.005  0.00  0.00    +0.005 A 
ATOM     26  C   UNL     1       1.307  -2.226  -2.807  0.00  0.00    -0.046 A 
ATOM     27 BR   UNL     1       5.308   0.156  -2.833  0.00  0.00    -0.050 Br
ENDBRANCH  20  26
ENDBRANCH  19  20
ENDBRANCH  15  19
ENDBRANCH   1  16
BRANCH  11  28
ATOM     28  C   UNL     1      -6.994   0.707  -1.497  0.00  0.00    +0.096 C 
BRANCH  28  29
ATOM     29  C   UNL     1      -7.630   2.087  -1.671  0.00  0.00    +0.013 C 
BRANCH  29  30
ATOM     30  C   UNL     1      -7.426   2.908  -0.396  0.00  0.00    -0.011 C 
ATOM     31  C   UNL     1      -8.245   2.299   0.760  0.00  0.00    +0.003 C 
ATOM     32  C   UNL     1      -8.749   3.529   1.556  0.00  0.00    +0.000 C 
ATOM     33  C   UNL     1      -9.070   4.552   0.439  0.00  0.00    +0.000 C 
ATOM     34  C   UNL     1      -7.950   4.340  -0.601  0.00  0.00    +0.003 C 
ENDBRANCH  29  30
ENDBRANCH  28  29
ENDBRANCH  11  28
TORSDOF 7
