REMARK  Name = ZINC01874671
REMARK  6 active torsions:
REMARK  status: ('A' for Active; 'I' for Inactive)
REMARK    1  A    between atoms: C_1  and  C_2
REMARK    2  A    between atoms: C_5  and  S_8
REMARK    3  A    between atoms: S_8  and  N_11
REMARK    4  A    between atoms: N_11  and  C_12
REMARK    5  A    between atoms: C_12  and  C_30
REMARK    6  A    between atoms: N_18  and  C_23
REMARK                            x       y       z     vdW  Elec       q    Type
REMARK                         _______ _______ _______ _____ _____    ______ ____
ROOT
ATOM      1  C   UNL     1       2.542  -4.968   0.508  0.00  0.00    +0.243 C 
ATOM      2  C   UNL     1       4.042  -5.077   0.647  0.00  0.00    +0.097 A 
ATOM      3  C   UNL     1       5.118  -4.610  -0.125  0.00  0.00    +0.284 A 
ATOM      4  N   UNL     1       6.377  -4.874   0.270  0.00  0.00    -0.153 NA
ATOM      5  C   UNL     1       6.603  -5.561   1.366  0.00  0.00    +0.358 A 
ATOM      6  O   UNL     1       7.876  -5.809   1.736  0.00  0.00    -0.244 OA
ATOM      7  N   UNL     1       5.586  -6.029   2.138  0.00  0.00    -0.248 N 
ATOM      8  C   UNL     1       4.278  -5.789   1.784  0.00  0.00    +0.125 A 
ATOM      9  N   UNL     1       3.097  -6.151   2.392  0.00  0.00    -0.269 N 
ATOM     10  C   UNL     1       2.018  -5.715   1.718  0.00  0.00    +0.254 C 
ATOM     11  O   UNL     1       0.856  -5.885   2.019  0.00  0.00    -0.273 OA
ATOM     12  O   UNL     1       4.913  -3.971  -1.146  0.00  0.00    -0.265 OA
ATOM     13  H   UNL     1       3.049  -6.663   3.215  0.00  0.00    +0.156 HD
ENDROOT
BRANCH   7  14
ATOM     14  C   UNL     1       5.871  -6.758   3.300  0.00  0.00    +0.053 A 
ATOM     15  C   UNL     1       5.588  -6.218   4.547  0.00  0.00    +0.026 A 
ATOM     16  C   UNL     1       5.870  -6.939   5.690  0.00  0.00    +0.002 A 
ATOM     17  C   UNL     1       6.434  -8.198   5.594  0.00  0.00    +0.000 A 
ATOM     18  C   UNL     1       6.717  -8.739   4.353  0.00  0.00    +0.002 A 
ATOM     19  C   UNL     1       6.433  -8.024   3.206  0.00  0.00    +0.026 A 
ENDBRANCH   7  14
BRANCH   1  20
ATOM     20  C   UNL     1       2.099  -3.504   0.545  0.00  0.00    +0.422 C 
ATOM     21  F   UNL     1       0.703  -3.438   0.486  0.00  0.00    -0.168 F 
ATOM     22  F   UNL     1       2.544  -2.913   1.733  0.00  0.00    -0.168 F 
ATOM     23  F   UNL     1       2.646  -2.824  -0.548  0.00  0.00    -0.168 F 
ENDBRANCH   1  20
BRANCH   1  24
ATOM     24  N   UNL     1       2.091  -5.610  -0.729  0.00  0.00    -0.162 NA
ATOM     25  H   UNL     1       1.536  -5.120  -1.356  0.00  0.00    +0.150 HD
BRANCH  24  26
ATOM     26  S   UNL     1       2.530  -7.173  -1.059  0.00  0.00    +0.060 S 
ATOM     27  O   UNL     1       3.922  -7.269  -0.791  0.00  0.00    -0.153 OA
ATOM     28  O   UNL     1       1.974  -7.491  -2.328  0.00  0.00    -0.153 OA
BRANCH  26  33
ATOM     29  C   UNL     1      -0.250 -10.697   2.973  0.00  0.00    +0.044 C 
ATOM     30  C   UNL     1       0.444  -9.817   1.966  0.00  0.00    -0.050 A 
ATOM     31  C   UNL     1      -0.225  -9.407   0.828  0.00  0.00    +0.005 A 
ATOM     32  C   UNL     1       0.412  -8.600  -0.096  0.00  0.00    +0.029 A 
ATOM     33  C   UNL     1       1.718  -8.201   0.119  0.00  0.00    +0.105 A 
ATOM     34  C   UNL     1       2.387  -8.610   1.257  0.00  0.00    +0.029 A 
ATOM     35  C   UNL     1       1.749  -9.414   2.183  0.00  0.00    +0.005 A 
ENDBRANCH  26  33
ENDBRANCH  24  26
ENDBRANCH   1  24
TORSDOF 5
