REMARK  Name = ZINC01899098
REMARK  12 active torsions:
REMARK  status: ('A' for Active; 'I' for Inactive)
REMARK    1  A    between atoms: C_1  and  C_2
REMARK    2  A    between atoms: C_2  and  C_41
REMARK    3  A    between atoms: C_9  and  C_24
REMARK    4  A    between atoms: C_9  and  N_28
REMARK    5  A    between atoms: N_12  and  C_13
REMARK    6  A    between atoms: C_13  and  C_14
REMARK    7  A    between atoms: C_16  and  O_22
REMARK    8  A    between atoms: C_18  and  O_20
REMARK    9  A    between atoms: O_20  and  C_21
REMARK   10  A    between atoms: O_22  and  C_23
REMARK   11  A    between atoms: C_29  and  C_31
REMARK   12  A    between atoms: C_35  and  C_37
REMARK                            x       y       z     vdW  Elec       q    Type
REMARK                         _______ _______ _______ _____ _____    ______ ____
ROOT
ATOM      1  C   UNL     1       0.383   1.498   0.582  0.00  0.00    +0.011 C 
ATOM      2  C   UNL     1       0.303  -0.023   0.434  0.00  0.00    -0.023 C 
ATOM      3  C   UNL     1      -1.163  -0.440   0.273  0.00  0.00    +0.058 C 
ATOM      4  C   UNL     1      -1.220  -1.954   0.227  0.00  0.00    +0.024 C 
ATOM      5  C   UNL     1      -0.271  -2.719   0.832  0.00  0.00    +0.053 C 
ATOM      6  C   UNL     1       0.816  -2.190   1.544  0.00  0.00    +0.164 C 
ATOM      7  O   UNL     1       1.652  -2.916   2.042  0.00  0.00    -0.292 OA
ATOM      8  C   UNL     1       0.911  -0.685   1.671  0.00  0.00    +0.086 C 
ATOM      9  C   UNL     1      -0.642  -4.153   0.575  0.00  0.00    +0.237 C 
ATOM     10  C   UNL     1      -1.917  -4.041  -0.242  0.00  0.00    +0.257 C 
ATOM     11  O   UNL     1      -2.584  -4.955  -0.680  0.00  0.00    -0.272 OA
ATOM     12  N   UNL     1      -2.159  -2.723  -0.382  0.00  0.00    -0.268 N 
ATOM     13  C   UNL     1       1.087  -0.453  -0.807  0.00  0.00    +0.011 C 
ENDROOT
BRANCH   9  14
ATOM     14  C   UNL     1      -0.907  -4.887   1.891  0.00  0.00    +0.424 C 
ATOM     15  F   UNL     1      -1.874  -4.192   2.626  0.00  0.00    -0.167 F 
ATOM     16  F   UNL     1      -1.369  -6.180   1.621  0.00  0.00    -0.167 F 
ATOM     17  F   UNL     1       0.278  -4.960   2.631  0.00  0.00    -0.167 F 
ENDBRANCH   9  14
BRANCH   9  18
ATOM     18  N   UNL     1       0.406  -4.829  -0.193  0.00  0.00    -0.287 N 
ATOM     19  C   UNL     1       0.707  -4.409  -1.438  0.00  0.00    +0.245 C 
ATOM     20  O   UNL     1       0.177  -3.412  -1.887  0.00  0.00    -0.270 OA
ATOM     21  H   UNL     1       0.884  -5.579   0.195  0.00  0.00    +0.151 HD
BRANCH  19  22
ATOM     22  C   UNL     1       1.681  -5.161  -2.257  0.00  0.00    +0.037 A 
ATOM     23  C   UNL     1       2.288  -6.310  -1.746  0.00  0.00    +0.013 A 
ATOM     24  C   UNL     1       3.196  -7.007  -2.515  0.00  0.00    +0.001 A 
ATOM     25  C   UNL     1       3.506  -6.570  -3.791  0.00  0.00    +0.012 A 
ATOM     26  C   UNL     1       2.909  -5.432  -4.303  0.00  0.00    +0.056 A 
ATOM     27  C   UNL     1       1.995  -4.729  -3.546  0.00  0.00    +0.025 A 
BRANCH  26  28
ATOM     28  C   UNL     1       3.254  -4.963  -5.693  0.00  0.00    +0.417 C 
ATOM     29  F   UNL     1       4.191  -5.833  -6.260  0.00  0.00    -0.166 F 
ATOM     30  F   UNL     1       2.097  -4.947  -6.480  0.00  0.00    -0.166 F 
ATOM     31  F   UNL     1       3.793  -3.674  -5.630  0.00  0.00    -0.166 F 
ENDBRANCH  26  28
ENDBRANCH  19  22
ENDBRANCH   9  18
BRANCH  12  32
ATOM     32  C   UNL     1      -3.308  -2.179  -1.110  0.00  0.00    +0.148 C 
BRANCH  32  33
ATOM     33  C   UNL     1      -2.937  -1.979  -2.557  0.00  0.00    -0.023 A 
ATOM     34  C   UNL     1      -2.394  -0.778  -2.970  0.00  0.00    +0.051 A 
ATOM     35  C   UNL     1      -2.051  -0.591  -4.302  0.00  0.00    +0.124 A 
ATOM     36  C   UNL     1      -2.255  -1.611  -5.218  0.00  0.00    +0.091 A 
ATOM     37  C   UNL     1      -2.801  -2.815  -4.801  0.00  0.00    +0.124 A 
ATOM     38  C   UNL     1      -3.136  -2.999  -3.467  0.00  0.00    +0.051 A 
BRANCH  37  39
ATOM     39  O   UNL     1      -3.002  -3.817  -5.698  0.00  0.00    -0.495 OA
ATOM     40  C   UNL     1      -2.629  -3.560  -7.053  0.00  0.00    +0.277 C 
ENDBRANCH  37  39
BRANCH  35  41
ATOM     41  O   UNL     1      -1.517   0.591  -4.707  0.00  0.00    -0.495 OA
ATOM     42  C   UNL     1      -1.189   0.713  -6.092  0.00  0.00    +0.277 C 
ENDBRANCH  35  41
ENDBRANCH  32  33
ENDBRANCH  12  32
TORSDOF 8
