REMARK  Name = ZINC19858033
REMARK  9 active torsions:
REMARK  status: ('A' for Active; 'I' for Inactive)
REMARK    1  A    between atoms: C_1  and  C_2
REMARK    2  A    between atoms: C_3  and  C_22
REMARK    3  A    between atoms: C_4  and  C_16
REMARK    4  A    between atoms: C_10  and  C_14
REMARK    5  A    between atoms: C_10  and  C_15
REMARK    6  A    between atoms: N_24  and  C_25
REMARK    7  A    between atoms: C_26  and  C_34
REMARK    8  A    between atoms: C_34  and  O_36
REMARK    9  A    between atoms: O_36  and  C_37
REMARK                            x       y       z     vdW  Elec       q    Type
REMARK                         _______ _______ _______ _____ _____    ______ ____
ROOT
ATOM      1  C   UNL     1       4.753   4.142  -0.840  0.00  0.00    +0.061 C 
ATOM      2  C   UNL     1       3.564   3.320  -0.411  0.00  0.00    +0.014 C 
ATOM      3  C   UNL     1       3.645   1.979  -0.414  0.00  0.00    +0.043 C 
ATOM      4  C   UNL     1       2.485   1.128   0.013  0.00  0.00    +0.090 C 
ATOM      5  C   UNL     1       1.201   1.918   0.001  0.00  0.00    +0.024 C 
ATOM      6  C   UNL     1       1.221   3.268  -0.013  0.00  0.00    +0.016 C 
ATOM      7  N   UNL     1       2.411   3.944  -0.022  0.00  0.00    -0.321 N 
ATOM      8  C   UNL     1      -0.060   4.064  -0.023  0.00  0.00    +0.058 C 
ATOM      9  C   UNL     1      -1.153   3.288   0.714  0.00  0.00    -0.023 C 
ATOM     10  C   UNL     1      -1.335   1.932   0.019  0.00  0.00    +0.086 C 
ATOM     11  C   UNL     1      -0.014   1.211   0.009  0.00  0.00    +0.162 C 
ATOM     12  O   UNL     1       0.002  -0.004   0.002  0.00  0.00    -0.292 OA
ATOM     13  C   UNL     1      -0.738   3.074   2.171  0.00  0.00    +0.011 C 
ATOM     14  C   UNL     1      -2.465   4.075   0.664  0.00  0.00    +0.011 C 
ATOM     15  H   UNL     1       2.435   4.999   0.288  0.00  0.00    +0.152 HD
ENDROOT
BRANCH   4  16
ATOM     16  C   UNL     1       2.737   0.614   1.407  0.00  0.00    -0.035 A 
ATOM     17  C   UNL     1       2.881   1.502   2.456  0.00  0.00    +0.004 A 
ATOM     18  C   UNL     1       3.107   1.030   3.736  0.00  0.00    +0.000 A 
ATOM     19  C   UNL     1       3.198  -0.330   3.965  0.00  0.00    +0.000 A 
ATOM     20  C   UNL     1       3.059  -1.218   2.915  0.00  0.00    +0.000 A 
ATOM     21  C   UNL     1       2.828  -0.747   1.636  0.00  0.00    +0.004 A 
ENDBRANCH   4  16
BRANCH   3  22
ATOM     22  C   UNL     1       4.848   1.357  -0.829  0.00  0.00    +0.247 C 
ATOM     23  O   UNL     1       5.796   2.036  -1.179  0.00  0.00    -0.270 OA
ATOM     24  N   UNL     1       4.943   0.012  -0.837  0.00  0.00    -0.275 N 
ATOM     25  H   UNL     1       4.086  -0.602  -0.521  0.00  0.00    +0.156 HD
BRANCH  24  26
ATOM     26  C   UNL     1       6.118  -0.596  -1.243  0.00  0.00    +0.087 A 
ATOM     27  C   UNL     1       6.406  -1.953  -1.319  0.00  0.00    +0.091 A 
ATOM     28  C   UNL     1       7.731  -2.333  -1.782  0.00  0.00    -0.021 A 
ATOM     29  C   UNL     1       8.548  -1.304  -2.092  0.00  0.00    -0.004 A 
ATOM     30  S   UNL     1       7.585   0.149  -1.786  0.00  0.00    -0.077 S 
ATOM     31  C   UNL     1       9.958  -1.389  -2.591  0.00  0.00    +0.043 C 
ATOM     32  C   UNL     1      10.473  -2.815  -2.345  0.00  0.00    +0.005 C 
ATOM     33  C   UNL     1       9.421  -3.811  -2.840  0.00  0.00    +0.005 C 
ATOM     34  C   UNL     1       8.198  -3.776  -1.922  0.00  0.00    +0.037 C 
BRANCH  27  35
ATOM     35  C   UNL     1       5.413  -2.963  -0.947  0.00  0.00    +0.342 C 
ATOM     36  O   UNL     1       4.648  -3.401  -1.785  0.00  0.00    -0.245 OA
BRANCH  35  37
ATOM     37  O   UNL     1       5.347  -3.407   0.325  0.00  0.00    -0.464 OA
ATOM     38  C   UNL     1       4.338  -4.408   0.621  0.00  0.00    +0.280 C 
ENDBRANCH  35  37
ENDBRANCH  27  35
ENDBRANCH  24  26
ENDBRANCH   3  22
TORSDOF 5
