REMARK  Name = ZINC39686649
REMARK  10 active torsions:
REMARK  status: ('A' for Active; 'I' for Inactive)
REMARK    1  A    between atoms: C_1  and  C_2
REMARK    2  A    between atoms: C_5  and  C_9
REMARK    3  A    between atoms: C_7  and  C_8
REMARK    4  A    between atoms: C_13  and  C_22
REMARK    5  A    between atoms: N_24  and  C_25
REMARK    6  A    between atoms: C_25  and  C_27
REMARK    7  A    between atoms: C_25  and  C_28
REMARK    8  A    between atoms: C_28  and  C_29
REMARK    9  A    between atoms: C_34  and  O_35
REMARK   10  A    between atoms: O_35  and  C_36
REMARK                            x       y       z     vdW  Elec       q    Type
REMARK                         _______ _______ _______ _____ _____    ______ ____
ROOT
ATOM      1  C   UNL     1      -0.014  -3.934  -0.279  0.00  0.00    +0.247 C 
ATOM      2  O   UNL     1       0.010  -4.583   0.749  0.00  0.00    -0.270 OA
ATOM      3  N   UNL     1      -0.129  -4.559  -1.467  0.00  0.00    -0.296 N 
ATOM      4  C   UNL     1      -0.052  -3.959  -2.820  0.00  0.00    +0.121 C 
ATOM      5  C   UNL     1       0.732  -4.991  -3.661  0.00  0.00    +0.100 C 
ATOM      6  C   UNL     1       0.523  -6.330  -2.933  0.00  0.00    -0.004 C 
ATOM      7  C   UNL     1      -0.356  -6.003  -1.717  0.00  0.00    +0.115 C 
ATOM      8  C   UNL     1       1.863  -6.895  -2.471  0.00  0.00    -0.010 C 
ATOM      9  C   UNL     1       1.635  -8.253  -1.801  0.00  0.00    -0.082 C 
ATOM     10  N   UNL     1       0.997  -9.169  -2.753  0.00  0.00    +0.379 N 
ATOM     11  C   UNL     1      -0.332  -8.664  -3.121  0.00  0.00    -0.082 C 
ATOM     12  C   UNL     1      -0.187  -7.324  -3.847  0.00  0.00    -0.010 C 
ATOM     13  H   UNL     1       1.568  -9.244  -3.582  0.00  0.00    -0.086 HD
ATOM     14  H   UNL     1       0.903 -10.081  -2.330  0.00  0.00    -0.086 HD
ENDROOT
BRANCH   1  19
ATOM     15  C   UNL     1       0.360   1.804  -0.068  0.00  0.00    +0.044 C 
ATOM     16  C   UNL     1       0.262   0.301  -0.123  0.00  0.00    -0.047 A 
ATOM     17  C   UNL     1      -0.281  -0.313  -1.238  0.00  0.00    +0.004 A 
ATOM     18  C   UNL     1      -0.373  -1.688  -1.295  0.00  0.00    +0.013 A 
ATOM     19  C   UNL     1       0.082  -2.460  -0.225  0.00  0.00    +0.037 A 
ATOM     20  C   UNL     1       0.628  -1.834   0.897  0.00  0.00    +0.016 A 
ATOM     21  C   UNL     1       0.720  -0.458   0.939  0.00  0.00    -0.047 A 
ATOM     22  C   UNL     1       1.314   0.220   2.147  0.00  0.00    +0.044 C 
ENDBRANCH   1  19
BRANCH   5  23
ATOM     23  C   UNL     1       2.196  -4.635  -3.699  0.00  0.00    +0.218 C 
ATOM     24  O   UNL     1       2.722  -4.132  -2.729  0.00  0.00    -0.275 OA
ATOM     25  N   UNL     1       2.919  -4.875  -4.810  0.00  0.00    -0.312 N 
ATOM     26  H   UNL     1       2.516  -5.337  -5.561  0.00  0.00    +0.149 HD
BRANCH  25  27
ATOM     27  C   UNL     1       4.316  -4.438  -4.883  0.00  0.00    +0.074 C 
ATOM     28  C   UNL     1       4.367  -2.955  -5.258  0.00  0.00    +0.028 C 
BRANCH  27  29
ATOM     29  C   UNL     1       5.052  -5.257  -5.945  0.00  0.00    +0.060 C 
BRANCH  29  30
ATOM     30  C   UNL     1       5.124  -6.697  -5.507  0.00  0.00    -0.004 A 
ATOM     31  C   UNL     1       6.189  -7.135  -4.743  0.00  0.00    +0.007 A 
ATOM     32  C   UNL     1       6.256  -8.456  -4.341  0.00  0.00    +0.000 A 
ATOM     33  C   UNL     1       5.257  -9.343  -4.702  0.00  0.00    +0.004 A 
ATOM     34  C   UNL     1       4.191  -8.910  -5.465  0.00  0.00    +0.046 A 
ATOM     35  C   UNL     1       4.118  -7.583  -5.865  0.00  0.00    +0.123 A 
BRANCH  35  36
ATOM     36  O   UNL     1       3.067  -7.154  -6.611  0.00  0.00    -0.495 OA
ATOM     37  C   UNL     1       2.036  -8.104  -6.888  0.00  0.00    +0.277 C 
ENDBRANCH  35  36
ENDBRANCH  29  30
ENDBRANCH  27  29
ENDBRANCH  25  27
ENDBRANCH   5  23
TORSDOF 6
