REMARK  Name = ZINC35303144
REMARK  8 active torsions:
REMARK  status: ('A' for Active; 'I' for Inactive)
REMARK    1  A    between atoms: C_1  and  C_2
REMARK    2  A    between atoms: C_2  and  C_3
REMARK    3  A    between atoms: C_3  and  C_5
REMARK    4  A    between atoms: C_3  and  C_6
REMARK    5  A    between atoms: C_6  and  C_8
REMARK    6  A    between atoms: C_6  and  N_25
REMARK    7  A    between atoms: C_14  and  C_16
REMARK    8  A    between atoms: N_28  and  C_29
REMARK                            x       y       z     vdW  Elec       q    Type
REMARK                         _______ _______ _______ _____ _____    ______ ____
ROOT
ATOM      1  C   UNL     1      -1.168  -2.109  -0.212  0.00  0.00    +0.163 C 
ENDROOT
BRANCH   1   2
ATOM      2  C   UNL     1      -0.760  -2.581   1.159  0.00  0.00    +0.239 C 
ATOM      3  O   UNL     1       0.231  -3.268   1.294  0.00  0.00    -0.273 OA
ATOM      4  N   UNL     1      -1.495  -2.240   2.236  0.00  0.00    -0.262 N 
ATOM      5  C   UNL     1      -1.184  -2.766   3.485  0.00  0.00    +0.188 A 
ATOM      6  N   UNL     1      -0.217  -3.602   3.841  0.00  0.00    -0.125 NA
ATOM      7  N   UNL     1      -0.072  -3.985   5.034  0.00  0.00    -0.140 NA
ATOM      8  C   UNL     1      -0.878  -3.572   6.005  0.00  0.00    +0.134 A 
ATOM      9  S   UNL     1      -1.968  -2.500   5.072  0.00  0.00    -0.030 S 
ATOM     10  H   UNL     1      -2.241  -1.628   2.140  0.00  0.00    +0.157 HD
BRANCH   8  11
ATOM     11  C   UNL     1      -0.874  -3.900   7.446  0.00  0.00    +0.013 A 
ATOM     12  C   UNL     1      -1.835  -3.346   8.293  0.00  0.00    +0.014 A 
ATOM     13  C   UNL     1      -1.830  -3.654   9.637  0.00  0.00    +0.050 A 
ATOM     14  C   UNL     1      -0.871  -4.513  10.153  0.00  0.00    +0.166 A 
ATOM     15  C   UNL     1       0.093  -5.070   9.313  0.00  0.00    +0.167 A 
ATOM     16  C   UNL     1       0.089  -4.769   7.963  0.00  0.00    +0.060 A 
ATOM     17  O   UNL     1       0.910  -5.871  10.057  0.00  0.00    -0.453 OA
ATOM     18  C   UNL     1       0.690  -5.479  11.425  0.00  0.00    +0.466 C 
ATOM     19  O   UNL     1      -0.655  -4.967  11.422  0.00  0.00    -0.453 OA
ENDBRANCH   8  11
ENDBRANCH   1   2
BRANCH   1  20
ATOM     20  N   UNL     1      -0.582  -2.989  -1.226  0.00  0.00    -0.288 N 
ATOM     21  C   UNL     1      -1.166  -3.106  -2.435  0.00  0.00    +0.304 C 
ATOM     22  O   UNL     1      -2.179  -2.482  -2.684  0.00  0.00    -0.252 OA
ATOM     23  N   UNL     1      -0.626  -3.915  -3.368  0.00  0.00    -0.269 N 
ATOM     24  H   UNL     1       0.226  -3.487  -1.028  0.00  0.00    +0.151 HD
ATOM     25  H   UNL     1       0.142  -4.465  -3.148  0.00  0.00    +0.156 HD
BRANCH  23  26
ATOM     26  C   UNL     1      -1.173  -3.962  -4.652  0.00  0.00    +0.042 A 
ATOM     27  C   UNL     1      -2.513  -3.704  -4.847  0.00  0.00    +0.024 A 
ATOM     28  C   UNL     1      -3.068  -3.749  -6.122  0.00  0.00    +0.002 A 
ATOM     29  C   UNL     1      -2.306  -4.048  -7.211  0.00  0.00    +0.008 A 
ATOM     30  C   UNL     1      -0.936  -4.318  -7.055  0.00  0.00    -0.016 A 
ATOM     31  C   UNL     1      -0.358  -4.269  -5.762  0.00  0.00    +0.003 A 
ATOM     32  C   UNL     1       1.012  -4.534  -5.609  0.00  0.00    +0.010 A 
ATOM     33  C   UNL     1       1.768  -4.827  -6.703  0.00  0.00    +0.001 A 
ATOM     34  C   UNL     1       1.202  -4.868  -7.976  0.00  0.00    +0.001 A 
ATOM     35  C   UNL     1      -0.125  -4.630  -8.160  0.00  0.00    +0.008 A 
ENDBRANCH  23  26
ENDBRANCH   1  20
BRANCH   1  36
ATOM     36  C   UNL     1      -0.671  -0.678  -0.428  0.00  0.00    +0.015 C 
ATOM     37  C   UNL     1       0.859  -0.668  -0.448  0.00  0.00    +0.010 C 
BRANCH  36  39
ATOM     38  C   UNL     1      -0.808   1.320  -1.921  0.00  0.00    +0.004 C 
ATOM     39  C   UNL     1      -1.202  -0.150  -1.762  0.00  0.00    +0.002 C 
ENDBRANCH  36  39
ENDBRANCH   1  36
TORSDOF 6
