REMARK  Name = ZINC33006957
REMARK  8 active torsions:
REMARK  status: ('A' for Active; 'I' for Inactive)
REMARK    1  A    between atoms: C_1  and  C_2
REMARK    2  A    between atoms: C_5  and  S_8
REMARK    3  A    between atoms: S_8  and  N_11
REMARK    4  A    between atoms: N_11  and  C_12
REMARK    5  A    between atoms: C_15  and  N_21
REMARK    6  A    between atoms: C_17  and  C_18
REMARK    7  A    between atoms: N_24  and  C_27
REMARK    8  A    between atoms: C_31  and  C_33
REMARK                            x       y       z     vdW  Elec       q    Type
REMARK                         _______ _______ _______ _____ _____    ______ ____
ROOT
ATOM      1  C   UNL     1      -7.913  -2.987   1.249  0.00  0.00    +0.062 A 
ATOM      2  C   UNL     1      -6.882  -3.171   0.336  0.00  0.00    +0.027 A 
ATOM      3  C   UNL     1      -5.672  -2.535   0.520  0.00  0.00    +0.025 A 
ATOM      4  C   UNL     1      -5.470  -1.714   1.625  0.00  0.00    +0.031 A 
ATOM      5  C   UNL     1      -6.487  -1.520   2.543  0.00  0.00    +0.040 A 
ATOM      6  C   UNL     1      -7.718  -2.155   2.363  0.00  0.00    +0.087 A 
ENDROOT
BRANCH   4   7
ATOM      7  N   UNL     1      -4.236  -1.077   1.806  0.00  0.00    -0.327 N 
ATOM      8  C   UNL     1      -3.304  -1.419   0.722  0.00  0.00    +0.124 C 
ATOM      9  C   UNL     1      -1.946  -0.769   0.996  0.00  0.00    +0.124 C 
ATOM     10  N   UNL     1      -2.115   0.687   1.103  0.00  0.00    -0.327 N 
ATOM     11  C   UNL     1      -3.047   1.028   2.187  0.00  0.00    +0.124 C 
ATOM     12  C   UNL     1      -4.405   0.379   1.912  0.00  0.00    +0.124 C 
BRANCH  10  13
ATOM     13  C   UNL     1      -0.884   1.322   1.282  0.00  0.00    +0.030 A 
ATOM     14  C   UNL     1       0.284   0.572   1.338  0.00  0.00    +0.023 A 
ATOM     15  C   UNL     1       1.500   1.204   1.510  0.00  0.00    +0.002 A 
ATOM     16  C   UNL     1       1.556   2.580   1.633  0.00  0.00    +0.003 A 
ATOM     17  C   UNL     1       0.394   3.329   1.583  0.00  0.00    -0.049 A 
ATOM     18  C   UNL     1      -0.826   2.704   1.411  0.00  0.00    +0.026 A 
ATOM     19  C   UNL     1       0.459   4.829   1.715  0.00  0.00    +0.044 C 
ENDBRANCH  10  13
ENDBRANCH   4   7
BRANCH   6  20
ATOM     20  C   UNL     1      -8.806  -1.954   3.335  0.00  0.00    +0.388 C 
ATOM     21  O   UNL     1      -9.875  -2.508   3.175  0.00  0.00    -0.241 OA
ATOM     22  O   UNL     1      -8.615  -1.154   4.403  0.00  0.00    -0.241 OA
ENDBRANCH   6  20
BRANCH   1  23
ATOM     23  N   UNL     1      -9.135  -3.624   1.059  0.00  0.00    -0.215 N 
ATOM     24  H   UNL     1     -10.070  -3.116   1.339  0.00  0.00    +0.174 HD
BRANCH  23  25
ATOM     25  S   UNL     1      -9.183  -5.148   0.412  0.00  0.00    +0.072 S 
ATOM     26  O   UNL     1     -10.538  -5.571   0.468  0.00  0.00    -0.150 OA
ATOM     27  O   UNL     1      -8.451  -5.095  -0.805  0.00  0.00    -0.150 OA
BRANCH  25  32
ATOM     28  C   UNL     1      -6.093  -8.762   4.126  0.00  0.00    +0.044 C 
ATOM     29  C   UNL     1      -6.865  -7.860   3.198  0.00  0.00    -0.050 A 
ATOM     30  C   UNL     1      -8.222  -7.674   3.385  0.00  0.00    +0.005 A 
ATOM     31  C   UNL     1      -8.930  -6.846   2.534  0.00  0.00    +0.029 A 
ATOM     32  C   UNL     1      -8.280  -6.203   1.497  0.00  0.00    +0.109 A 
ATOM     33  C   UNL     1      -6.924  -6.393   1.307  0.00  0.00    +0.029 A 
ATOM     34  C   UNL     1      -6.216  -7.217   2.160  0.00  0.00    +0.005 A 
ENDBRANCH  25  32
ENDBRANCH  23  25
ENDBRANCH   1  23
TORSDOF 6
