REMARK  Name = ZINC13272581
REMARK  7 active torsions:
REMARK  status: ('A' for Active; 'I' for Inactive)
REMARK    1  A    between atoms: C_9  and  N_11
REMARK    2  A    between atoms: N_11  and  C_12
REMARK    3  A    between atoms: C_15  and  S_21
REMARK    4  A    between atoms: C_17  and  N_18
REMARK    5  A    between atoms: S_21  and  N_24
REMARK    6  A    between atoms: N_24  and  C_25
REMARK    7  A    between atoms: C_30  and  C_31
REMARK                            x       y       z     vdW  Elec       q    Type
REMARK                         _______ _______ _______ _____ _____    ______ ____
ROOT
ATOM      1  C   UNL     1       0.983   6.342   2.807  0.00  0.00    +0.058 A 
ATOM      2  C   UNL     1       1.879   6.103   1.772  0.00  0.00    +0.027 A 
ATOM      3  C   UNL     1       3.185   6.540   1.878  0.00  0.00    +0.031 A 
ATOM      4  C   UNL     1       3.601   7.214   3.012  0.00  0.00    +0.111 A 
ATOM      5  C   UNL     1       2.712   7.453   4.043  0.00  0.00    +0.063 A 
ATOM      6  C   UNL     1       1.403   7.024   3.942  0.00  0.00    +0.149 A 
ENDROOT
BRANCH   6   7
ATOM      7  N   UNL     1       0.450   7.286   5.043  0.00  0.00    +0.058 N 
ATOM      8  O   UNL     1      -0.709   7.567   4.793  0.00  0.00    -0.126 OA
ATOM      9  O   UNL     1       0.824   7.221   6.201  0.00  0.00    -0.126 OA
ENDBRANCH   6   7
BRANCH   4  10
ATOM     10  S   UNL     1       5.268   7.769   3.142  0.00  0.00    +0.072 S 
ATOM     11  O   UNL     1       5.548   7.893   4.529  0.00  0.00    -0.150 OA
ATOM     12  O   UNL     1       6.040   6.944   2.280  0.00  0.00    -0.150 OA
BRANCH  10  13
ATOM     13  N   UNL     1       5.325   9.299   2.509  0.00  0.00    -0.215 N 
ATOM     14  H   UNL     1       5.892   9.487   1.745  0.00  0.00    +0.174 HD
BRANCH  13  15
ATOM     15  C   UNL     1       4.562  10.312   3.073  0.00  0.00    +0.062 A 
ATOM     16  C   UNL     1       4.359  10.351   4.447  0.00  0.00    +0.025 A 
ATOM     17  C   UNL     1       3.604  11.362   5.006  0.00  0.00    +0.002 A 
ATOM     18  C   UNL     1       3.034  12.338   4.204  0.00  0.00    +0.001 A 
ATOM     19  C   UNL     1       3.220  12.314   2.839  0.00  0.00    +0.017 A 
ATOM     20  C   UNL     1       3.987  11.300   2.258  0.00  0.00    +0.085 A 
BRANCH  20  21
ATOM     21  C   UNL     1       4.189  11.267   0.799  0.00  0.00    +0.388 C 
ATOM     22  O   UNL     1       4.856  10.383   0.298  0.00  0.00    -0.241 OA
ATOM     23  O   UNL     1       3.635  12.217   0.021  0.00  0.00    -0.241 OA
ENDBRANCH  20  21
ENDBRANCH  13  15
ENDBRANCH  10  13
ENDBRANCH   4  10
BRANCH   1  24
ATOM     24  N   UNL     1      -0.339   5.902   2.704  0.00  0.00    -0.335 N 
ATOM     25  H   UNL     1      -0.946   6.011   3.452  0.00  0.00    +0.147 HD
BRANCH  24  34
ATOM     26  C   UNL     1      -0.447   1.028   1.626  0.00  0.00    +0.000 A 
ATOM     27  C   UNL     1       0.704   1.730   1.321  0.00  0.00    +0.000 A 
ATOM     28  C   UNL     1       0.671   3.109   1.249  0.00  0.00    +0.006 A 
ATOM     29  C   UNL     1      -0.511   3.791   1.482  0.00  0.00    -0.024 A 
ATOM     30  C   UNL     1      -1.662   3.089   1.787  0.00  0.00    -0.042 A 
ATOM     31  C   UNL     1      -1.629   1.706   1.853  0.00  0.00    +0.004 A 
ATOM     32  C   UNL     1      -2.810   4.053   1.996  0.00  0.00    +0.037 C 
ATOM     33  C   UNL     1      -2.344   5.380   1.360  0.00  0.00    +0.031 C 
ATOM     34  C   UNL     1      -0.807   5.276   1.465  0.00  0.00    +0.101 C 
ENDBRANCH  24  34
ENDBRANCH   1  24
TORSDOF 7
