REMARK  Name = ZINC33113028
REMARK  5 active torsions:
REMARK  status: ('A' for Active; 'I' for Inactive)
REMARK    1  A    between atoms: C_4  and  N_11
REMARK    2  A    between atoms: C_5  and  C_7
REMARK    3  A    between atoms: C_18  and  C_21
REMARK    4  A    between atoms: C_24  and  C_26
REMARK    5  A    between atoms: N_28  and  C_29
REMARK                            x       y       z     vdW  Elec       q    Type
REMARK                         _______ _______ _______ _____ _____    ______ ____
ROOT
ATOM      1  N   UNL     1      -4.019   3.321   1.578  0.00  0.00    -0.269 N 
ATOM      2  C   UNL     1      -3.232   3.188   0.492  0.00  0.00    +0.306 C 
ATOM      3  O   UNL     1      -3.482   3.815  -0.520  0.00  0.00    -0.252 OA
ATOM      4  N   UNL     1      -2.170   2.361   0.526  0.00  0.00    -0.285 N 
ATOM      5  C   UNL     1      -1.368   2.120  -0.682  0.00  0.00    +0.109 C 
ATOM      6  C   UNL     1       0.102   2.407  -0.363  0.00  0.00    +0.020 C 
ATOM      7  C   UNL     1       0.529   1.576   0.850  0.00  0.00    +0.013 C 
ATOM      8  C   UNL     1      -0.315   1.972   2.063  0.00  0.00    +0.064 C 
ATOM      9  C   UNL     1      -1.790   1.681   1.772  0.00  0.00    +0.119 C 
ATOM     10  H   UNL     1      -3.745   2.822   2.519  0.00  0.00    +0.156 HD
ENDROOT
BRANCH   1  14
ATOM     11  C   UNL     1      -7.484   5.625   1.373  0.00  0.00    +0.001 A 
ATOM     12  C   UNL     1      -6.899   5.154   0.212  0.00  0.00    +0.002 A 
ATOM     13  C   UNL     1      -5.748   4.394   0.276  0.00  0.00    +0.024 A 
ATOM     14  C   UNL     1      -5.183   4.095   1.509  0.00  0.00    +0.046 A 
ATOM     15  C   UNL     1      -5.772   4.570   2.673  0.00  0.00    +0.076 A 
ATOM     16  C   UNL     1      -6.921   5.334   2.602  0.00  0.00    +0.014 A 
BRANCH  15  17
ATOM     17  C   UNL     1      -5.159   4.253   4.013  0.00  0.00    +0.419 C 
ATOM     18  F   UNL     1      -5.926   4.837   5.027  0.00  0.00    -0.166 F 
ATOM     19  F   UNL     1      -5.125   2.867   4.194  0.00  0.00    -0.166 F 
ATOM     20  F   UNL     1      -3.857   4.763   4.062  0.00  0.00    -0.166 F 
ENDBRANCH  15  17
ENDBRANCH   1  14
BRANCH   8  21
ATOM     21  C   UNL     1       0.127   1.177   3.264  0.00  0.00    +0.107 A 
ATOM     22  N   UNL     1       0.139  -0.133   3.447  0.00  0.00    -0.145 NA
ATOM     23  N   UNL     1       0.544  -0.654   4.523  0.00  0.00    -0.136 NA
ATOM     24  C   UNL     1       0.976   0.114   5.519  0.00  0.00    +0.187 A 
ATOM     25  S   UNL     1       0.766   1.731   4.784  0.00  0.00    -0.046 S 
BRANCH  24  26
ATOM     26  C   UNL     1       1.488  -0.261   6.848  0.00  0.00    +0.275 C 
ATOM     27  O   UNL     1       1.840   0.602   7.630  0.00  0.00    -0.268 OA
ATOM     28  N   UNL     1       1.568  -1.560   7.198  0.00  0.00    -0.280 N 
ATOM     29  H   UNL     1       1.180  -2.337   6.522  0.00  0.00    +0.155 HD
BRANCH  28  30
ATOM     30  C   UNL     1       2.143  -1.922   8.421  0.00  0.00    +0.034 A 
ATOM     31  C   UNL     1       2.883  -3.093   8.523  0.00  0.00    +0.026 A 
ATOM     32  C   UNL     1       3.455  -3.445   9.730  0.00  0.00    +0.040 A 
ATOM     33  C   UNL     1       3.282  -2.636  10.841  0.00  0.00    +0.124 A 
ATOM     34  C   UNL     1       2.541  -1.471  10.743  0.00  0.00    +0.040 A 
ATOM     35  C   UNL     1       1.971  -1.113   9.537  0.00  0.00    +0.026 A 
ATOM     36  F   UNL     1       3.838  -2.985  12.022  0.00  0.00    -0.205 F 
ENDBRANCH  28  30
ENDBRANCH  24  26
ENDBRANCH   8  21
TORSDOF 5
