REMARK  Name = ZINC19514806
REMARK  3 active torsions:
REMARK  status: ('A' for Active; 'I' for Inactive)
REMARK    1  A    between atoms: C_1  and  C_2
REMARK    2  A    between atoms: C_4  and  N_9
REMARK    3  A    between atoms: C_10  and  C_12
REMARK                            x       y       z     vdW  Elec       q    Type
REMARK                         _______ _______ _______ _____ _____    ______ ____
ROOT
ATOM      1  N   UNL     1       3.299  -5.013   0.461  0.00  0.00    -0.282 N 
ATOM      2  C   UNL     1       2.409  -4.156  -0.078  0.00  0.00    +0.260 C 
ATOM      3  O   UNL     1       1.548  -4.568  -0.828  0.00  0.00    -0.271 OA
ATOM      4  H   UNL     1       4.131  -4.630   1.070  0.00  0.00    +0.155 HD
ENDROOT
BRANCH   2   5
ATOM      5  C   UNL     1       2.483  -2.687   0.249  0.00  0.00    +0.276 C 
ATOM      6  C   UNL     1       3.784  -2.099  -0.316  0.00  0.00    +0.155 C 
ATOM      7  N   UNL     1       3.788  -0.657  -0.015  0.00  0.00    -0.337 N 
ATOM      8  C   UNL     1       2.587   0.049  -0.186  0.00  0.00    +0.070 A 
ATOM      9  C   UNL     1       2.591   1.435  -0.196  0.00  0.00    +0.026 A 
ATOM     10  C   UNL     1       1.404   2.126  -0.361  0.00  0.00    +0.002 A 
ATOM     11  C   UNL     1       0.217   1.436  -0.517  0.00  0.00    +0.004 A 
ATOM     12  C   UNL     1       0.207   0.053  -0.509  0.00  0.00    +0.047 A 
ATOM     13  C   UNL     1       1.392  -0.648  -0.345  0.00  0.00    +0.142 A 
ATOM     14  O   UNL     1       1.374  -2.007  -0.343  0.00  0.00    -0.476 OA
ATOM     15  H   UNL     1       4.711  -0.170   0.332  0.00  0.00    +0.146 HD
ENDBRANCH   2   5
BRANCH   1  19
ATOM     16  C   UNL     1       5.383  -9.423  -0.159  0.00  0.00    +0.045 C 
ATOM     17  C   UNL     1       4.158  -8.550  -0.059  0.00  0.00    -0.035 A 
ATOM     18  C   UNL     1       4.293  -7.192   0.153  0.00  0.00    +0.027 A 
ATOM     19  C   UNL     1       3.164  -6.389   0.246  0.00  0.00    +0.034 A 
ATOM     20  C   UNL     1       1.901  -6.955   0.130  0.00  0.00    +0.024 A 
ATOM     21  C   UNL     1       1.772  -8.313  -0.087  0.00  0.00    +0.017 A 
ATOM     22  C   UNL     1       2.899  -9.111  -0.179  0.00  0.00    +0.021 A 
ATOM     23 BR   UNL     1       2.717 -10.970  -0.469  0.00  0.00    -0.050 Br
ENDBRANCH   1  19
TORSDOF 2
