REMARK  Name = ZINC08132888
REMARK  6 active torsions:
REMARK  status: ('A' for Active; 'I' for Inactive)
REMARK    1  A    between atoms: C_4  and  N_7
REMARK    2  A    between atoms: C_13  and  C_16
REMARK    3  A    between atoms: N_18  and  C_19
REMARK    4  A    between atoms: C_19  and  C_20
REMARK    5  A    between atoms: C_20  and  C_22
REMARK    6  A    between atoms: C_20  and  N_63
REMARK                            x       y       z     vdW  Elec       q    Type
REMARK                         _______ _______ _______ _____ _____    ______ ____
ROOT
ATOM      1  C   UNL     1       5.899   2.102   2.356  0.00  0.00    +0.216 C 
ATOM      2  O   UNL     1       5.707   2.779   3.343  0.00  0.00    -0.276 OA
ATOM      3  N   UNL     1       4.918   1.944   1.445  0.00  0.00    -0.316 N 
ATOM      4  H   UNL     1       5.072   1.402   0.655  0.00  0.00    +0.149 HD
ENDROOT
BRANCH   1  11
ATOM      5  N   UNL     1       9.960  -2.525   3.276  0.00  0.00    -0.269 N 
ATOM      6  C   UNL     1      10.013  -1.218   3.599  0.00  0.00    +0.306 C 
ATOM      7  O   UNL     1      10.670  -0.854   4.555  0.00  0.00    -0.252 OA
ATOM      8  N   UNL     1       9.339  -0.314   2.861  0.00  0.00    -0.285 N 
ATOM      9  C   UNL     1       9.530   1.126   3.083  0.00  0.00    +0.110 C 
ATOM     10  C   UNL     1       8.162   1.775   3.316  0.00  0.00    +0.032 C 
ATOM     11  C   UNL     1       7.235   1.437   2.146  0.00  0.00    +0.078 C 
ATOM     12  C   UNL     1       7.043  -0.079   2.066  0.00  0.00    +0.032 C 
ATOM     13  C   UNL     1       8.399  -0.749   1.819  0.00  0.00    +0.110 C 
ATOM     14  H   UNL     1       9.341  -2.832   2.595  0.00  0.00    +0.156 HD
BRANCH   5  18
ATOM     15  C   UNL     1      12.453  -5.250   5.205  0.00  0.00    +0.000 A 
ATOM     16  C   UNL     1      11.945  -5.545   3.953  0.00  0.00    +0.002 A 
ATOM     17  C   UNL     1      11.118  -4.644   3.311  0.00  0.00    +0.023 A 
ATOM     18  C   UNL     1      10.797  -3.441   3.924  0.00  0.00    +0.035 A 
ATOM     19  C   UNL     1      11.312  -3.144   5.179  0.00  0.00    +0.023 A 
ATOM     20  C   UNL     1      12.134  -4.052   5.818  0.00  0.00    +0.002 A 
ENDBRANCH   5  18
ENDBRANCH   1  11
BRANCH   3  21
ATOM     21  C   UNL     1       3.619   2.590   1.649  0.00  0.00    +0.096 C 
BRANCH  21  22
ATOM     22  C   UNL     1       2.692   2.252   0.479  0.00  0.00    +0.016 C 
BRANCH  22  28
ATOM     23  C   UNL     1       3.712   4.049  -0.783  0.00  0.00    -0.078 C 
ATOM     24  C   UNL     1       4.512   4.369  -2.048  0.00  0.00    -0.019 C 
ATOM     25  C   UNL     1       3.663   4.044  -3.280  0.00  0.00    -0.004 C 
ATOM     26  C   UNL     1       3.250   2.570  -3.231  0.00  0.00    -0.019 C 
ATOM     27  C   UNL     1       2.486   2.302  -1.932  0.00  0.00    -0.078 C 
ATOM     28  N   UNL     1       3.367   2.611  -0.786  0.00  0.00    +0.387 N 
ATOM     29  H   UNL     1       4.230   2.062  -0.871  0.00  0.00    -0.081 HD
ENDBRANCH  22  28
BRANCH  22  30
ATOM     30  C   UNL     1       1.400   3.014   0.626  0.00  0.00    +0.093 A 
ATOM     31  C   UNL     1       0.202   2.481   0.924  0.00  0.00    +0.043 A 
ATOM     32  C   UNL     1      -0.725   3.548   0.954  0.00  0.00    +0.041 A 
ATOM     33  C   UNL     1      -0.036   4.670   0.681  0.00  0.00    +0.195 A 
ATOM     34  O   UNL     1       1.250   4.341   0.480  0.00  0.00    -0.469 OA
ENDBRANCH  22  30
ENDBRANCH  21  22
ENDBRANCH   3  21
TORSDOF 6
