REMARK  Name = ZINC36188741
REMARK  12 active torsions:
REMARK  status: ('A' for Active; 'I' for Inactive)
REMARK    1  A    between atoms: C_1  and  C_2
REMARK    2  A    between atoms: C_2  and  O_3
REMARK    3  A    between atoms: O_3  and  C_4
REMARK    4  A    between atoms: C_4  and  C_6
REMARK    5  A    between atoms: C_7  and  C_36
REMARK    6  A    between atoms: C_8  and  C_32
REMARK    7  A    between atoms: C_10  and  N_11
REMARK    8  A    between atoms: C_12  and  C_14
REMARK    9  A    between atoms: C_14  and  O_15
REMARK   10  A    between atoms: O_15  and  C_16
REMARK   11  A    between atoms: C_16  and  C_18
REMARK   12  A    between atoms: N_34  and  C_35
REMARK                            x       y       z     vdW  Elec       q    Type
REMARK                         _______ _______ _______ _____ _____    ______ ____
ROOT
ATOM      1  N   UNL     1       3.750  -2.426   1.391  0.00  0.00    -0.277 N 
ATOM      2  C   UNL     1       5.053  -2.736   1.538  0.00  0.00    +0.255 C 
ATOM      3  O   UNL     1       5.453  -3.193   2.588  0.00  0.00    -0.272 OA
ATOM      4  H   UNL     1       3.429  -2.061   0.552  0.00  0.00    +0.155 HD
ENDROOT
BRANCH   1   9
ATOM      5  C   UNL     1       1.498  -2.372   2.469  0.00  0.00    +0.091 A 
ATOM      6  C   UNL     1       0.816  -2.667   3.642  0.00  0.00    -0.015 A 
ATOM      7  C   UNL     1       1.563  -3.183   4.665  0.00  0.00    +0.079 A 
ATOM      8  S   UNL     1       3.200  -3.243   3.964  0.00  0.00    -0.068 S 
ATOM      9  C   UNL     1       2.869  -2.630   2.436  0.00  0.00    +0.087 A 
ATOM     10  C   UNL     1      -0.666  -2.432   3.780  0.00  0.00    +0.046 C 
BRANCH   7  11
ATOM     11  C   UNL     1       1.127  -3.586   6.004  0.00  0.00    +0.251 C 
ATOM     12  O   UNL     1      -0.043  -3.476   6.321  0.00  0.00    -0.270 OA
ATOM     13  N   UNL     1       2.021  -4.078   6.885  0.00  0.00    -0.314 N 
ATOM     14  C   UNL     1       1.584  -4.481   8.224  0.00  0.00    +0.128 C 
ATOM     15  H   UNL     1       2.953  -4.166   6.632  0.00  0.00    +0.149 HD
ENDBRANCH   7  11
BRANCH   5  16
ATOM     16  C   UNL     1       0.801  -1.814   1.304  0.00  0.00    +0.342 C 
ATOM     17  O   UNL     1       0.321  -2.556   0.470  0.00  0.00    -0.245 OA
BRANCH  16  18
ATOM     18  O   UNL     1       0.693  -0.477   1.160  0.00  0.00    -0.461 OA
BRANCH  18  20
ATOM     19  C   UNL     1      -0.019   1.526   0.010  0.00  0.00    +0.048 C 
ATOM     20  C   UNL     1       0.002  -0.004   0.002  0.00  0.00    +0.229 C 
ENDBRANCH  18  20
ENDBRANCH  16  18
ENDBRANCH   5  16
ENDBRANCH   1   9
BRANCH   2  21
ATOM     21  C   UNL     1       6.013  -2.514   0.398  0.00  0.00    +0.328 C 
BRANCH  21  22
ATOM     22  O   UNL     1       7.326  -2.916   0.796  0.00  0.00    -0.452 OA
BRANCH  22  23
ATOM     23  C   UNL     1       8.309  -2.781  -0.115  0.00  0.00    +0.340 C 
ATOM     24  O   UNL     1       8.059  -2.335  -1.217  0.00  0.00    -0.245 OA
BRANCH  23  25
ATOM     25  C   UNL     1       9.689  -3.175   0.225  0.00  0.00    +0.060 A 
ATOM     26  C   UNL     1       9.976  -3.696   1.496  0.00  0.00    +0.017 A 
ATOM     27  C   UNL     1      11.246  -4.064   1.825  0.00  0.00    +0.027 A 
ATOM     28  C   UNL     1      12.280  -3.928   0.900  0.00  0.00    +0.047 A 
ATOM     29  C   UNL     1      12.005  -3.406  -0.382  0.00  0.00    +0.004 A 
ATOM     30  C   UNL     1      10.705  -3.036  -0.716  0.00  0.00    +0.025 A 
ATOM     31  C   UNL     1      13.282  -3.396  -1.090  0.00  0.00    -0.019 A 
ATOM     32  C   UNL     1      14.211  -3.885  -0.247  0.00  0.00    +0.020 A 
ATOM     33  N   UNL     1      13.625  -4.207   0.945  0.00  0.00    -0.358 N 
ATOM     34  H   UNL     1      14.091  -4.578   1.711  0.00  0.00    +0.166 HD
ATOM     35  C   UNL     1      15.671  -4.039  -0.608  0.00  0.00    +0.053 C 
ATOM     36  C   UNL     1      15.806  -3.964  -2.133  0.00  0.00    +0.006 C 
ATOM     37  C   UNL     1      15.070  -2.726  -2.652  0.00  0.00    +0.005 C 
ATOM     38  C   UNL     1      13.558  -2.933  -2.497  0.00  0.00    +0.037 C 
ENDBRANCH  23  25
ENDBRANCH  22  23
ENDBRANCH  21  22
ENDBRANCH   2  21
TORSDOF 9
