REMARK  Name = ZINC09642754
REMARK  5 active torsions:
REMARK  status: ('A' for Active; 'I' for Inactive)
REMARK    1  A    between atoms: C_5  and  C_7
REMARK    2  A    between atoms: C_7  and  O_9
REMARK    3  A    between atoms: O_9  and  C_10
REMARK    4  A    between atoms: C_10  and  C_11
REMARK    5  A    between atoms: N_16  and  C_17
REMARK                            x       y       z     vdW  Elec       q    Type
REMARK                         _______ _______ _______ _____ _____    ______ ____
ROOT
ATOM      1  C   UNL     1       3.820  -4.777  -0.060  0.00  0.00    +0.258 C 
ATOM      2  O   UNL     1       4.762  -4.014  -0.065  0.00  0.00    -0.272 OA
ATOM      3  N   UNL     1       4.031  -6.108  -0.069  0.00  0.00    -0.237 N 
ATOM      4  C   UNL     1       5.289  -6.591  -0.084  0.00  0.00    +0.306 C 
ATOM      5  O   UNL     1       6.234  -5.826  -0.089  0.00  0.00    -0.252 OA
ATOM      6  N   UNL     1       5.500  -7.922  -0.093  0.00  0.00    -0.294 N 
ATOM      7  H   UNL     1       3.277  -6.719  -0.065  0.00  0.00    +0.159 HD
ATOM      8  H   UNL     1       4.746  -8.533  -0.089  0.00  0.00    +0.151 HD
ENDROOT
BRANCH   6   9
ATOM      9  C   UNL     1       6.868  -8.447  -0.109  0.00  0.00    +0.037 C 
ATOM     10  C   UNL     1       7.590  -7.950  -1.362  0.00  0.00    +0.029 C 
ATOM     11  C   UNL     1       9.019  -8.498  -1.379  0.00  0.00    -0.008 C 
ATOM     12  C   UNL     1       8.978 -10.027  -1.387  0.00  0.00    +0.007 C 
ATOM     13  C   UNL     1       8.255 -10.525  -0.133  0.00  0.00    -0.008 C 
ATOM     14  C   UNL     1       6.827  -9.977  -0.117  0.00  0.00    +0.029 C 
ATOM     15  C   UNL     1       9.002 -10.041   1.111  0.00  0.00    +0.007 C 
ATOM     16  C   UNL     1       9.043  -8.511   1.119  0.00  0.00    -0.008 C 
ATOM     17  C   UNL     1       9.765  -8.014  -0.134  0.00  0.00    +0.007 C 
ATOM     18  C   UNL     1       7.614  -7.963   1.136  0.00  0.00    +0.029 C 
ENDBRANCH   6   9
BRANCH   1  19
ATOM     19  C   UNL     1       2.413  -4.237  -0.044  0.00  0.00    +0.328 C 
BRANCH  19  20
ATOM     20  O   UNL     1       2.452  -2.786  -0.036  0.00  0.00    -0.451 OA
BRANCH  20  21
ATOM     21  C   UNL     1       1.268  -2.143  -0.022  0.00  0.00    +0.360 C 
ATOM     22  O   UNL     1       0.233  -2.777  -0.015  0.00  0.00    -0.243 OA
BRANCH  21  27
ATOM     23  C   UNL     1       2.378   1.338  -0.013  0.00  0.00    +0.133 A 
ATOM     24  C   UNL     1       1.194   2.062   0.002  0.00  0.00    +0.079 A 
ATOM     25  C   UNL     1      -0.017   1.385   0.010  0.00  0.00    +0.081 A 
ATOM     26  C   UNL     1       0.002  -0.004   0.002  0.00  0.00    +0.093 A 
ATOM     27  C   UNL     1       1.230  -0.664  -0.013  0.00  0.00    +0.167 A 
ATOM     28  N   UNL     1       2.367   0.024  -0.020  0.00  0.00    -0.246 NA
ATOM     29 CL   UNL     1      -1.482  -0.905   0.011  0.00  0.00    -0.080 Cl
ATOM     30 CL   UNL     1      -1.520   2.253   0.021  0.00  0.00    -0.080 Cl
ATOM     31 CL   UNL     1       1.228   3.798   0.010  0.00  0.00    -0.080 Cl
ENDBRANCH  21  27
ENDBRANCH  20  21
ENDBRANCH  19  20
ENDBRANCH   1  19
TORSDOF 5
