REMARK  Name = ZINC22534971
REMARK  13 active torsions:
REMARK  status: ('A' for Active; 'I' for Inactive)
REMARK    1  A    between atoms: C_1  and  C_2
REMARK    2  A    between atoms: C_12  and  C_14
REMARK    3  A    between atoms: C_14  and  C_16
REMARK    4  A    between atoms: C_14  and  S_17
REMARK    5  A    between atoms: S_17  and  C_18
REMARK    6  A    between atoms: C_21  and  C_24
REMARK    7  A    between atoms: N_22  and  N_23
REMARK    8  A    between atoms: C_24  and  O_25
REMARK    9  A    between atoms: O_25  and  C_26
REMARK   10  A    between atoms: C_29  and  C_32
REMARK   11  A    between atoms: C_32  and  C_33
REMARK   12  A    between atoms: C_32  and  C_34
REMARK   13  A    between atoms: C_32  and  C_35
REMARK                            x       y       z     vdW  Elec       q    Type
REMARK                         _______ _______ _______ _____ _____    ______ ____
ROOT
ATOM      1  C   UNL     1       2.059   0.740   0.035  0.00  0.00    +0.209 A 
ATOM      2  N   UNL     1       1.194   1.726  -0.026  0.00  0.00    -0.121 NA
ATOM      3  N   UNL     1      -0.003   1.258  -0.020  0.00  0.00    -0.128 NA
ATOM      4  C   UNL     1       0.026  -0.043   0.046  0.00  0.00    +0.189 A 
ATOM      5  N   UNL     1       1.340  -0.420   0.083  0.00  0.00    -0.225 N 
ENDROOT
BRANCH   5   6
ATOM      6  N   UNL     1       1.831  -1.693   0.154  0.00  0.00    -0.295 N 
ATOM      7  H   UNL     1       1.141  -2.548   0.188  0.00  0.00    +0.163 HD
ATOM      8  H   UNL     1       2.918  -1.862   0.178  0.00  0.00    +0.163 HD
ENDBRANCH   5   6
BRANCH   1   9
ATOM      9  S   UNL     1       3.814   0.886   0.052  0.00  0.00    -0.072 S 
BRANCH   9  10
ATOM     10  C   UNL     1       3.981   2.686  -0.036  0.00  0.00    +0.137 C 
ATOM     11  C   UNL     1       3.403   3.314   1.234  0.00  0.00    +0.029 C 
BRANCH  10  22
ATOM     12  C   UNL     1       7.986   4.681   0.351  0.00  0.00    +0.029 C 
ATOM     13  C   UNL     1       7.170   4.667  -0.943  0.00  0.00    +0.083 C 
ATOM     14  C   UNL     1       7.051   6.088  -1.517  0.00  0.00    +0.059 C 
ATOM     15  C   UNL     1       5.566   6.374  -1.518  0.00  0.00    -0.024 A 
ATOM     16  C   UNL     1       4.859   7.492  -1.917  0.00  0.00    +0.005 A 
ATOM     17  C   UNL     1       3.481   7.515  -1.819  0.00  0.00    +0.000 A 
ATOM     18  C   UNL     1       2.809   6.414  -1.319  0.00  0.00    +0.002 A 
ATOM     19  C   UNL     1       3.510   5.296  -0.920  0.00  0.00    +0.024 A 
ATOM     20  C   UNL     1       4.903   5.266  -1.016  0.00  0.00    +0.040 A 
ATOM     21  N   UNL     1       5.793   4.245  -0.671  0.00  0.00    -0.267 N 
ATOM     22  C   UNL     1       5.438   3.050  -0.158  0.00  0.00    +0.233 C 
ATOM     23  O   UNL     1       6.291   2.268   0.205  0.00  0.00    -0.274 OA
ENDBRANCH  10  22
ENDBRANCH   9  10
ENDBRANCH   1   9
BRANCH   4  24
ATOM     24  C   UNL     1      -1.168  -0.963   0.076  0.00  0.00    +0.306 C 
BRANCH  24  25
ATOM     25  O   UNL     1      -1.527  -1.321  -1.260  0.00  0.00    -0.484 OA
BRANCH  25  26
ATOM     26  C   UNL     1      -2.591  -2.152  -1.411  0.00  0.00    +0.121 A 
ATOM     27  C   UNL     1      -3.273  -2.618  -0.296  0.00  0.00    +0.046 A 
ATOM     28  C   UNL     1      -4.359  -3.457  -0.452  0.00  0.00    +0.008 A 
ATOM     29  C   UNL     1      -4.759  -3.844  -1.718  0.00  0.00    -0.042 A 
ATOM     30  C   UNL     1      -4.078  -3.386  -2.831  0.00  0.00    +0.008 A 
ATOM     31  C   UNL     1      -2.995  -2.541  -2.680  0.00  0.00    +0.046 A 
BRANCH  29  32
ATOM     32  C   UNL     1      -5.940  -4.765  -1.885  0.00  0.00    -0.013 C 
ATOM     33  C   UNL     1      -5.492  -6.043  -2.598  0.00  0.00    +0.015 C 
ATOM     34  C   UNL     1      -6.509  -5.120  -0.510  0.00  0.00    +0.015 C 
ATOM     35  C   UNL     1      -7.017  -4.067  -2.719  0.00  0.00    +0.015 C 
ENDBRANCH  29  32
ENDBRANCH  25  26
ENDBRANCH  24  25
ENDBRANCH   4  24
TORSDOF 8
