REMARK  Name = ZINC67000228
REMARK  7 active torsions:
REMARK  status: ('A' for Active; 'I' for Inactive)
REMARK    1  A    between atoms: C_1  and  N_2
REMARK    2  A    between atoms: N_2  and  C_3
REMARK    3  A    between atoms: C_6  and  N_9
REMARK    4  A    between atoms: C_12  and  C_14
REMARK    5  A    between atoms: N_16  and  C_17
REMARK    6  A    between atoms: C_17  and  C_18
REMARK    7  A    between atoms: C_18  and  O_28
REMARK                            x       y       z     vdW  Elec       q    Type
REMARK                         _______ _______ _______ _____ _____    ______ ____
ROOT
ATOM      1  C   UNL     1      -0.279   0.318  -2.150  0.00  0.00    +0.300 C 
ATOM      2  O   UNL     1      -0.173   1.514  -2.323  0.00  0.00    -0.265 OA
ATOM      3  N   UNL     1      -0.283  -0.519  -3.206  0.00  0.00    -0.304 N 
ATOM      4  H   UNL     1      -0.368  -1.475  -3.067  0.00  0.00    +0.149 HD
ENDROOT
BRANCH   1   7
ATOM      5  C   UNL     1      -0.644   2.054   0.055  0.00  0.00    +0.139 C 
ATOM      6  N   UNL     1      -0.518   0.613   0.283  0.00  0.00    -0.267 N 
ATOM      7  C   UNL     1      -0.406  -0.228  -0.765  0.00  0.00    +0.305 C 
ATOM      8  O   UNL     1      -0.409  -1.428  -0.583  0.00  0.00    -0.265 OA
BRANCH   6   9
ATOM      9  C   UNL     1      -0.515   0.109   1.586  0.00  0.00    +0.037 A 
ATOM     10  C   UNL     1      -0.242  -1.234   1.812  0.00  0.00    +0.026 A 
ATOM     11  C   UNL     1      -0.239  -1.729   3.102  0.00  0.00    +0.034 A 
ATOM     12  C   UNL     1      -0.509  -0.889   4.167  0.00  0.00    +0.126 A 
ATOM     13  C   UNL     1      -0.781   0.449   3.945  0.00  0.00    +0.034 A 
ATOM     14  C   UNL     1      -0.779   0.951   2.659  0.00  0.00    +0.026 A 
BRANCH  12  15
ATOM     15  N   UNL     1      -0.506  -1.423   5.547  0.00  0.00    +0.056 N 
ATOM     16  O   UNL     1      -0.268  -2.592   5.743  0.00  0.00    -0.126 OA
ATOM     17  O   UNL     1      -0.741  -0.690   6.479  0.00  0.00    -0.126 OA
ENDBRANCH  12  15
ENDBRANCH   6   9
ENDBRANCH   1   7
BRANCH   3  18
ATOM     18  C   UNL     1      -0.158   0.016  -4.564  0.00  0.00    +0.144 C 
BRANCH  18  19
ATOM     19  C   UNL     1      -0.297  -1.124  -5.576  0.00  0.00    +0.107 C 
ATOM     20  C   UNL     1       0.722  -2.213  -5.250  0.00  0.00    +0.041 C 
ATOM     21  C   UNL     1       0.719  -3.237  -6.392  0.00  0.00    +0.008 C 
ATOM     22  C   UNL     1       1.334  -2.582  -7.627  0.00  0.00    +0.035 C 
ATOM     23  C   UNL     1       0.675  -1.257  -7.908  0.00  0.00    -0.041 A 
ATOM     24  C   UNL     1      -0.070  -0.585  -6.965  0.00  0.00    -0.011 A 
ATOM     25  C   UNL     1      -0.646   0.637  -7.286  0.00  0.00    +0.007 A 
ATOM     26  C   UNL     1      -0.480   1.181  -8.543  0.00  0.00    +0.000 A 
ATOM     27  C   UNL     1       0.265   0.505  -9.491  0.00  0.00    +0.000 A 
ATOM     28  C   UNL     1       0.839  -0.708  -9.173  0.00  0.00    +0.004 A 
BRANCH  19  29
ATOM     29  O   UNL     1      -1.614  -1.671  -5.492  0.00  0.00    -0.382 OA
ATOM     30  H   UNL     1      -2.317  -1.034  -5.678  0.00  0.00    +0.211 HD
ENDBRANCH  19  29
ENDBRANCH  18  19
ENDBRANCH   3  18
TORSDOF 6
