REMARK  Name = ZINC07041666
REMARK  7 active torsions:
REMARK  status: ('A' for Active; 'I' for Inactive)
REMARK    1  A    between atoms: C_1  and  C_2
REMARK    2  A    between atoms: C_2  and  C_4
REMARK    3  A    between atoms: C_2  and  O_33
REMARK    4  A    between atoms: C_6  and  O_32
REMARK    5  A    between atoms: C_11  and  C_31
REMARK    6  A    between atoms: C_23  and  C_30
REMARK    7  A    between atoms: C_26  and  O_29
REMARK                            x       y       z     vdW  Elec       q    Type
REMARK                         _______ _______ _______ _____ _____    ______ ____
ROOT
ATOM      1  C   UNL     1       0.556   5.668  -0.650  0.00  0.00    +0.059 C 
ATOM      2  C   UNL     1       2.028   5.820  -0.183  0.00  0.00    +0.121 C 
ATOM      3  C   UNL     1       2.511   4.401   0.229  0.00  0.00    +0.036 C 
ATOM      4  C   UNL     1       1.471   3.483  -0.422  0.00  0.00    +0.008 C 
ATOM      5  C   UNL     1       0.159   4.260  -0.184  0.00  0.00    +0.037 C 
ATOM      6  C   UNL     1      -0.952   3.602  -0.938  0.00  0.00    +0.140 C 
ATOM      7  O   UNL     1      -1.925   4.212  -1.340  0.00  0.00    -0.297 OA
ATOM      8  C   UNL     1      -0.814   2.095  -1.160  0.00  0.00    +0.079 C 
ATOM      9  C   UNL     1      -0.019   1.520   0.010  0.00  0.00    +0.006 C 
ATOM     10  C   UNL     1       1.411   2.054  -0.000  0.00  0.00    -0.003 C 
ATOM     11  C   UNL     1       2.118   1.740   1.310  0.00  0.00    +0.004 C 
ATOM     12  C   UNL     1       1.833   0.278   1.698  0.00  0.00    +0.004 C 
ATOM     13  C   UNL     1       1.387  -0.473   0.453  0.00  0.00    -0.002 C 
ATOM     14  C   UNL     1       0.002  -0.004   0.002  0.00  0.00    -0.026 C 
ATOM     15  C   UNL     1      -0.285  -0.593  -1.374  0.00  0.00    +0.010 C 
ATOM     16  C   UNL     1      -0.240  -2.122  -1.299  0.00  0.00    +0.032 C 
ATOM     17  C   UNL     1       1.094  -2.618  -0.750  0.00  0.00    +0.115 C 
ATOM     18  C   UNL     1       1.404  -1.985   0.612  0.00  0.00    +0.035 C 
ATOM     19  C   UNL     1      -1.067  -0.482   0.988  0.00  0.00    +0.012 C 
ATOM     20  C   UNL     1      -0.192   4.343   1.307  0.00  0.00    +0.020 C 
ENDROOT
BRANCH   1  22
ATOM     21  C   UNL     1       0.957   7.174  -2.599  0.00  0.00    +0.038 C 
ATOM     22  C   UNL     1       0.468   5.790  -2.169  0.00  0.00    +0.118 C 
BRANCH  22  23
ATOM     23  O   UNL     1      -0.888   5.614  -2.583  0.00  0.00    -0.392 OA
ATOM     24  H   UNL     1      -1.501   6.262  -2.209  0.00  0.00    +0.210 HD
ENDBRANCH  22  23
ENDBRANCH   1  22
BRANCH  17  25
ATOM     25  O   UNL     1       1.043  -4.040  -0.604  0.00  0.00    -0.392 OA
ATOM     26  H   UNL     1       0.851  -4.513  -1.425  0.00  0.00    +0.210 HD
ENDBRANCH  17  25
BRANCH   2  27
ATOM     27  O   UNL     1       2.100   6.708   0.934  0.00  0.00    -0.391 OA
ATOM     28  H   UNL     1       2.993   6.829   1.284  0.00  0.00    +0.210 HD
ENDBRANCH   2  27
TORSDOF 4
