REMARK  Name = ZINC50535150
REMARK  5 active torsions:
REMARK  status: ('A' for Active; 'I' for Inactive)
REMARK    1  A    between atoms: C_1  and  C_2
REMARK    2  A    between atoms: C_4  and  C_8
REMARK    3  A    between atoms: C_11  and  N_14
REMARK    4  A    between atoms: N_14  and  S_15
REMARK    5  A    between atoms: S_15  and  C_18
REMARK                            x       y       z     vdW  Elec       q    Type
REMARK                         _______ _______ _______ _____ _____    ______ ____
ROOT
ATOM      1  N   UNL     1       0.071  -6.457  -4.256  0.00  0.00    -0.216 N 
ATOM      2  H   UNL     1       0.706  -7.178  -4.123  0.00  0.00    +0.174 HD
ENDROOT
BRANCH   1   6
ATOM      3  C   UNL     1       0.108  -3.157  -1.715  0.00  0.00    +0.019 A 
ATOM      4  C   UNL     1       0.172  -4.447  -1.186  0.00  0.00    +0.013 A 
ATOM      5  C   UNL     1       0.159  -5.537  -2.029  0.00  0.00    +0.025 A 
ATOM      6  C   UNL     1       0.083  -5.352  -3.405  0.00  0.00    +0.048 A 
ATOM      7  C   UNL     1       0.020  -4.068  -3.935  0.00  0.00    +0.025 A 
ATOM      8  C   UNL     1       0.026  -2.975  -3.096  0.00  0.00    +0.013 A 
BRANCH   3  12
ATOM      9  C   UNL     1       0.049   1.568  -0.120  0.00  0.00    +0.090 C 
ATOM     10  C   UNL     1       0.097   0.062  -0.105  0.00  0.00    +0.148 A 
ATOM     11  N   UNL     1       0.062  -0.721  -1.180  0.00  0.00    -0.212 NA
ATOM     12  C   UNL     1       0.122  -1.985  -0.812  0.00  0.00    +0.156 A 
ATOM     13  N   UNL     1       0.198  -2.020   0.538  0.00  0.00    -0.259 N 
ATOM     14  H   UNL     1       0.254  -2.810   1.098  0.00  0.00    +0.191 HD
ATOM     15  N   UNL     1       0.185  -0.682   0.967  0.00  0.00    -0.157 NA
ENDBRANCH   3  12
ENDBRANCH   1   6
BRANCH   1  16
ATOM     16  S   UNL     1      -1.028  -6.538  -5.493  0.00  0.00    +0.072 S 
ATOM     17  O   UNL     1      -0.910  -5.323  -6.220  0.00  0.00    -0.150 OA
ATOM     18  O   UNL     1      -0.860  -7.810  -6.102  0.00  0.00    -0.150 OA
BRANCH  16  19
ATOM     19  C   UNL     1      -2.632  -6.535  -4.765  0.00  0.00    +0.112 A 
ATOM     20  C   UNL     1      -3.190  -7.720  -4.321  0.00  0.00    +0.032 A 
ATOM     21  C   UNL     1      -4.449  -7.722  -3.751  0.00  0.00    +0.051 A 
ATOM     22  C   UNL     1      -5.156  -6.535  -3.622  0.00  0.00    +0.162 A 
ATOM     23  C   UNL     1      -4.594  -5.345  -4.066  0.00  0.00    +0.164 A 
ATOM     24  C   UNL     1      -3.329  -5.349  -4.634  0.00  0.00    +0.078 A 
ATOM     25  O   UNL     1      -5.267  -4.168  -3.942  0.00  0.00    -0.485 OA
ATOM     26  C   UNL     1      -6.676  -4.254  -3.705  0.00  0.00    +0.270 C 
ATOM     27  C   UNL     1      -6.916  -5.300  -2.607  0.00  0.00    +0.270 C 
ATOM     28  O   UNL     1      -6.396  -6.554  -3.061  0.00  0.00    -0.485 OA
ENDBRANCH  16  19
ENDBRANCH   1  16
TORSDOF 4
