REMARK  Name = ZINC12401668
REMARK  8 active torsions:
REMARK  status: ('A' for Active; 'I' for Inactive)
REMARK    1  A    between atoms: C_1  and  C_2
REMARK    2  A    between atoms: C_2  and  C_3
REMARK    3  A    between atoms: C_2  and  S_4
REMARK    4  A    between atoms: S_4  and  C_5
REMARK    5  A    between atoms: C_16  and  C_18
REMARK    6  A    between atoms: C_16  and  C_19
REMARK    7  A    between atoms: C_31  and  C_34
REMARK    8  A    between atoms: C_32  and  N_33
REMARK                            x       y       z     vdW  Elec       q    Type
REMARK                         _______ _______ _______ _____ _____    ______ ____
ROOT
ATOM      1  C   UNL     1      -1.958  10.321   0.159  0.00  0.00    +0.160 A 
ATOM      2  N   UNL     1      -3.240   9.996   0.069  0.00  0.00    -0.133 NA
ATOM      3  N   UNL     1      -3.622   8.794   0.036  0.00  0.00    -0.124 NA
ATOM      4  C   UNL     1      -2.769   7.785   0.102  0.00  0.00    +0.194 A 
ATOM      5  S   UNL     1      -1.226   8.688   0.210  0.00  0.00    -0.024 S 
ATOM      6  N   UNL     1      -3.003   6.412   0.085  0.00  0.00    -0.237 N 
ATOM      7  C   UNL     1      -3.122   5.730   1.268  0.00  0.00    +0.028 C 
ATOM      8  C   UNL     1      -2.961   4.390   1.307  0.00  0.00    +0.037 C 
ATOM      9  C   UNL     1      -3.103   3.678   2.510  0.00  0.00    +0.163 C 
ATOM     10  O   UNL     1      -2.943   2.473   2.513  0.00  0.00    -0.292 OA
ATOM     11  C   UNL     1      -3.448   4.379   3.796  0.00  0.00    +0.086 C 
ATOM     12  C   UNL     1      -4.258   5.639   3.475  0.00  0.00    -0.023 C 
ATOM     13  C   UNL     1      -3.441   6.511   2.519  0.00  0.00    +0.058 C 
ATOM     14  C   UNL     1      -5.579   5.246   2.810  0.00  0.00    +0.011 C 
ATOM     15  C   UNL     1      -4.538   6.413   4.764  0.00  0.00    +0.011 C 
ATOM     16  C   UNL     1      -2.625   3.619   0.058  0.00  0.00    +0.141 C 
ATOM     17  C   UNL     1      -1.185   3.203   0.071  0.00  0.00    +0.001 A 
ATOM     18  C   UNL     1      -0.024   3.945   0.087  0.00  0.00    +0.045 A 
ATOM     19  C   UNL     1       1.176   3.238   0.098  0.00  0.00    +0.124 A 
ATOM     20  C   UNL     1       1.196   1.857   0.091  0.00  0.00    +0.040 A 
ATOM     21  C   UNL     1       0.030   1.106   0.075  0.00  0.00    +0.026 A 
ATOM     22  C   UNL     1      -1.179   1.804   0.059  0.00  0.00    +0.038 A 
ATOM     23  N   UNL     1      -2.474   1.317   0.036  0.00  0.00    -0.284 N 
ATOM     24  C   UNL     1      -3.388   2.310   0.028  0.00  0.00    +0.238 C 
ATOM     25  O   UNL     1      -4.593   2.179   0.011  0.00  0.00    -0.274 OA
ATOM     26  F   UNL     1       2.344   3.917   0.114  0.00  0.00    -0.205 F 
ATOM     27  C   UNL     1      -2.941   4.407  -1.178  0.00  0.00    +0.089 C 
ATOM     28  C   UNL     1      -3.113   5.754  -1.119  0.00  0.00    +0.109 C 
ATOM     29  H   UNL     1      -2.699   0.373   0.028  0.00  0.00    +0.155 HD
ENDROOT
BRANCH  28  30
ATOM     30  N   UNL     1      -3.396   6.460  -2.264  0.00  0.00    -0.345 N 
ATOM     31  H   UNL     1      -3.437   7.429  -2.239  0.00  0.00    +0.144 HD
ATOM     32  H   UNL     1      -3.555   5.990  -3.097  0.00  0.00    +0.144 HD
ENDBRANCH  28  30
BRANCH  27  33
ATOM     33  C   UNL     1      -3.063   3.733  -2.435  0.00  0.00    +0.100 C 
ATOM     34  N   UNL     1      -3.160   3.198  -3.432  0.00  0.00    -0.191 NA
ENDBRANCH  27  33
BRANCH   1  35
ATOM     35  S   UNL     1      -1.193  11.908   0.212  0.00  0.00    -0.094 S 
BRANCH  35  37
ATOM     36  C   UNL     1      -3.454  12.927   1.366  0.00  0.00    +0.019 C 
ATOM     37  C   UNL     1      -2.583  13.069   0.116  0.00  0.00    +0.047 C 
ATOM     38  C   UNL     1      -2.047  14.499   0.027  0.00  0.00    +0.019 C 
ENDBRANCH  35  37
ENDBRANCH   1  35
TORSDOF 4
