REMARK  Name = ZINC67181471
REMARK  4 active torsions:
REMARK  status: ('A' for Active; 'I' for Inactive)
REMARK    1  A    between atoms: C_1  and  C_2
REMARK    2  A    between atoms: C_6  and  C_7
REMARK    3  A    between atoms: N_9  and  N_10
REMARK    4  A    between atoms: C_11  and  C_13
REMARK                            x       y       z     vdW  Elec       q    Type
REMARK                         _______ _______ _______ _____ _____    ______ ____
ROOT
ATOM      1  N   UNL     1       0.058  -0.732   4.900  0.00  0.00    -0.230 N 
ATOM      2  C   UNL     1       0.080  -1.625   5.909  0.00  0.00    +0.260 C 
ATOM      3  O   UNL     1       0.094  -2.816   5.667  0.00  0.00    -0.269 OA
ATOM      4  H   UNL     1       0.047   0.219   5.094  0.00  0.00    +0.173 HD
ENDROOT
BRANCH   2   5
ATOM      5  C   UNL     1       0.087  -1.157   7.310  0.00  0.00    +0.040 A 
ATOM      6  C   UNL     1       0.065   0.217   7.587  0.00  0.00    +0.015 A 
ATOM      7  C   UNL     1       0.072   0.662   8.877  0.00  0.00    +0.028 A 
ATOM      8  C   UNL     1       0.100  -0.246   9.929  0.00  0.00    +0.066 A 
ATOM      9  C   UNL     1       0.122  -1.629   9.669  0.00  0.00    +0.089 A 
ATOM     10  C   UNL     1       0.110  -2.080   8.350  0.00  0.00    +0.043 A 
ATOM     11  N   UNL     1       0.148  -2.258  10.873  0.00  0.00    -0.236 NA
ATOM     12  C   UNL     1       0.143  -1.374  11.826  0.00  0.00    +0.197 A 
ATOM     13  N   UNL     1       0.114  -0.119  11.301  0.00  0.00    -0.344 N 
ATOM     14  H   UNL     1       0.106   0.713  11.801  0.00  0.00    +0.167 HD
ENDBRANCH   2   5
BRANCH   1  17
ATOM     15  C   UNL     1       0.030  -0.283   2.562  0.00  0.00    +0.267 C 
ATOM     16  O   UNL     1       0.016   0.910   2.805  0.00  0.00    -0.268 OA
ATOM     17  N   UNL     1       0.052  -1.176   3.571  0.00  0.00    -0.230 N 
ATOM     18  H   UNL     1       0.063  -2.126   3.378  0.00  0.00    +0.173 HD
BRANCH  15  24
ATOM     19  C   UNL     1      -0.018   1.503   0.010  0.00  0.00    +0.045 C 
ATOM     20  C   UNL     1       0.002  -0.004   0.002  0.00  0.00    -0.031 A 
ATOM     21  C   UNL     1       0.007  -0.729  -1.166  0.00  0.00    +0.011 A 
ATOM     22  C   UNL     1       0.026  -2.083  -1.101  0.00  0.00    +0.046 A 
ATOM     23  S   UNL     1       0.038  -2.416   0.545  0.00  0.00    -0.092 S 
ATOM     24  C   UNL     1       0.023  -0.748   1.172  0.00  0.00    +0.078 A 
ENDBRANCH  15  24
ENDBRANCH   1  17
TORSDOF 3
