REMARK  Name = ZINC33960366
REMARK  8 active torsions:
REMARK  status: ('A' for Active; 'I' for Inactive)
REMARK    1  A    between atoms: C_1  and  C_2
REMARK    2  A    between atoms: C_5  and  N_9
REMARK    3  A    between atoms: C_7  and  C_8
REMARK    4  A    between atoms: C_10  and  C_12
REMARK    5  A    between atoms: C_15  and  C_23
REMARK    6  A    between atoms: C_16  and  C_17
REMARK    7  A    between atoms: C_16  and  C_18
REMARK    8  A    between atoms: N_20  and  O_21
REMARK                            x       y       z     vdW  Elec       q    Type
REMARK                         _______ _______ _______ _____ _____    ______ ____
ROOT
ATOM      1  C   UNL     1      -0.134  -6.343  -1.187  0.00  0.00    +0.058 C 
ATOM      2  C   UNL     1       1.087  -7.106  -0.588  0.00  0.00    +0.018 C 
ATOM      3  C   UNL     1       0.959  -8.541  -1.149  0.00  0.00    +0.014 C 
ATOM      4  C   UNL     1      -0.321  -8.502  -2.038  0.00  0.00    +0.015 C 
ATOM      5  C   UNL     1      -0.246  -7.035  -2.592  0.00  0.00    -0.010 C 
ATOM      6  C   UNL     1       1.009  -6.822  -3.440  0.00  0.00    +0.013 C 
ATOM      7  C   UNL     1      -1.515  -6.618  -3.339  0.00  0.00    +0.013 C 
ATOM      8  C   UNL     1      -1.481  -8.375  -1.041  0.00  0.00    +0.065 C 
ATOM      9  N   UNL     1      -2.355  -9.264  -0.750  0.00  0.00    -0.096 NA
ATOM     10  C   UNL     1      -1.382  -6.953  -0.477  0.00  0.00    +0.071 C 
ATOM     11  C   UNL     1      -0.440  -9.612  -3.085  0.00  0.00    +0.018 C 
ENDROOT
BRANCH   1  13
ATOM     12  N   UNL     1       0.059  -4.170  -0.021  0.00  0.00    -0.285 N 
ATOM     13  C   UNL     1      -0.040  -4.839  -1.187  0.00  0.00    +0.224 C 
ATOM     14  O   UNL     1      -0.054  -4.230  -2.236  0.00  0.00    -0.275 OA
ATOM     15  H   UNL     1       0.137  -4.658   0.813  0.00  0.00    +0.155 HD
BRANCH  12  20
ATOM     16  C   UNL     1       0.014   1.503   0.006  0.00  0.00    +0.044 C 
ATOM     17  C   UNL     1       0.026  -0.004  -0.001  0.00  0.00    -0.047 A 
ATOM     18  C   UNL     1       0.631  -0.684  -1.042  0.00  0.00    +0.005 A 
ATOM     19  C   UNL     1       0.643  -2.065  -1.052  0.00  0.00    +0.023 A 
ATOM     20  C   UNL     1       0.048  -2.771  -0.014  0.00  0.00    +0.034 A 
ATOM     21  C   UNL     1      -0.558  -2.085   1.030  0.00  0.00    +0.027 A 
ATOM     22  C   UNL     1      -0.563  -0.703   1.036  0.00  0.00    -0.046 A 
ATOM     23  C   UNL     1      -1.215   0.042   2.172  0.00  0.00    +0.044 C 
ENDBRANCH  12  20
ENDBRANCH   1  13
BRANCH   9  24
ATOM     24  O   UNL     1      -3.365  -8.979   0.201  0.00  0.00    -0.409 OA
ATOM     25  H   UNL     1      -3.978  -9.710   0.354  0.00  0.00    +0.328 HD
ENDBRANCH   9  24
TORSDOF 3
