REMARK  Name = ZINC00749033
REMARK  8 active torsions:
REMARK  status: ('A' for Active; 'I' for Inactive)
REMARK    1  A    between atoms: C_1  and  C_2
REMARK    2  A    between atoms: C_7  and  N_8
REMARK    3  A    between atoms: N_11  and  C_12
REMARK    4  A    between atoms: C_15  and  N_30
REMARK    5  A    between atoms: C_16  and  C_18
REMARK    6  A    between atoms: N_20  and  C_21
REMARK    7  A    between atoms: C_21  and  C_23
REMARK    8  A    between atoms: C_21  and  C_24
REMARK                            x       y       z     vdW  Elec       q    Type
REMARK                         _______ _______ _______ _____ _____    ______ ____
ROOT
ATOM      1  C   UNL     1       1.279   2.990   0.079  0.00  0.00    +0.036 A 
ATOM      2  C   UNL     1       1.261   1.600   0.149  0.00  0.00    +0.025 A 
ATOM      3  C   UNL     1       0.063   0.917   0.137  0.00  0.00    +0.026 A 
ATOM      4  C   UNL     1      -1.136   1.613   0.050  0.00  0.00    +0.042 A 
ATOM      5  C   UNL     1      -1.125   3.015  -0.014  0.00  0.00    +0.059 A 
ATOM      6  C   UNL     1       0.093   3.698  -0.002  0.00  0.00    +0.038 A 
ENDROOT
BRANCH   1  10
ATOM      7  N   UNL     1       4.739   3.798   0.749  0.00  0.00    -0.269 N 
ATOM      8  C   UNL     1       3.534   3.197   0.815  0.00  0.00    +0.308 C 
ATOM      9  O   UNL     1       3.379   2.223   1.526  0.00  0.00    -0.252 OA
ATOM     10  N   UNL     1       2.502   3.675   0.092  0.00  0.00    -0.269 N 
ATOM     11  H   UNL     1       4.863   4.718   0.159  0.00  0.00    +0.156 HD
ATOM     12  H   UNL     1       2.620   4.602  -0.488  0.00  0.00    +0.156 HD
BRANCH   7  19
ATOM     13  C   UNL     1       7.350   4.343  -0.242  0.00  0.00    +0.045 C 
ATOM     14  C   UNL     1       7.123   3.493   0.982  0.00  0.00    -0.029 A 
ATOM     15  C   UNL     1       8.200   2.952   1.658  0.00  0.00    +0.005 A 
ATOM     16  C   UNL     1       7.992   2.173   2.781  0.00  0.00    +0.000 A 
ATOM     17  C   UNL     1       6.707   1.931   3.231  0.00  0.00    +0.002 A 
ATOM     18  C   UNL     1       5.627   2.474   2.563  0.00  0.00    +0.023 A 
ATOM     19  C   UNL     1       5.832   3.252   1.431  0.00  0.00    +0.038 A 
ENDBRANCH   7  19
ENDBRANCH   1  10
BRANCH   4  20
ATOM     20  N   UNL     1      -2.344   0.923   0.032  0.00  0.00    -0.329 N 
ATOM     21  C   UNL     1      -2.342  -0.125  -1.020  0.00  0.00    +0.105 C 
ATOM     22  C   UNL     1      -3.466  -1.088  -0.563  0.00  0.00    +0.020 C 
ATOM     23  C   UNL     1      -3.312  -1.093   0.976  0.00  0.00    +0.020 C 
ATOM     24  C   UNL     1      -2.567   0.212   1.310  0.00  0.00    +0.105 C 
ENDBRANCH   4  20
BRANCH   5  25
ATOM     25  C   UNL     1      -2.393   3.762  -0.101  0.00  0.00    +0.246 C 
ATOM     26  O   UNL     1      -3.454   3.173  -0.015  0.00  0.00    -0.270 OA
ATOM     27  N   UNL     1      -2.377   5.099  -0.275  0.00  0.00    -0.305 N 
ATOM     28  H   UNL     1      -1.418   5.632  -0.353  0.00  0.00    +0.150 HD
BRANCH  27  29
ATOM     29  C   UNL     1      -3.637   5.841  -0.361  0.00  0.00    +0.100 C 
ATOM     30  C   UNL     1      -4.127   6.178   1.048  0.00  0.00    +0.033 C 
BRANCH  29  31
ATOM     31  C   UNL     1      -3.417   7.116  -1.135  0.00  0.00    -0.027 A 
ATOM     32  C   UNL     1      -2.263   7.852  -0.941  0.00  0.00    +0.005 A 
ATOM     33  C   UNL     1      -2.059   9.018  -1.653  0.00  0.00    +0.000 A 
ATOM     34  C   UNL     1      -3.013   9.454  -2.553  0.00  0.00    +0.000 A 
ATOM     35  C   UNL     1      -4.170   8.721  -2.744  0.00  0.00    +0.000 A 
ATOM     36  C   UNL     1      -4.372   7.552  -2.034  0.00  0.00    +0.005 A 
ENDBRANCH  29  31
ENDBRANCH  27  29
ENDBRANCH   5  25
TORSDOF 6
