REMARK  Name = ZINC17045028
REMARK  4 active torsions:
REMARK  status: ('A' for Active; 'I' for Inactive)
REMARK    1  A    between atoms: C_3  and  C_10
REMARK    2  A    between atoms: C_5  and  N_7
REMARK    3  A    between atoms: C_13  and  C_15
REMARK    4  A    between atoms: N_22  and  C_25
REMARK                            x       y       z     vdW  Elec       q    Type
REMARK                         _______ _______ _______ _____ _____    ______ ____
ROOT
ATOM      1  C   UNL     1       2.413   1.924  -1.384  0.00  0.00    +0.064 C 
ATOM      2  C   UNL     1       3.434   2.670  -0.801  0.00  0.00    +0.105 C 
ATOM      3  C   UNL     1       3.148   3.884  -0.019  0.00  0.00    +0.274 C 
ATOM      4  O   UNL     1       2.005   4.270   0.140  0.00  0.00    -0.268 OA
ATOM      5  N   UNL     1       4.186   4.555   0.521  0.00  0.00    -0.153 NA
ATOM      6  C   UNL     1       5.451   4.144   0.349  0.00  0.00    +0.171 C 
ATOM      7  S   UNL     1       6.706   5.061   1.066  0.00  0.00    -0.016 S 
ATOM      8  N   UNL     1       5.784   3.052  -0.354  0.00  0.00    -0.216 N 
ATOM      9  C   UNL     1       4.848   2.282  -0.946  0.00  0.00    +0.262 C 
ATOM     10  O   UNL     1       5.162   1.294  -1.582  0.00  0.00    -0.269 OA
ENDROOT
BRANCH   8  11
ATOM     11  C   UNL     1       7.135   2.704  -0.477  0.00  0.00    +0.044 A 
ATOM     12  C   UNL     1       7.729   1.877   0.467  0.00  0.00    +0.024 A 
ATOM     13  C   UNL     1       9.061   1.534   0.343  0.00  0.00    +0.003 A 
ATOM     14  C   UNL     1       9.804   2.014  -0.721  0.00  0.00    +0.015 A 
ATOM     15  C   UNL     1       9.215   2.838  -1.663  0.00  0.00    +0.020 A 
ATOM     16  C   UNL     1       7.881   3.179  -1.547  0.00  0.00    +0.039 A 
ATOM     17 BR   UNL     1      10.235   3.491  -3.116  0.00  0.00    -0.050 Br
ENDBRANCH   8  11
BRANCH   1  21
ATOM     18  C   UNL     1      -0.726   2.768   0.051  0.00  0.00    +0.136 A 
ATOM     19  C   UNL     1      -1.130   2.512  -1.244  0.00  0.00    +0.050 A 
ATOM     20  C   UNL     1       0.006   2.150  -1.963  0.00  0.00    +0.050 A 
ATOM     21  C   UNL     1       1.076   2.207  -1.077  0.00  0.00    +0.129 A 
ATOM     22  O   UNL     1       0.602   2.583   0.131  0.00  0.00    -0.455 OA
BRANCH  18  25
ATOM     23  C   UNL     1      -3.793   3.729   1.990  0.00  0.00    +0.003 A 
ATOM     24  C   UNL     1      -2.977   3.341   0.948  0.00  0.00    +0.012 A 
ATOM     25  C   UNL     1      -1.606   3.182   1.161  0.00  0.00    +0.019 A 
ATOM     26  C   UNL     1      -1.071   3.412   2.432  0.00  0.00    +0.044 A 
ATOM     27  C   UNL     1      -1.899   3.804   3.463  0.00  0.00    +0.127 A 
ATOM     28  C   UNL     1      -3.256   3.960   3.244  0.00  0.00    +0.033 A 
BRANCH  27  29
ATOM     29  N   UNL     1      -1.334   4.053   4.808  0.00  0.00    +0.056 N 
ATOM     30  O   UNL     1      -2.064   4.395   5.721  0.00  0.00    -0.126 OA
ATOM     31  O   UNL     1      -0.139   3.917   5.002  0.00  0.00    -0.126 OA
ENDBRANCH  27  29
ENDBRANCH  18  25
ENDBRANCH   1  21
TORSDOF 4
