REMARK  Name = ZINC42393315
REMARK  5 active torsions:
REMARK  status: ('A' for Active; 'I' for Inactive)
REMARK    1  A    between atoms: C_1  and  C_2
REMARK    2  A    between atoms: C_4  and  N_9
REMARK    3  A    between atoms: C_7  and  N_8
REMARK    4  A    between atoms: C_13  and  C_15
REMARK    5  A    between atoms: N_17  and  C_18
REMARK                            x       y       z     vdW  Elec       q    Type
REMARK                         _______ _______ _______ _____ _____    ______ ____
ROOT
ATOM      1  C   UNL     1      -0.018   1.503   0.010  0.00  0.00    +0.046 C 
ATOM      2  C   UNL     1       0.002  -0.004   0.002  0.00  0.00    -0.028 A 
ATOM      3  C   UNL     1       0.006  -0.688  -1.198  0.00  0.00    +0.028 A 
ATOM      4  C   UNL     1       0.025  -2.076  -1.206  0.00  0.00    +0.031 A 
ATOM      5  C   UNL     1       0.041  -2.777  -0.007  0.00  0.00    +0.025 A 
ATOM      6  C   UNL     1       0.036  -2.093   1.193  0.00  0.00    +0.025 A 
ATOM      7  C   UNL     1       0.023  -0.705   1.200  0.00  0.00    +0.028 A 
ENDROOT
BRANCH   4   8
ATOM      8  N   UNL     1       0.028  -2.770  -2.422  0.00  0.00    -0.318 N 
ATOM      9  C   UNL     1       0.019  -2.154  -3.761  0.00  0.00    +0.106 C 
ATOM     10  C   UNL     1       0.640  -3.225  -4.694  0.00  0.00    +0.021 C 
ATOM     11  C   UNL     1       0.069  -4.534  -4.088  0.00  0.00    +0.033 C 
ATOM     12  C   UNL     1       0.048  -4.232  -2.575  0.00  0.00    +0.159 C 
BRANCH  12  13
ATOM     13  C   UNL     1      -1.188  -4.829  -1.952  0.00  0.00    +0.233 C 
ATOM     14  O   UNL     1      -2.012  -4.109  -1.429  0.00  0.00    -0.274 OA
ATOM     15  N   UNL     1      -1.378  -6.163  -1.978  0.00  0.00    -0.317 N 
ATOM     16  C   UNL     1      -2.580  -6.743  -1.373  0.00  0.00    +0.128 C 
ATOM     17  H   UNL     1      -0.719  -6.739  -2.396  0.00  0.00    +0.148 HD
ENDBRANCH  12  13
ENDBRANCH   4   8
BRANCH   7  18
ATOM     18  N   UNL     1       0.025  -0.011   2.417  0.00  0.00    -0.358 N 
ATOM     19  H   UNL     1       0.012   0.959   2.422  0.00  0.00    +0.142 HD
ATOM     20  H   UNL     1       0.040  -0.501   3.254  0.00  0.00    +0.142 HD
ENDBRANCH   7  18
TORSDOF 3
