REMARK  Name = ZINC03551262
REMARK  6 active torsions:
REMARK  status: ('A' for Active; 'I' for Inactive)
REMARK    1  A    between atoms: C_1  and  C_2
REMARK    2  A    between atoms: C_5  and  C_8
REMARK    3  A    between atoms: C_8  and  N_9
REMARK    4  A    between atoms: C_10  and  C_12
REMARK    5  A    between atoms: C_12  and  S_13
REMARK    6  A    between atoms: S_13  and  C_14
REMARK                            x       y       z     vdW  Elec       q    Type
REMARK                         _______ _______ _______ _____ _____    ______ ____
ROOT
ATOM      1  C   UNL     1       0.025   0.842  -2.736  0.00  0.00    +0.191 A 
ATOM      2  N   UNL     1       1.090   0.125  -2.397  0.00  0.00    -0.207 NA
ATOM      3  C   UNL     1       1.976  -0.283  -3.290  0.00  0.00    +0.129 A 
ATOM      4  C   UNL     1       1.794   0.063  -4.659  0.00  0.00    +0.051 A 
ATOM      5  C   UNL     1       2.639  -0.271  -5.807  0.00  0.00    -0.025 A 
ATOM      6  C   UNL     1       2.241   0.182  -7.012  0.00  0.00    -0.004 A 
ATOM      7  S   UNL     1       0.738   1.070  -6.699  0.00  0.00    -0.073 S 
ATOM      8  C   UNL     1       0.646   0.829  -4.944  0.00  0.00    +0.115 A 
ATOM      9  N   UNL     1      -0.195   1.194  -3.996  0.00  0.00    -0.214 NA
ATOM     10  C   UNL     1       2.924  -0.022  -8.330  0.00  0.00    +0.043 C 
ATOM     11  C   UNL     1       4.354  -0.515  -8.064  0.00  0.00    +0.005 C 
ATOM     12  C   UNL     1       4.298  -1.651  -7.038  0.00  0.00    +0.005 C 
ATOM     13  C   UNL     1       3.917  -1.094  -5.667  0.00  0.00    +0.037 C 
ATOM     14  N   UNL     1       3.070  -1.033  -2.898  0.00  0.00    -0.343 N 
ATOM     15  H   UNL     1       3.803  -1.369  -3.647  0.00  0.00    +0.144 HD
ATOM     16  H   UNL     1       3.207  -1.294  -1.838  0.00  0.00    +0.144 HD
ENDROOT
BRANCH   1  17
ATOM     17  S   UNL     1      -1.113   1.342  -1.487  0.00  0.00    -0.077 S 
BRANCH  17  18
ATOM     18  C   UNL     1      -0.329   0.604  -0.033  0.00  0.00    +0.173 C 
BRANCH  18  20
ATOM     19  N   UNL     1      -0.757   0.459   2.399  0.00  0.00    -0.311 N 
ATOM     20  C   UNL     1      -1.151   0.910   1.192  0.00  0.00    +0.224 C 
ATOM     21  O   UNL     1      -2.168   1.564   1.091  0.00  0.00    -0.275 OA
ATOM     22  H   UNL     1       0.165  -0.134   2.490  0.00  0.00    +0.149 HD
BRANCH  19  23
ATOM     23  C   UNL     1      -1.557   0.757   3.589  0.00  0.00    +0.139 C 
BRANCH  23  28
ATOM     24  C   UNL     1       0.947  -1.599   8.234  0.00  0.00    +0.044 C 
ATOM     25  C   UNL     1       0.294  -0.985   7.023  0.00  0.00    -0.050 A 
ATOM     26  C   UNL     1       0.623   0.301   6.637  0.00  0.00    +0.003 A 
ATOM     27  C   UNL     1       0.024   0.865   5.527  0.00  0.00    +0.005 A 
ATOM     28  C   UNL     1      -0.904   0.142   4.800  0.00  0.00    -0.030 A 
ATOM     29  C   UNL     1      -1.237  -1.142   5.188  0.00  0.00    +0.005 A 
ATOM     30  C   UNL     1      -0.634  -1.707   6.297  0.00  0.00    +0.003 A 
ENDBRANCH  23  28
ENDBRANCH  19  23
ENDBRANCH  18  20
ENDBRANCH  17  18
ENDBRANCH   1  17
TORSDOF 5
