REMARK  Name = ZINC13572280
REMARK  7 active torsions:
REMARK  status: ('A' for Active; 'I' for Inactive)
REMARK    1  A    between atoms: C_1  and  N_2
REMARK    2  A    between atoms: N_2  and  C_3
REMARK    3  A    between atoms: N_2  and  C_4
REMARK    4  A    between atoms: C_7  and  N_10
REMARK    5  A    between atoms: N_13  and  C_14
REMARK    6  A    between atoms: C_16  and  C_24
REMARK    7  A    between atoms: C_18  and  C_20
REMARK                            x       y       z     vdW  Elec       q    Type
REMARK                         _______ _______ _______ _____ _____    ______ ____
ROOT
ATOM      1  N   UNL     1       0.065  -2.732  -4.814  0.00  0.00    -0.326 N 
ATOM      2  C   UNL     1      -0.084  -2.072  -6.006  0.00  0.00    +0.203 C 
ATOM      3  N   UNL     1      -0.367  -0.732  -6.015  0.00  0.00    -0.369 N 
ATOM      4  N   UNL     1       0.045  -2.726  -7.141  0.00  0.00    -0.177 NA
ATOM      5  H   UNL     1       0.620  -3.526  -4.766  0.00  0.00    +0.169 HD
ATOM      6  H   UNL     1      -0.189  -0.193  -5.229  0.00  0.00    +0.159 HD
ATOM      7  H   UNL     1      -0.745  -0.322  -6.809  0.00  0.00    +0.159 HD
ENDROOT
BRANCH   1  11
ATOM      8  C   UNL     1      -1.866  -1.326  -1.396  0.00  0.00    +0.029 A 
ATOM      9  C   UNL     1      -0.623  -1.936  -1.290  0.00  0.00    +0.025 A 
ATOM     10  C   UNL     1       0.016  -2.401  -2.422  0.00  0.00    +0.027 A 
ATOM     11  C   UNL     1      -0.584  -2.259  -3.666  0.00  0.00    +0.042 A 
ATOM     12  C   UNL     1      -1.826  -1.649  -3.772  0.00  0.00    +0.027 A 
ATOM     13  C   UNL     1      -2.469  -1.189  -2.640  0.00  0.00    +0.025 A 
BRANCH   8  15
ATOM     14  C   UNL     1      -3.828  -0.215  -0.360  0.00  0.00    +0.129 C 
ATOM     15  N   UNL     1      -2.514  -0.854  -0.249  0.00  0.00    -0.336 N 
ATOM     16  C   UNL     1      -1.878  -0.998   1.063  0.00  0.00    +0.129 C 
ENDBRANCH   8  15
ENDBRANCH   1  11
BRANCH   4  17
ATOM     17  C   UNL     1       0.150  -4.082  -7.137  0.00  0.00    +0.254 A 
ATOM     18  N   UNL     1      -0.033  -4.746  -5.998  0.00  0.00    -0.207 NA
ATOM     19  C   UNL     1       0.062  -6.064  -5.963  0.00  0.00    +0.149 A 
ATOM     20  C   UNL     1       0.355  -6.754  -7.129  0.00  0.00    +0.064 A 
ATOM     21  C   UNL     1       0.541  -6.034  -8.300  0.00  0.00    +0.149 A 
ATOM     22  N   UNL     1       0.427  -4.717  -8.273  0.00  0.00    -0.207 NA
BRANCH  21  23
ATOM     23  C   UNL     1       0.862  -6.745  -9.589  0.00  0.00    +0.434 C 
ATOM     24  F   UNL     1      -0.327  -7.066 -10.253  0.00  0.00    -0.164 F 
ATOM     25  F   UNL     1       1.639  -5.912 -10.400  0.00  0.00    -0.164 F 
ATOM     26  F   UNL     1       1.571  -7.918  -9.310  0.00  0.00    -0.164 F 
ENDBRANCH  21  23
BRANCH  19  27
ATOM     27  C   UNL     1      -0.146  -6.808  -4.669  0.00  0.00    +0.434 C 
ATOM     28  F   UNL     1      -0.538  -5.908  -3.672  0.00  0.00    -0.164 F 
ATOM     29  F   UNL     1      -1.142  -7.775  -4.842  0.00  0.00    -0.164 F 
ATOM     30  F   UNL     1       1.048  -7.430  -4.292  0.00  0.00    -0.164 F 
ENDBRANCH  19  27
ENDBRANCH   4  17
TORSDOF 5
