REMARK  Name = ZINC04081366
REMARK  9 active torsions:
REMARK  status: ('A' for Active; 'I' for Inactive)
REMARK    1  A    between atoms: C_1  and  C_2
REMARK    2  A    between atoms: C_8  and  C_26
REMARK    3  A    between atoms: C_12  and  C_14
REMARK    4  A    between atoms: C_12  and  C_15
REMARK    5  A    between atoms: C_15  and  O_16
REMARK    6  A    between atoms: C_19  and  O_25
REMARK    7  A    between atoms: C_21  and  C_22
REMARK    8  A    between atoms: C_21  and  C_23
REMARK    9  A    between atoms: C_23  and  O_24
REMARK                            x       y       z     vdW  Elec       q    Type
REMARK                         _______ _______ _______ _____ _____    ______ ____
ROOT
ATOM      1  C   UNL     1       2.204  -0.934   6.010  0.00  0.00    +0.010 C 
ATOM      2  C   UNL     1       1.091  -0.544   5.032  0.00  0.00    +0.018 C 
ATOM      3  C   UNL     1       1.357  -1.234   3.694  0.00  0.00    +0.006 C 
ATOM      4  C   UNL     1       0.285  -0.849   2.671  0.00  0.00    +0.005 C 
ATOM      5  C   UNL     1       0.269   0.670   2.511  0.00  0.00    +0.008 C 
ATOM      6  C   UNL     1      -0.059   1.336   3.841  0.00  0.00    +0.001 C 
ATOM      7  C   UNL     1       1.043   0.971   4.855  0.00  0.00    +0.079 C 
ATOM      8  C   UNL     1       0.740   1.651   6.200  0.00  0.00    +0.039 C 
ATOM      9  C   UNL     1       2.106   2.206   6.663  0.00  0.00    +0.040 C 
ATOM     10  C   UNL     1       2.940   2.282   5.372  0.00  0.00    +0.090 C 
ATOM     11  O   UNL     1       2.298   1.469   4.389  0.00  0.00    -0.364 OA
ATOM     12  C   UNL     1       4.360   1.768   5.641  0.00  0.00    +0.044 C 
ATOM     13  C   UNL     1      -0.093   2.855   3.662  0.00  0.00    +0.012 C 
ATOM     14  C   UNL     1      -1.143   3.223   2.612  0.00  0.00    +0.032 C 
ATOM     15  C   UNL     1      -0.741   2.628   1.267  0.00  0.00    +0.123 C 
ATOM     16  C   UNL     1      -0.590   1.109   1.342  0.00  0.00    +0.020 C 
ATOM     17  C   UNL     1      -1.968   0.449   1.339  0.00  0.00    +0.016 C 
ATOM     18  C   UNL     1      -1.397   0.868   4.411  0.00  0.00    +0.014 C 
ENDROOT
BRANCH  15  19
ATOM     19  O   UNL     1      -1.735   2.953   0.289  0.00  0.00    -0.391 OA
ATOM     20  H   UNL     1      -1.888   3.902   0.184  0.00  0.00    +0.210 HD
ENDBRANCH  15  19
BRANCH  10  21
ATOM     21  C   UNL     1       3.024   3.737   4.898  0.00  0.00    +0.190 C 
BRANCH  21  22
ATOM     22  O   UNL     1       3.803   3.804   3.702  0.00  0.00    -0.392 OA
ATOM     23  H   UNL     1       3.898   4.697   3.344  0.00  0.00    +0.210 HD
ENDBRANCH  21  22
ENDBRANCH  10  21
BRANCH  16  24
ATOM     24  C   UNL     1       0.123   0.676   0.037  0.00  0.00    +0.165 C 
BRANCH  24  25
ATOM     25  O   UNL     1      -0.641   1.109  -1.090  0.00  0.00    -0.394 OA
ATOM     26  H   UNL     1      -0.253   0.872  -1.943  0.00  0.00    +0.209 HD
ENDBRANCH  24  25
ENDBRANCH  16  24
TORSDOF 5
