REMARK  Name = ZINC39672135
REMARK  9 active torsions:
REMARK  status: ('A' for Active; 'I' for Inactive)
REMARK    1  A    between atoms: C_1  and  C_2
REMARK    2  A    between atoms: C_2  and  C_3
REMARK    3  A    between atoms: C_3  and  C_4
REMARK    4  A    between atoms: C_4  and  C_6
REMARK    5  A    between atoms: C_4  and  C_7
REMARK    6  A    between atoms: C_11  and  C_20
REMARK    7  A    between atoms: N_22  and  C_23
REMARK    8  A    between atoms: C_23  and  C_24
REMARK    9  A    between atoms: N_33  and  C_34
REMARK                            x       y       z     vdW  Elec       q    Type
REMARK                         _______ _______ _______ _____ _____    ______ ____
ROOT
ATOM      1  C   UNL     1       1.304  -2.543  -2.246  0.00  0.00    +0.218 C 
ATOM      2  O   UNL     1       1.676  -1.672  -3.004  0.00  0.00    -0.275 OA
ATOM      3  N   UNL     1       1.433  -3.839  -2.592  0.00  0.00    -0.300 N 
ATOM      4  C   UNL     1       1.034  -5.032  -1.809  0.00  0.00    +0.121 C 
ATOM      5  C   UNL     1       0.455  -6.010  -2.855  0.00  0.00    +0.100 C 
ATOM      6  C   UNL     1       1.098  -5.586  -4.186  0.00  0.00    -0.004 C 
ATOM      7  C   UNL     1       2.001  -4.393  -3.844  0.00  0.00    +0.115 C 
ATOM      8  C   UNL     1       0.022  -5.158  -5.181  0.00  0.00    -0.010 C 
ATOM      9  C   UNL     1       0.682  -4.796  -6.514  0.00  0.00    -0.082 C 
ATOM     10  N   UNL     1       1.418  -5.957  -7.029  0.00  0.00    +0.379 N 
ATOM     11  C   UNL     1       2.510  -6.305  -6.111  0.00  0.00    -0.082 C 
ATOM     12  C   UNL     1       1.928  -6.731  -4.760  0.00  0.00    -0.010 C 
ATOM     13  H   UNL     1       0.789  -6.742  -7.114  0.00  0.00    -0.086 HD
ATOM     14  H   UNL     1       1.801  -5.736  -7.936  0.00  0.00    -0.086 HD
ENDROOT
BRANCH   5  15
ATOM     15  C   UNL     1      -1.045  -5.873  -2.927  0.00  0.00    +0.218 C 
ATOM     16  O   UNL     1      -1.568  -4.806  -2.688  0.00  0.00    -0.275 OA
ATOM     17  N   UNL     1      -1.803  -6.937  -3.258  0.00  0.00    -0.311 N 
ATOM     18  H   UNL     1      -1.384  -7.790  -3.449  0.00  0.00    +0.149 HD
BRANCH  17  19
ATOM     19  C   UNL     1      -3.260  -6.804  -3.328  0.00  0.00    +0.139 C 
BRANCH  19  20
ATOM     20  C   UNL     1      -3.868  -8.128  -3.715  0.00  0.00    -0.030 A 
ATOM     21  C   UNL     1      -4.057  -8.436  -5.050  0.00  0.00    +0.007 A 
ATOM     22  C   UNL     1      -4.615  -9.648  -5.404  0.00  0.00    +0.024 A 
ATOM     23  C   UNL     1      -4.984 -10.558  -4.420  0.00  0.00    +0.033 A 
ATOM     24  C   UNL     1      -4.791 -10.250  -3.083  0.00  0.00    -0.026 A 
ATOM     25  C   UNL     1      -4.228  -9.033  -2.736  0.00  0.00    +0.010 A 
ATOM     26  C   UNL     1      -5.169 -11.216  -1.990  0.00  0.00    +0.038 C 
ATOM     27  C   UNL     1      -6.191 -12.230  -2.503  0.00  0.00    +0.024 C 
ATOM     28  C   UNL     1      -5.664 -12.852  -3.803  0.00  0.00    +0.105 C 
ATOM     29  N   UNL     1      -5.552 -11.779  -4.801  0.00  0.00    -0.333 N 
ATOM     30  C   UNL     1      -6.028 -11.984  -6.171  0.00  0.00    +0.129 C 
ENDBRANCH  19  20
ENDBRANCH  17  19
ENDBRANCH   5  15
BRANCH   1  31
ATOM     31  C   UNL     1       0.696  -2.175  -0.917  0.00  0.00    +0.072 C 
ATOM     32  C   UNL     1       1.536  -2.776   0.212  0.00  0.00    +0.017 C 
BRANCH  31  33
ATOM     33  C   UNL     1       0.666  -0.651  -0.774  0.00  0.00    +0.012 C 
BRANCH  33  35
ATOM     34  C   UNL     1      -0.092   1.248   0.661  0.00  0.00    +0.004 C 
ATOM     35  C   UNL     1      -0.062  -0.275   0.518  0.00  0.00    -0.003 C 
ENDBRANCH  33  35
ENDBRANCH  31  33
ENDBRANCH   1  31
TORSDOF 6
