REMARK  Name = ZINC01921408
REMARK  6 active torsions:
REMARK  status: ('A' for Active; 'I' for Inactive)
REMARK    1  A    between atoms: C_6  and  N_7
REMARK    2  A    between atoms: C_8  and  N_15
REMARK    3  A    between atoms: C_16  and  C_18
REMARK    4  A    between atoms: C_18  and  S_19
REMARK    5  A    between atoms: S_19  and  C_20
REMARK    6  A    between atoms: C_24  and  N_29
REMARK                            x       y       z     vdW  Elec       q    Type
REMARK                         _______ _______ _______ _____ _____    ______ ____
ROOT
ATOM      1  N   UNL     1      -3.432   3.087   0.041  0.00  0.00    -0.271 N 
ATOM      2  C   UNL     1      -2.242   3.691  -0.146  0.00  0.00    +0.228 C 
ATOM      3  O   UNL     1      -1.260   3.027  -0.402  0.00  0.00    -0.275 OA
ATOM      4  H   UNL     1      -4.337   3.692   0.199  0.00  0.00    +0.156 HD
ENDROOT
BRANCH   1   6
ATOM      5  N   UNL     1      -3.855   1.041  -1.116  0.00  0.00    -0.248 N 
ATOM      6  C   UNL     1      -3.516   1.711   0.036  0.00  0.00    +0.119 A 
ATOM      7  C   UNL     1      -3.262   1.002   1.174  0.00  0.00    +0.114 A 
ATOM      8  C   UNL     1      -3.354  -0.401   1.139  0.00  0.00    +0.278 A 
ATOM      9  O   UNL     1      -3.133  -1.055   2.143  0.00  0.00    -0.266 OA
ATOM     10  N   UNL     1      -3.690  -1.017  -0.011  0.00  0.00    -0.153 NA
ATOM     11  C   UNL     1      -3.942  -0.302  -1.122  0.00  0.00    +0.357 A 
ATOM     12  O   UNL     1      -4.249  -0.877  -2.149  0.00  0.00    -0.244 OA
BRANCH   5  18
ATOM     13  C   UNL     1      -3.112   1.953  -3.227  0.00  0.00    +0.028 A 
ATOM     14  C   UNL     1      -3.374   2.658  -4.385  0.00  0.00    +0.022 A 
ATOM     15  C   UNL     1      -4.637   3.180  -4.608  0.00  0.00    +0.041 A 
ATOM     16  C   UNL     1      -5.639   2.995  -3.672  0.00  0.00    +0.022 A 
ATOM     17  C   UNL     1      -5.382   2.291  -2.512  0.00  0.00    +0.028 A 
ATOM     18  C   UNL     1      -4.117   1.762  -2.289  0.00  0.00    +0.053 A 
ATOM     19 CL   UNL     1      -4.963   4.066  -6.064  0.00  0.00    -0.084 Cl
ENDBRANCH   5  18
ENDBRANCH   1   6
BRANCH   2  20
ATOM     20  C   UNL     1      -2.132   5.190  -0.038  0.00  0.00    +0.172 C 
BRANCH  20  21
ATOM     21  S   UNL     1      -0.392   5.676  -0.151  0.00  0.00    -0.089 S 
BRANCH  21  22
ATOM     22  C   UNL     1      -0.553   7.425   0.000  0.00  0.00    +0.136 A 
ATOM     23  N   UNL     1       0.387   8.343  -0.010  0.00  0.00    -0.233 NA
ATOM     24  C   UNL     1       0.115   9.660   0.117  0.00  0.00    +0.082 A 
ATOM     25  C   UNL     1       1.025  10.742   0.123  0.00  0.00    +0.061 A 
ATOM     26  C   UNL     1       0.580  12.031   0.263  0.00  0.00    +0.128 A 
ATOM     27  C   UNL     1      -0.769  12.320   0.404  0.00  0.00    +0.034 A 
ATOM     28  C   UNL     1      -1.688  11.286   0.402  0.00  0.00    +0.019 A 
ATOM     29  C   UNL     1      -1.251   9.993   0.263  0.00  0.00    +0.040 A 
ATOM     30  S   UNL     1      -2.037   8.401   0.198  0.00  0.00    -0.061 S 
BRANCH  26  31
ATOM     31  N   UNL     1       1.561  13.139   0.266  0.00  0.00    +0.056 N 
ATOM     32  O   UNL     1       1.181  14.290   0.390  0.00  0.00    -0.126 OA
ATOM     33  O   UNL     1       2.749  12.901   0.143  0.00  0.00    -0.126 OA
ENDBRANCH  26  31
ENDBRANCH  21  22
ENDBRANCH  20  21
ENDBRANCH   2  20
TORSDOF 6
