REMARK  Name = ZINC37928940
REMARK  5 active torsions:
REMARK  status: ('A' for Active; 'I' for Inactive)
REMARK    1  A    between atoms: C_1  and  C_2
REMARK    2  A    between atoms: C_5  and  C_21
REMARK    3  A    between atoms: N_8  and  S_10
REMARK    4  A    between atoms: S_10  and  C_13
REMARK    5  A    between atoms: C_18  and  N_19
REMARK                            x       y       z     vdW  Elec       q    Type
REMARK                         _______ _______ _______ _____ _____    ______ ____
ROOT
ATOM      1  S   UNL     1       2.078  -3.122   1.026  0.00  0.00    +0.063 S 
ATOM      2  O   UNL     1       1.814  -4.353   0.368  0.00  0.00    -0.153 OA
ATOM      3  O   UNL     1       3.046  -2.196   0.551  0.00  0.00    -0.153 OA
ENDROOT
BRANCH   1   9
ATOM      4  C   UNL     1      -0.478   1.143   0.007  0.00  0.00    +0.009 C 
ATOM      5  C   UNL     1      -0.329  -0.379  -0.042  0.00  0.00    +0.002 C 
ATOM      6  C   UNL     1      -1.700  -1.032   0.146  0.00  0.00    +0.009 C 
ATOM      7  C   UNL     1      -1.557  -2.554   0.065  0.00  0.00    +0.002 C 
ATOM      8  C   UNL     1      -0.632  -3.037   1.187  0.00  0.00    +0.112 C 
ATOM      9  N   UNL     1       0.639  -2.306   1.099  0.00  0.00    -0.176 NA
ATOM     10  C   UNL     1       0.610  -0.837   1.078  0.00  0.00    +0.112 C 
ATOM     11  C   UNL     1      -0.961  -2.939  -1.291  0.00  0.00    +0.009 C 
ENDBRANCH   1   9
BRANCH   1  12
ATOM     12  C   UNL     1       2.535  -3.522   2.680  0.00  0.00    +0.127 A 
ATOM     13  C   UNL     1       2.573  -4.842   3.086  0.00  0.00    +0.050 A 
ATOM     14  C   UNL     1       2.932  -5.158   4.385  0.00  0.00    +0.043 A 
ATOM     15  C   UNL     1       3.252  -4.152   5.280  0.00  0.00    +0.022 A 
ATOM     16  C   UNL     1       3.215  -2.831   4.880  0.00  0.00    +0.026 A 
ATOM     17  C   UNL     1       2.861  -2.512   3.575  0.00  0.00    +0.051 A 
ATOM     18 CL   UNL     1       2.979  -6.817   4.892  0.00  0.00    -0.083 Cl
BRANCH  17  19
ATOM     19  N   UNL     1       2.829  -1.177   3.165  0.00  0.00    -0.356 N 
ATOM     20  H   UNL     1       2.665  -0.959   2.234  0.00  0.00    +0.142 HD
ATOM     21  H   UNL     1       2.970  -0.467   3.812  0.00  0.00    +0.142 HD
ENDBRANCH  17  19
ENDBRANCH   1  12
TORSDOF 3
