REMARK  Name = ZINC49549400
REMARK  4 active torsions:
REMARK  status: ('A' for Active; 'I' for Inactive)
REMARK    1  A    between atoms: C_1  and  C_2
REMARK    2  A    between atoms: C_2  and  C_4
REMARK    3  A    between atoms: C_2  and  O_22
REMARK    4  A    between atoms: C_7  and  N_10
REMARK                            x       y       z     vdW  Elec       q    Type
REMARK                         _______ _______ _______ _____ _____    ______ ____
ROOT
ATOM      1  N   UNL     1       2.746  -1.883   4.598  0.00  0.00    -0.269 N 
ATOM      2  C   UNL     1       2.054  -2.223   5.704  0.00  0.00    +0.310 C 
ATOM      3  O   UNL     1       0.839  -2.215   5.687  0.00  0.00    -0.252 OA
ATOM      4  N   UNL     1       2.710  -2.573   6.828  0.00  0.00    -0.248 N 
ATOM      5  C   UNL     1       1.997  -2.925   7.968  0.00  0.00    +0.166 A 
ATOM      6  N   UNL     1       0.698  -2.979   8.132  0.00  0.00    -0.229 NA
ATOM      7  C   UNL     1       0.143  -3.339   9.298  0.00  0.00    +0.054 A 
ATOM      8  C   UNL     1       1.027  -3.635  10.279  0.00  0.00    +0.014 A 
ATOM      9  S   UNL     1       2.591  -3.393   9.472  0.00  0.00    -0.057 S 
ATOM     10  C   UNL     1       0.345  -4.024  11.556  0.00  0.00    +0.045 C 
ATOM     11  C   UNL     1      -1.109  -3.526  11.389  0.00  0.00    +0.011 C 
ATOM     12  C   UNL     1      -1.267  -3.519   9.855  0.00  0.00    +0.056 C 
ATOM     13  H   UNL     1       3.713  -1.963   4.587  0.00  0.00    +0.156 HD
ATOM     14  H   UNL     1       3.680  -2.580   6.842  0.00  0.00    +0.158 HD
ENDROOT
BRANCH   1  18
ATOM     15  C   UNL     1       0.733  -0.483   1.230  0.00  0.00    -0.019 A 
ATOM     16  C   UNL     1       0.247  -0.198   2.493  0.00  0.00    +0.008 A 
ATOM     17  C   UNL     1       0.912  -0.660   3.611  0.00  0.00    +0.024 A 
ATOM     18  C   UNL     1       2.070  -1.413   3.467  0.00  0.00    +0.035 A 
ATOM     19  C   UNL     1       2.555  -1.698   2.198  0.00  0.00    +0.024 A 
ATOM     20  C   UNL     1       1.883  -1.237   1.083  0.00  0.00    +0.008 A 
BRANCH  15  22
ATOM     21  C   UNL     1      -1.193  -0.883  -0.279  0.00  0.00    +0.043 C 
ATOM     22  C   UNL     1       0.005   0.023   0.012  0.00  0.00    +0.141 C 
BRANCH  22  23
ATOM     23  O   UNL     1      -0.453   1.356   0.249  0.00  0.00    -0.387 OA
ATOM     24  H   UNL     1      -1.060   1.436   0.998  0.00  0.00    +0.210 HD
ENDBRANCH  22  23
ENDBRANCH  15  22
ENDBRANCH   1  18
TORSDOF 3
