REMARK  Name = ZINC38651047
REMARK  9 active torsions:
REMARK  status: ('A' for Active; 'I' for Inactive)
REMARK    1  A    between atoms: C_1  and  C_2
REMARK    2  A    between atoms: C_2  and  C_4
REMARK    3  A    between atoms: C_2  and  O_28
REMARK    4  A    between atoms: C_4  and  O_6
REMARK    5  A    between atoms: O_6  and  C_7
REMARK    6  A    between atoms: C_14  and  N_27
REMARK    7  A    between atoms: C_15  and  C_25
REMARK    8  A    between atoms: C_16  and  C_18
REMARK    9  A    between atoms: O_28  and  C_29
REMARK                            x       y       z     vdW  Elec       q    Type
REMARK                         _______ _______ _______ _____ _____    ______ ____
ROOT
ATOM      1  C   UNL     1      -3.662  -0.573   0.866  0.00  0.00    +0.135 A 
ATOM      2  C   UNL     1      -4.012  -1.397  -0.195  0.00  0.00    +0.047 A 
ATOM      3  C   UNL     1      -5.301  -1.879  -0.297  0.00  0.00    +0.012 A 
ATOM      4  C   UNL     1      -6.249  -1.545   0.654  0.00  0.00    +0.008 A 
ATOM      5  C   UNL     1      -5.905  -0.722   1.715  0.00  0.00    +0.138 A 
ATOM      6  C   UNL     1      -4.607  -0.241   1.823  0.00  0.00    +0.093 A 
ATOM      7  O   UNL     1      -6.820  -0.383   2.657  0.00  0.00    -0.441 OA
ATOM      8  C   UNL     1      -7.935  -1.118   2.804  0.00  0.00    +0.199 C 
ATOM      9  C   UNL     1      -8.382  -1.944   1.828  0.00  0.00    +0.098 C 
ATOM     10  C   UNL     1      -7.650  -2.081   0.523  0.00  0.00    +0.099 C 
ENDROOT
BRANCH  10  11
ATOM     11  C   UNL     1      -8.383  -1.308  -0.544  0.00  0.00    -0.016 A 
ATOM     12  C   UNL     1      -8.551   0.058  -0.415  0.00  0.00    +0.006 A 
ATOM     13  C   UNL     1      -9.223   0.767  -1.393  0.00  0.00    +0.000 A 
ATOM     14  C   UNL     1      -9.727   0.110  -2.501  0.00  0.00    +0.001 A 
ATOM     15  C   UNL     1      -9.559  -1.256  -2.630  0.00  0.00    +0.020 A 
ATOM     16  C   UNL     1      -8.882  -1.965  -1.654  0.00  0.00    +0.045 A 
ATOM     17 CL   UNL     1      -8.665  -3.679  -1.819  0.00  0.00    -0.083 Cl
ENDBRANCH  10  11
BRANCH   8  18
ATOM     18  N   UNL     1      -8.641  -1.030   3.977  0.00  0.00    -0.328 N 
ATOM     19  H   UNL     1      -8.333  -0.443   4.686  0.00  0.00    +0.145 HD
ATOM     20  H   UNL     1      -9.448  -1.554   4.098  0.00  0.00    +0.145 HD
ENDBRANCH   8  18
BRANCH   9  21
ATOM     21  C   UNL     1      -9.577  -2.703   2.045  0.00  0.00    +0.101 C 
ATOM     22  N   UNL     1     -10.525  -3.305   2.217  0.00  0.00    -0.191 NA
ENDBRANCH   9  21
BRANCH   1  23
ATOM     23  O   UNL     1      -2.393  -0.097   0.969  0.00  0.00    -0.423 OA
BRANCH  23  24
ATOM     24  C   UNL     1      -2.026   0.901   0.149  0.00  0.00    +0.353 C 
ATOM     25  O   UNL     1      -2.840   1.411  -0.584  0.00  0.00    -0.246 OA
BRANCH  24  27
ATOM     26  C   UNL     1      -0.267   2.010   1.500  0.00  0.00    +0.064 C 
ATOM     27  C   UNL     1      -0.599   1.385   0.143  0.00  0.00    +0.279 C 
BRANCH  27  28
ATOM     28  O   UNL     1      -0.432   2.363  -0.885  0.00  0.00    -0.478 OA
BRANCH  28  29
ATOM     29  C   UNL     1       0.822   2.525  -1.385  0.00  0.00    +0.122 A 
ATOM     30  C   UNL     1       1.887   1.838  -0.823  0.00  0.00    +0.048 A 
ATOM     31  C   UNL     1       3.161   2.004  -1.332  0.00  0.00    +0.042 A 
ATOM     32  C   UNL     1       3.374   2.856  -2.402  0.00  0.00    +0.124 A 
ATOM     33  C   UNL     1       2.312   3.543  -2.963  0.00  0.00    +0.042 A 
ATOM     34  C   UNL     1       1.036   3.374  -2.461  0.00  0.00    +0.048 A 
ATOM     35  F   UNL     1       4.620   3.017  -2.898  0.00  0.00    -0.205 F 
ENDBRANCH  28  29
ENDBRANCH  27  28
ENDBRANCH  24  27
ENDBRANCH  23  24
ENDBRANCH   1  23
TORSDOF 8
