REMARK  Name = ZINC59310754
REMARK  9 active torsions:
REMARK  status: ('A' for Active; 'I' for Inactive)
REMARK    1  A    between atoms: C_1  and  C_2
REMARK    2  A    between atoms: C_5  and  C_32
REMARK    3  A    between atoms: C_6  and  N_8
REMARK    4  A    between atoms: C_9  and  C_11
REMARK    5  A    between atoms: C_11  and  S_12
REMARK    6  A    between atoms: S_12  and  C_13
REMARK    7  A    between atoms: N_18  and  N_19
REMARK    8  A    between atoms: C_20  and  C_21
REMARK    9  A    between atoms: C_20  and  C_22
REMARK                            x       y       z     vdW  Elec       q    Type
REMARK                         _______ _______ _______ _____ _____    ______ ____
ROOT
ATOM      1  C   UNL     1       0.537  -2.770   7.657  0.00  0.00    +0.211 A 
ATOM      2  N   UNL     1       0.641  -2.347   8.921  0.00  0.00    -0.186 NA
ATOM      3  C   UNL     1       0.732  -3.382   9.729  0.00  0.00    +0.232 A 
ATOM      4  N   UNL     1       0.685  -4.502   8.977  0.00  0.00    -0.245 N 
ATOM      5  N   UNL     1       0.554  -4.082   7.644  0.00  0.00    -0.144 NA
ATOM      6  N   UNL     1       0.854  -3.331  11.106  0.00  0.00    -0.205 N 
ATOM      7  H   UNL     1       0.915  -4.153  11.618  0.00  0.00    +0.177 HD
ATOM      8  H   UNL     1       0.730  -5.418   9.296  0.00  0.00    +0.192 HD
ENDROOT
BRANCH   6   9
ATOM      9  N   UNL     1       0.891  -2.093  11.761  0.00  0.00    -0.189 NA
ATOM     10  C   UNL     1       1.004  -2.046  13.035  0.00  0.00    +0.040 C 
ATOM     11  C   UNL     1       1.098  -3.322  13.831  0.00  0.00    +0.063 C 
BRANCH  10  12
ATOM     12  C   UNL     1       1.043  -0.714  13.739  0.00  0.00    +0.011 C 
ATOM     13  C   UNL     1       2.363  -0.578  14.501  0.00  0.00    +0.016 C 
ATOM     14  C   UNL     1       2.403   0.774  15.215  0.00  0.00    -0.010 C 
ATOM     15  C   UNL     1       2.291   1.899  14.185  0.00  0.00    +0.007 C 
ATOM     16  C   UNL     1       0.971   1.763  13.423  0.00  0.00    -0.010 C 
ATOM     17  C   UNL     1       0.931   0.411  12.709  0.00  0.00    +0.016 C 
ATOM     18  C   UNL     1      -0.197   1.855  14.407  0.00  0.00    +0.007 C 
ATOM     19  C   UNL     1      -0.085   0.729  15.438  0.00  0.00    -0.010 C 
ATOM     20  C   UNL     1       1.235   0.865  16.199  0.00  0.00    +0.007 C 
ATOM     21  C   UNL     1      -0.125  -0.623  14.723  0.00  0.00    +0.016 C 
ENDBRANCH  10  12
ENDBRANCH   6   9
BRANCH   1  22
ATOM     22  S   UNL     1       0.391  -1.734   6.239  0.00  0.00    -0.075 S 
BRANCH  22  23
ATOM     23  C   UNL     1       0.280  -2.900   4.854  0.00  0.00    +0.173 C 
BRANCH  23  25
ATOM     24  N   UNL     1       0.052  -2.797   2.393  0.00  0.00    -0.285 N 
ATOM     25  C   UNL     1       0.150  -2.135   3.562  0.00  0.00    +0.227 C 
ATOM     26  O   UNL     1       0.134  -0.922   3.575  0.00  0.00    -0.275 OA
ATOM     27  H   UNL     1      -0.016  -3.765   2.388  0.00  0.00    +0.155 HD
BRANCH  24  33
ATOM     28  C   UNL     1       1.264   1.227  -0.158  0.00  0.00    +0.044 C 
ATOM     29  C   UNL     1       0.628  -0.137  -0.079  0.00  0.00    -0.049 A 
ATOM     30  C   UNL     1       0.039  -0.690  -1.201  0.00  0.00    +0.004 A 
ATOM     31  C   UNL     1      -0.546  -1.941  -1.133  0.00  0.00    +0.005 A 
ATOM     32  C   UNL     1      -0.543  -2.643   0.057  0.00  0.00    -0.029 A 
ATOM     33  C   UNL     1       0.048  -2.090   1.185  0.00  0.00    +0.037 A 
ATOM     34  C   UNL     1       0.639  -0.835   1.112  0.00  0.00    +0.027 A 
ATOM     35  C   UNL     1      -1.181  -4.006   0.131  0.00  0.00    +0.045 C 
ENDBRANCH  24  33
ENDBRANCH  23  25
ENDBRANCH  22  23
ENDBRANCH   1  22
TORSDOF 6
