REMARK  Name = ZINC04095177
REMARK  4 active torsions:
REMARK  status: ('A' for Active; 'I' for Inactive)
REMARK    1  A    between atoms: C_1  and  C_2
REMARK    2  A    between atoms: C_9  and  N_26
REMARK    3  A    between atoms: C_10  and  C_24
REMARK    4  A    between atoms: C_11  and  C_13
REMARK                            x       y       z     vdW  Elec       q    Type
REMARK                         _______ _______ _______ _____ _____    ______ ____
ROOT
ATOM      1  C   UNL     1      -0.018   1.503   0.010  0.00  0.00    +0.065 C 
ATOM      2  C   UNL     1       0.002  -0.004   0.002  0.00  0.00    +0.041 A 
ATOM      3  C   UNL     1       0.008  -0.790  -1.085  0.00  0.00    +0.049 A 
ATOM      4  C   UNL     1       0.027  -2.135  -0.654  0.00  0.00    +0.245 A 
ATOM      5  N   UNL     1       0.034  -2.141   0.647  0.00  0.00    -0.135 NA
ATOM      6  N   UNL     1       0.024  -0.809   1.090  0.00  0.00    -0.278 N 
ATOM      7  H   UNL     1       0.029  -0.516   2.015  0.00  0.00    +0.189 HD
ATOM      8  O   UNL     1       0.034  -3.173  -1.533  0.00  0.00    -0.421 OA
ATOM      9  C   UNL     1      -0.251  -2.898  -2.821  0.00  0.00    +0.201 C 
ATOM     10  C   UNL     1      -0.287  -1.657  -3.349  0.00  0.00    +0.098 C 
ATOM     11  C   UNL     1      -0.003  -0.413  -2.545  0.00  0.00    +0.107 C 
ENDROOT
BRANCH  11  12
ATOM     12  C   UNL     1       1.340   0.149  -2.935  0.00  0.00    +0.042 A 
ATOM     13  C   UNL     1       2.478  -0.628  -2.807  0.00  0.00    +0.168 A 
ATOM     14  C   UNL     1       3.713  -0.112  -3.166  0.00  0.00    +0.197 A 
ATOM     15  C   UNL     1       3.808   1.182  -3.653  0.00  0.00    +0.199 A 
ATOM     16  C   UNL     1       2.668   1.959  -3.780  0.00  0.00    +0.197 A 
ATOM     17  C   UNL     1       1.433   1.439  -3.426  0.00  0.00    +0.168 A 
ATOM     18  F   UNL     1       0.320   2.195  -3.556  0.00  0.00    -0.202 F 
ATOM     19  F   UNL     1       2.760   3.220  -4.255  0.00  0.00    -0.199 F 
ATOM     20  F   UNL     1       5.012   1.686  -4.002  0.00  0.00    -0.199 F 
ATOM     21  F   UNL     1       4.825  -0.870  -3.041  0.00  0.00    -0.199 F 
ATOM     22  F   UNL     1       2.385  -1.889  -2.332  0.00  0.00    -0.202 F 
ENDBRANCH  11  12
BRANCH   9  23
ATOM     23  N   UNL     1      -0.523  -3.954  -3.655  0.00  0.00    -0.328 N 
ATOM     24  H   UNL     1      -0.506  -4.861  -3.310  0.00  0.00    +0.145 HD
ATOM     25  H   UNL     1      -0.732  -3.794  -4.588  0.00  0.00    +0.145 HD
ENDBRANCH   9  23
BRANCH  10  26
ATOM     26  C   UNL     1      -0.609  -1.514  -4.737  0.00  0.00    +0.101 C 
ATOM     27  N   UNL     1      -0.864  -1.400  -5.838  0.00  0.00    -0.191 NA
ENDBRANCH  10  26
TORSDOF 3
