REMARK  Name = ZINC06751746
REMARK  4 active torsions:
REMARK  status: ('A' for Active; 'I' for Inactive)
REMARK    1  A    between atoms: N_17  and  C_18
REMARK    2  A    between atoms: C_21  and  C_24
REMARK    3  A    between atoms: N_26  and  C_27
REMARK    4  A    between atoms: C_27  and  C_28
REMARK                            x       y       z     vdW  Elec       q    Type
REMARK                         _______ _______ _______ _____ _____    ______ ____
ROOT
ATOM      1  C   UNL     1       2.363   7.463  -2.414  0.00  0.00    +0.002 A 
ATOM      2  C   UNL     1       3.548   6.768  -2.254  0.00  0.00    +0.002 A 
ATOM      3  C   UNL     1       3.551   5.537  -1.627  0.00  0.00    +0.025 A 
ATOM      4  C   UNL     1       2.367   4.991  -1.156  0.00  0.00    +0.059 A 
ATOM      5  C   UNL     1       1.167   5.697  -1.312  0.00  0.00    +0.052 A 
ATOM      6  C   UNL     1       1.176   6.928  -1.952  0.00  0.00    +0.025 A 
ATOM      7  N   UNL     1       0.003   5.155  -0.816  0.00  0.00    -0.324 N 
ATOM      8  C   UNL     1      -1.282   5.578  -1.360  0.00  0.00    +0.105 C 
ATOM      9  C   UNL     1      -2.267   4.418  -1.065  0.00  0.00    +0.021 C 
ATOM     10  C   UNL     1      -1.397   3.311  -0.408  0.00  0.00    +0.025 C 
ATOM     11  C   UNL     1       0.014   3.673  -0.905  0.00  0.00    +0.091 C 
ATOM     12  C   UNL     1       1.126   3.185   0.021  0.00  0.00    +0.137 C 
ATOM     13  N   UNL     1       2.383   3.727  -0.538  0.00  0.00    -0.252 N 
ATOM     14  C   UNL     1       3.528   3.021  -0.457  0.00  0.00    +0.311 C 
ATOM     15  O   UNL     1       4.530   3.421  -1.017  0.00  0.00    -0.252 OA
ATOM     16  N   UNL     1       3.562   1.872   0.247  0.00  0.00    -0.269 N 
ATOM     17  H   UNL     1       2.746   1.513   0.629  0.00  0.00    +0.156 HD
ENDROOT
BRANCH  16  18
ATOM     18  C   UNL     1       4.770   1.200   0.425  0.00  0.00    +0.035 A 
ATOM     19  C   UNL     1       5.956   1.920   0.535  0.00  0.00    +0.024 A 
ATOM     20  C   UNL     1       7.150   1.259   0.716  0.00  0.00    +0.015 A 
ATOM     21  C   UNL     1       7.172  -0.137   0.779  0.00  0.00    +0.037 A 
ATOM     22  C   UNL     1       5.980  -0.857   0.663  0.00  0.00    +0.015 A 
ATOM     23  C   UNL     1       4.789  -0.190   0.487  0.00  0.00    +0.024 A 
BRANCH  21  24
ATOM     24  C   UNL     1       8.451  -0.849   0.968  0.00  0.00    +0.244 C 
ATOM     25  O   UNL     1       8.469  -2.063   1.022  0.00  0.00    -0.270 OA
ATOM     26  N   UNL     1       9.600  -0.152   1.079  0.00  0.00    -0.304 N 
ATOM     27  H   UNL     1       9.586   0.817   1.035  0.00  0.00    +0.149 HD
BRANCH  26  28
ATOM     28  C   UNL     1      10.869  -0.859   1.267  0.00  0.00    +0.179 C 
BRANCH  28  29
ATOM     29  C   UNL     1      11.992   0.142   1.362  0.00  0.00    +0.122 A 
ATOM     30  C   UNL     1      12.444   0.712   2.493  0.00  0.00    +0.046 A 
ATOM     31  C   UNL     1      13.496   1.580   2.123  0.00  0.00    +0.041 A 
ATOM     32  C   UNL     1      13.624   1.489   0.787  0.00  0.00    +0.195 A 
ATOM     33  O   UNL     1      12.714   0.613   0.332  0.00  0.00    -0.466 OA
ENDBRANCH  28  29
ENDBRANCH  26  28
ENDBRANCH  21  24
ENDBRANCH  16  18
TORSDOF 4
