REMARK  Name = ZINC05020069
REMARK  7 active torsions:
REMARK  status: ('A' for Active; 'I' for Inactive)
REMARK    1  A    between atoms: C_1  and  C_2
REMARK    2  A    between atoms: C_13  and  O_30
REMARK    3  A    between atoms: C_17  and  C_29
REMARK    4  A    between atoms: C_22  and  C_28
REMARK    5  A    between atoms: C_23  and  C_24
REMARK    6  A    between atoms: C_23  and  O_27
REMARK    7  A    between atoms: C_24  and  C_26
REMARK                            x       y       z     vdW  Elec       q    Type
REMARK                         _______ _______ _______ _____ _____    ______ ____
ROOT
ATOM      1  C   UNL     1      -2.770   2.367  -1.550  0.00  0.00    +0.011 C 
ATOM      2  C   UNL     1      -1.895   1.258  -0.974  0.00  0.00    +0.026 C 
ATOM      3  C   UNL     1      -0.391   1.596  -1.140  0.00  0.00    +0.011 C 
ATOM      4  C   UNL     1       0.213   1.112   0.194  0.00  0.00    +0.002 C 
ATOM      5  C   UNL     1       1.618   1.610   0.479  0.00  0.00    +0.000 C 
ATOM      6  C   UNL     1       2.577   0.496   0.039  0.00  0.00    +0.031 C 
ATOM      7  C   UNL     1       3.952   0.679   0.588  0.00  0.00    -0.027 C 
ATOM      8  C   UNL     1       4.214   1.360   1.663  0.00  0.00    -0.065 C 
ATOM      9  C   UNL     1       5.656   1.442   2.134  0.00  0.00    +0.062 C 
ATOM     10  C   UNL     1       5.703   1.042   3.612  0.00  0.00    +0.119 C 
ATOM     11  C   UNL     1       4.737   1.910   4.416  0.00  0.00    +0.032 C 
ATOM     12  C   UNL     1       3.304   1.713   3.935  0.00  0.00    +0.014 C 
ATOM     13  C   UNL     1       3.168   2.078   2.457  0.00  0.00    -0.008 C 
ATOM     14  C   UNL     1       1.754   1.876   1.971  0.00  0.00    +0.003 C 
ATOM     15  C   UNL     1       0.953   0.864   2.776  0.00  0.00    +0.005 C 
ATOM     16  C   UNL     1      -0.556   1.149   2.602  0.00  0.00    +0.010 C 
ATOM     17  C   UNL     1      -0.837   1.612   1.200  0.00  0.00    +0.007 C 
ATOM     18  C   UNL     1      -2.139   1.108   0.552  0.00  0.00    +0.131 C 
ATOM     19  C   UNL     1      -0.931   3.154   1.193  0.00  0.00    +0.015 C 
ATOM     20  C   UNL     1       3.452   3.581   2.328  0.00  0.00    +0.016 C 
ENDROOT
BRANCH  18  21
ATOM     21  C   UNL     1      -2.405  -0.336   0.881  0.00  0.00    +0.162 C 
ATOM     22  O   UNL     1      -1.489  -1.069   1.167  0.00  0.00    -0.295 OA
ATOM     23  C   UNL     1      -3.815  -0.868   0.854  0.00  0.00    +0.089 C 
ENDBRANCH  18  21
BRANCH  18  24
ATOM     24  O   UNL     1      -3.235   1.928   0.960  0.00  0.00    -0.380 OA
ATOM     25  H   UNL     1      -4.086   1.663   0.586  0.00  0.00    +0.211 HD
ENDBRANCH  18  24
BRANCH  10  26
ATOM     26  O   UNL     1       5.334  -0.332   3.744  0.00  0.00    -0.391 OA
ATOM     27  H   UNL     1       5.911  -0.942   3.265  0.00  0.00    +0.210 HD
ENDBRANCH  10  26
TORSDOF 3
