REMARK  Name = ZINC47136010
REMARK  5 active torsions:
REMARK  status: ('A' for Active; 'I' for Inactive)
REMARK    1  A    between atoms: C_1  and  C_2
REMARK    2  A    between atoms: C_9  and  N_22
REMARK    3  A    between atoms: C_10  and  C_11
REMARK    4  A    between atoms: N_13  and  C_14
REMARK    5  A    between atoms: N_22  and  C_23
REMARK                            x       y       z     vdW  Elec       q    Type
REMARK                         _______ _______ _______ _____ _____    ______ ____
ROOT
ATOM      1  C   UNL     1      -0.019   1.526   0.010  0.00  0.00    +0.008 C 
ATOM      2  C   UNL     1       0.002  -0.004   0.002  0.00  0.00    -0.009 C 
ATOM      3  C   UNL     1       0.724  -0.500  -1.254  0.00  0.00    +0.008 C 
ATOM      4  C   UNL     1       0.537  -2.012  -1.398  0.00  0.00    +0.037 C 
ATOM      5  C   UNL     1       0.936  -2.680  -0.090  0.00  0.00    -0.023 A 
ATOM      6  C   UNL     1       1.020  -1.977   1.059  0.00  0.00    -0.004 A 
ATOM      7  S   UNL     1       1.508  -3.164   2.276  0.00  0.00    -0.078 S 
ATOM      8  C   UNL     1       1.601  -4.539   1.317  0.00  0.00    +0.081 A 
ATOM      9  C   UNL     1       1.255  -4.091   0.050  0.00  0.00    +0.068 A 
ATOM     10  C   UNL     1       0.750  -0.515   1.242  0.00  0.00    +0.046 C 
ENDROOT
BRANCH   9  11
ATOM     11  C   UNL     1       1.215  -5.001  -1.096  0.00  0.00    +0.247 C 
ATOM     12  O   UNL     1       2.211  -5.170  -1.775  0.00  0.00    -0.270 OA
ATOM     13  N   UNL     1       0.074  -5.652  -1.400  0.00  0.00    -0.307 N 
ATOM     14  H   UNL     1      -0.720  -5.517  -0.860  0.00  0.00    +0.149 HD
BRANCH  13  15
ATOM     15  C   UNL     1       0.033  -6.562  -2.547  0.00  0.00    +0.096 C 
ATOM     16  C   UNL     1      -0.289  -5.772  -3.826  0.00  0.00    +0.046 C 
ATOM     17  C   UNL     1      -0.649  -6.747  -4.973  0.00  0.00    +0.168 C 
ATOM     18  S   UNL     1      -1.336  -8.195  -4.071  0.00  0.00    -0.029 S 
ATOM     19  O   UNL     1      -2.730  -8.283  -4.332  0.00  0.00    -0.174 OA
ATOM     20  O   UNL     1      -0.508  -9.325  -4.309  0.00  0.00    -0.174 OA
ATOM     21  C   UNL     1      -1.086  -7.621  -2.338  0.00  0.00    +0.188 C 
ENDBRANCH  13  15
ENDBRANCH   9  11
BRANCH   8  22
ATOM     22  N   UNL     1       1.942  -5.822   1.701  0.00  0.00    -0.300 N 
ATOM     23  H   UNL     1       1.959  -6.536   1.046  0.00  0.00    +0.150 HD
BRANCH  22  24
ATOM     24  C   UNL     1       2.280  -6.102   3.099  0.00  0.00    +0.297 C 
ATOM     25  C   UNL     1       3.429  -7.075   3.167  0.00  0.00    +0.025 A 
ATOM     26  C   UNL     1       4.729  -7.038   2.720  0.00  0.00    +0.010 A 
ATOM     27  C   UNL     1       5.567  -8.119   2.941  0.00  0.00    +0.000 A 
ATOM     28  C   UNL     1       5.100  -9.237   3.610  0.00  0.00    +0.001 A 
ATOM     29  C   UNL     1       3.798  -9.284   4.063  0.00  0.00    +0.015 A 
ATOM     30  C   UNL     1       2.949  -8.199   3.844  0.00  0.00    +0.067 A 
ATOM     31  C   UNL     1       1.539  -7.942   4.192  0.00  0.00    +0.342 C 
ATOM     32  O   UNL     1       0.817  -8.716   4.788  0.00  0.00    -0.245 OA
ATOM     33  O   UNL     1       1.172  -6.726   3.754  0.00  0.00    -0.435 OA
ENDBRANCH  22  24
ENDBRANCH   8  22
TORSDOF 4
