REMARK  Name = ZINC35095088
REMARK  9 active torsions:
REMARK  status: ('A' for Active; 'I' for Inactive)
REMARK    1  A    between atoms: C_1  and  C_2
REMARK    2  A    between atoms: C_5  and  N_8
REMARK    3  A    between atoms: N_11  and  C_12
REMARK    4  A    between atoms: N_11  and  C_29
REMARK    5  A    between atoms: C_12  and  C_13
REMARK    6  A    between atoms: C_13  and  C_14
REMARK    7  A    between atoms: C_14  and  N_15
REMARK    8  A    between atoms: N_18  and  C_19
REMARK    9  A    between atoms: C_23  and  C_25
REMARK                            x       y       z     vdW  Elec       q    Type
REMARK                         _______ _______ _______ _____ _____    ______ ____
ROOT
ATOM      1  N   UNL     1       0.341  -3.608   2.323  0.00  0.00    -0.269 N 
ATOM      2  C   UNL     1       0.159  -4.351   1.213  0.00  0.00    +0.311 C 
ATOM      3  O   UNL     1       0.140  -3.817   0.121  0.00  0.00    -0.252 OA
ATOM      4  N   UNL     1      -0.001  -5.685   1.315  0.00  0.00    -0.255 N 
ATOM      5  H   UNL     1       0.468  -4.041   3.182  0.00  0.00    +0.156 HD
ENDROOT
BRANCH   1  10
ATOM      6  C   UNL     1       0.371   2.055   1.973  0.00  0.00    +0.044 C 
ATOM      7  C   UNL     1       0.363   0.551   2.066  0.00  0.00    -0.050 A 
ATOM      8  C   UNL     1       0.068  -0.065   3.269  0.00  0.00    +0.005 A 
ATOM      9  C   UNL     1       0.060  -1.443   3.357  0.00  0.00    +0.023 A 
ATOM     10  C   UNL     1       0.348  -2.211   2.237  0.00  0.00    +0.035 A 
ATOM     11  C   UNL     1       0.644  -1.590   1.030  0.00  0.00    +0.023 A 
ATOM     12  C   UNL     1       0.646  -0.211   0.947  0.00  0.00    +0.005 A 
ENDBRANCH   1  10
BRANCH   4  13
ATOM     13  C   UNL     1      -0.110  -6.467   0.158  0.00  0.00    +0.038 A 
ATOM     14  C   UNL     1      -1.226  -6.346  -0.660  0.00  0.00    +0.026 A 
ATOM     15  C   UNL     1      -1.331  -7.118  -1.800  0.00  0.00    +0.040 A 
ATOM     16  C   UNL     1      -0.326  -8.012  -2.128  0.00  0.00    +0.124 A 
ATOM     17  C   UNL     1       0.787  -8.134  -1.313  0.00  0.00    +0.040 A 
ATOM     18  C   UNL     1       0.899  -7.360  -0.175  0.00  0.00    +0.026 A 
ATOM     19  F   UNL     1      -0.432  -8.767  -3.244  0.00  0.00    -0.205 F 
ENDBRANCH   4  13
BRANCH   4  20
ATOM     20  C   UNL     1      -0.061  -6.317   2.635  0.00  0.00    +0.117 C 
BRANCH  20  21
ATOM     21  C   UNL     1      -1.514  -6.364   3.112  0.00  0.00    +0.038 C 
BRANCH  21  22
ATOM     22  C   UNL     1      -1.577  -7.025   4.491  0.00  0.00    +0.107 C 
BRANCH  22  23
ATOM     23  N   UNL     1      -2.968  -7.069   4.948  0.00  0.00    -0.299 N 
ATOM     24  C   UNL     1      -3.267  -7.612   6.145  0.00  0.00    +0.304 C 
ATOM     25  O   UNL     1      -2.381  -8.064   6.846  0.00  0.00    -0.253 OA
ATOM     26  N   UNL     1      -4.546  -7.653   6.566  0.00  0.00    -0.269 N 
ATOM     27  H   UNL     1      -3.674  -6.709   4.389  0.00  0.00    +0.150 HD
ATOM     28  H   UNL     1      -5.264  -7.415   5.959  0.00  0.00    +0.156 HD
BRANCH  26  29
ATOM     29  C   UNL     1      -4.839  -8.039   7.878  0.00  0.00    +0.035 A 
ATOM     30  C   UNL     1      -6.023  -8.709   8.159  0.00  0.00    +0.023 A 
ATOM     31  C   UNL     1      -6.309  -9.090   9.456  0.00  0.00    +0.002 A 
ATOM     32  C   UNL     1      -5.418  -8.803  10.474  0.00  0.00    +0.012 A 
ATOM     33  C   UNL     1      -4.239  -8.136  10.198  0.00  0.00    +0.057 A 
ATOM     34  C   UNL     1      -3.945  -7.759   8.902  0.00  0.00    +0.035 A 
BRANCH  33  35
ATOM     35  C   UNL     1      -3.272  -7.826  11.311  0.00  0.00    +0.417 C 
ATOM     36  F   UNL     1      -3.783  -8.307  12.521  0.00  0.00    -0.166 F 
ATOM     37  F   UNL     1      -2.043  -8.440  11.046  0.00  0.00    -0.166 F 
ATOM     38  F   UNL     1      -3.092  -6.441  11.399  0.00  0.00    -0.166 F 
ENDBRANCH  33  35
ENDBRANCH  26  29
ENDBRANCH  22  23
ENDBRANCH  21  22
ENDBRANCH  20  21
ENDBRANCH   4  20
TORSDOF 8
