REMARK  Name = ZINC20701392
REMARK  7 active torsions:
REMARK  status: ('A' for Active; 'I' for Inactive)
REMARK    1  A    between atoms: C_1  and  C_2
REMARK    2  A    between atoms: C_4  and  C_37
REMARK    3  A    between atoms: C_6  and  N_8
REMARK    4  A    between atoms: N_8  and  S_9
REMARK    5  A    between atoms: S_9  and  C_12
REMARK    6  A    between atoms: C_25  and  C_28
REMARK    7  A    between atoms: C_33  and  O_34
REMARK                            x       y       z     vdW  Elec       q    Type
REMARK                         _______ _______ _______ _____ _____    ______ ____
ROOT
ATOM      1  C   UNL     1       6.795   4.306  -2.311  0.00  0.00    +0.109 A 
ATOM      2  C   UNL     1       5.972   3.454  -1.598  0.00  0.00    +0.030 A 
ATOM      3  C   UNL     1       4.687   3.205  -2.034  0.00  0.00    +0.025 A 
ATOM      4  C   UNL     1       4.210   3.808  -3.191  0.00  0.00    +0.031 A 
ATOM      5  C   UNL     1       5.044   4.680  -3.900  0.00  0.00    -0.018 A 
ATOM      6  C   UNL     1       6.328   4.917  -3.460  0.00  0.00    +0.034 A 
ATOM      7  C   UNL     1       4.483   5.334  -5.103  0.00  0.00    +0.049 C 
ATOM      8  C   UNL     1       5.345   5.774  -6.230  0.00  0.00    -0.023 C 
ATOM      9  C   UNL     1       4.662   5.697  -7.353  0.00  0.00    -0.030 C 
ATOM     10  C   UNL     1       3.272   5.122  -7.076  0.00  0.00    +0.033 C 
ATOM     11  C   UNL     1       3.519   4.322  -5.791  0.00  0.00    +0.029 C 
ATOM     12  C   UNL     1       2.349   4.164  -4.836  0.00  0.00    +0.109 C 
ATOM     13  N   UNL     1       2.908   3.528  -3.623  0.00  0.00    -0.336 N 
ATOM     14  H   UNL     1       2.298   2.820  -3.043  0.00  0.00    +0.147 HD
ENDROOT
BRANCH  12  15
ATOM     15  C   UNL     1       1.293   3.281  -5.448  0.00  0.00    +0.017 A 
ATOM     16  C   UNL     1       1.257   1.933  -5.143  0.00  0.00    +0.029 A 
ATOM     17  C   UNL     1       0.287   1.122  -5.704  0.00  0.00    +0.043 A 
ATOM     18  C   UNL     1      -0.645   1.655  -6.577  0.00  0.00    +0.043 A 
ATOM     19  C   UNL     1      -0.615   3.003  -6.880  0.00  0.00    +0.084 A 
ATOM     20  C   UNL     1       0.357   3.819  -6.318  0.00  0.00    +0.140 A 
ATOM     21 CL   UNL     1      -1.790   3.674  -7.969  0.00  0.00    -0.080 Cl
ATOM     22 CL   UNL     1       0.244  -0.570  -5.318  0.00  0.00    -0.083 Cl
BRANCH  20  23
ATOM     23  O   UNL     1       0.391   5.145  -6.619  0.00  0.00    -0.505 OA
ATOM     24  H   UNL     1      -0.352   5.571  -7.309  0.00  0.00    +0.292 HD
ENDBRANCH  20  23
ENDBRANCH  12  15
BRANCH   1  25
ATOM     25  S   UNL     1       8.439   4.614  -1.755  0.00  0.00    +0.072 S 
ATOM     26  O   UNL     1       8.776   5.925  -2.190  0.00  0.00    -0.150 OA
ATOM     27  O   UNL     1       8.484   4.231  -0.387  0.00  0.00    -0.150 OA
BRANCH  25  28
ATOM     28  N   UNL     1       9.435   3.574  -2.571  0.00  0.00    -0.216 N 
ATOM     29  H   UNL     1      10.209   3.969  -3.245  0.00  0.00    +0.174 HD
BRANCH  28  35
ATOM     30  C   UNL     1      10.095  -0.445   0.179  0.00  0.00    +0.044 C 
ATOM     31  C   UNL     1       9.603   0.219  -1.081  0.00  0.00    -0.048 A 
ATOM     32  C   UNL     1       9.009  -0.538  -2.074  0.00  0.00    +0.006 A 
ATOM     33  C   UNL     1       8.557   0.067  -3.232  0.00  0.00    -0.048 A 
ATOM     34  C   UNL     1       8.696   1.431  -3.400  0.00  0.00    +0.028 A 
ATOM     35  C   UNL     1       9.292   2.195  -2.405  0.00  0.00    +0.049 A 
ATOM     36  C   UNL     1       9.750   1.583  -1.245  0.00  0.00    +0.028 A 
ATOM     37  C   UNL     1       7.911  -0.762  -4.312  0.00  0.00    +0.044 C 
ENDBRANCH  28  35
ENDBRANCH  25  28
ENDBRANCH   1  25
TORSDOF 5
