REMARK  Name = ZINC43531436
REMARK  7 active torsions:
REMARK  status: ('A' for Active; 'I' for Inactive)
REMARK    1  A    between atoms: C_1  and  C_2
REMARK    2  A    between atoms: C_3  and  C_19
REMARK    3  A    between atoms: N_4  and  C_10
REMARK    4  A    between atoms: C_5  and  N_9
REMARK    5  A    between atoms: C_6  and  C_7
REMARK    6  A    between atoms: C_10  and  C_12
REMARK    7  A    between atoms: C_10  and  C_13
REMARK                            x       y       z     vdW  Elec       q    Type
REMARK                         _______ _______ _______ _____ _____    ______ ____
ROOT
ATOM      1  C   UNL     1      -0.405   1.994   0.475  0.00  0.00    +0.047 C 
ATOM      2  C   UNL     1      -0.534   0.501   0.636  0.00  0.00    -0.011 A 
ATOM      3  C   UNL     1      -0.810  -0.388  -0.331  0.00  0.00    +0.022 A 
ATOM      4  N   UNL     1      -0.843  -1.648   0.208  0.00  0.00    -0.325 N 
ATOM      5  C   UNL     1      -0.587  -1.594   1.540  0.00  0.00    +0.115 A 
ATOM      6  C   UNL     1      -0.376  -0.263   1.880  0.00  0.00    +0.094 A 
ATOM      7  C   UNL     1      -1.048  -0.053  -1.781  0.00  0.00    +0.064 C 
ENDROOT
BRANCH   5   8
ATOM      8  N   UNL     1      -0.538  -2.672   2.405  0.00  0.00    -0.343 N 
ATOM      9  H   UNL     1      -0.175  -3.519   2.103  0.00  0.00    +0.144 HD
ATOM     10  H   UNL     1      -0.868  -2.581   3.312  0.00  0.00    +0.144 HD
ENDBRANCH   5   8
BRANCH   6  11
ATOM     11  C   UNL     1      -0.070   0.257   3.178  0.00  0.00    +0.103 C 
ATOM     12  N   UNL     1       0.173   0.670   4.209  0.00  0.00    -0.191 NA
ENDBRANCH   6  11
BRANCH   4  13
ATOM     13  C   UNL     1      -1.115  -2.875  -0.545  0.00  0.00    +0.116 C 
ATOM     14  C   UNL     1      -1.121  -4.069   0.412  0.00  0.00    +0.036 C 
BRANCH  13  15
ATOM     15  C   UNL     1      -0.044  -3.073  -1.587  0.00  0.00    -0.022 A 
ATOM     16  C   UNL     1       1.298  -3.036  -1.242  0.00  0.00    +0.025 A 
ATOM     17  C   UNL     1       2.252  -3.221  -2.225  0.00  0.00    +0.111 A 
ATOM     18  N   UNL     1       1.897  -3.430  -3.478  0.00  0.00    -0.263 NA
ATOM     19  C   UNL     1       0.631  -3.472  -3.842  0.00  0.00    +0.111 A 
ATOM     20  C   UNL     1      -0.378  -3.302  -2.913  0.00  0.00    +0.025 A 
ENDBRANCH  13  15
ENDBRANCH   4  13
TORSDOF 4
