REMARK  Name = ZINC02188836
REMARK  9 active torsions:
REMARK  status: ('A' for Active; 'I' for Inactive)
REMARK    1  A    between atoms: C_1  and  C_2
REMARK    2  A    between atoms: C_2  and  C_38
REMARK    3  A    between atoms: C_6  and  C_28
REMARK    4  A    between atoms: C_8  and  C_26
REMARK    5  A    between atoms: C_9  and  N_25
REMARK    6  A    between atoms: N_10  and  C_11
REMARK    7  A    between atoms: C_12  and  C_21
REMARK    8  A    between atoms: C_21  and  O_23
REMARK    9  A    between atoms: O_23  and  C_24
REMARK                            x       y       z     vdW  Elec       q    Type
REMARK                         _______ _______ _______ _____ _____    ______ ____
ROOT
ATOM      1  C   UNL     1      -5.383   0.406   3.227  0.00  0.00    +0.011 C 
ATOM      2  C   UNL     1      -4.629   1.659   3.678  0.00  0.00    -0.023 C 
ATOM      3  C   UNL     1      -4.774   2.756   2.620  0.00  0.00    +0.058 C 
ATOM      4  C   UNL     1      -4.172   2.287   1.319  0.00  0.00    +0.025 C 
ATOM      5  C   UNL     1      -3.126   1.434   1.304  0.00  0.00    +0.025 C 
ATOM      6  C   UNL     1      -2.511   0.983   0.003  0.00  0.00    +0.097 C 
ATOM      7  C   UNL     1      -3.442   1.225  -1.149  0.00  0.00    +0.077 C 
ATOM      8  C   UNL     1      -4.485   2.086  -1.039  0.00  0.00    +0.107 C 
ATOM      9  N   UNL     1      -4.711   2.751   0.146  0.00  0.00    -0.254 N 
ATOM     10  C   UNL     1      -2.578   0.940   2.501  0.00  0.00    +0.162 C 
ATOM     11  O   UNL     1      -1.631   0.179   2.454  0.00  0.00    -0.292 OA
ATOM     12  C   UNL     1      -3.140   1.334   3.839  0.00  0.00    +0.086 C 
ATOM     13  C   UNL     1      -5.196   2.148   5.012  0.00  0.00    +0.011 C 
ENDROOT
BRANCH   9  14
ATOM     14  C   UNL     1      -5.489   3.900   0.154  0.00  0.00    +0.092 A 
ATOM     15  C   UNL     1      -6.868   4.006   0.255  0.00  0.00    +0.091 A 
ATOM     16  C   UNL     1      -7.446   5.343   0.247  0.00  0.00    -0.021 A 
ATOM     17  C   UNL     1      -6.554   6.349   0.121  0.00  0.00    -0.004 A 
ATOM     18  S   UNL     1      -4.975   5.549   0.032  0.00  0.00    -0.077 S 
ATOM     19  C   UNL     1      -6.834   7.817   0.055  0.00  0.00    +0.043 C 
ATOM     20  C   UNL     1      -7.784   8.204   1.197  0.00  0.00    +0.005 C 
ATOM     21  C   UNL     1      -9.219   8.057   0.701  0.00  0.00    +0.001 C 
ATOM     22  C   UNL     1      -9.314   6.906  -0.299  0.00  0.00    +0.005 C 
ATOM     23  C   UNL     1      -8.945   5.587   0.370  0.00  0.00    +0.037 C 
BRANCH  15  24
ATOM     24  C   UNL     1      -7.713   2.815   0.369  0.00  0.00    +0.342 C 
ATOM     25  O   UNL     1      -8.040   2.405   1.466  0.00  0.00    -0.245 OA
BRANCH  24  26
ATOM     26  O   UNL     1      -8.130   2.174  -0.742  0.00  0.00    -0.464 OA
ATOM     27  C   UNL     1      -8.965   1.002  -0.553  0.00  0.00    +0.280 C 
ENDBRANCH  24  26
ENDBRANCH  15  24
ENDBRANCH   9  14
BRANCH   6  28
ATOM     28  C   UNL     1      -1.231   1.743  -0.228  0.00  0.00    -0.035 A 
ATOM     29  C   UNL     1      -0.029   1.064  -0.309  0.00  0.00    +0.007 A 
ATOM     30  C   UNL     1       1.145   1.760  -0.526  0.00  0.00    +0.038 A 
ATOM     31  C   UNL     1       1.119   3.138  -0.658  0.00  0.00    +0.123 A 
ATOM     32  C   UNL     1      -0.085   3.817  -0.571  0.00  0.00    +0.038 A 
ATOM     33  C   UNL     1      -1.258   3.120  -0.354  0.00  0.00    +0.007 A 
ATOM     34  F   UNL     1       2.266   3.818  -0.871  0.00  0.00    -0.205 F 
ENDBRANCH   6  28
BRANCH   8  35
ATOM     35  N   UNL     1      -5.318   2.295  -2.112  0.00  0.00    -0.345 N 
ATOM     36  H   UNL     1      -5.116   1.888  -2.970  0.00  0.00    +0.144 HD
ATOM     37  H   UNL     1      -6.107   2.850  -2.013  0.00  0.00    +0.144 HD
ENDBRANCH   8  35
BRANCH   7  38
ATOM     38  C   UNL     1      -3.225   0.535  -2.385  0.00  0.00    +0.099 C 
ATOM     39  N   UNL     1      -3.053  -0.011  -3.366  0.00  0.00    -0.191 NA
ENDBRANCH   7  38
TORSDOF 6
