REMARK  Name = ZINC32961641
REMARK  10 active torsions:
REMARK  status: ('A' for Active; 'I' for Inactive)
REMARK    1  A    between atoms: C_1  and  C_2
REMARK    2  A    between atoms: C_5  and  C_35
REMARK    3  A    between atoms: C_6  and  N_8
REMARK    4  A    between atoms: N_11  and  C_14
REMARK    5  A    between atoms: C_17  and  N_23
REMARK    6  A    between atoms: C_19  and  C_20
REMARK    7  A    between atoms: N_23  and  S_24
REMARK    8  A    between atoms: S_24  and  C_27
REMARK    9  A    between atoms: C_29  and  C_34
REMARK   10  A    between atoms: C_31  and  C_33
REMARK                            x       y       z     vdW  Elec       q    Type
REMARK                         _______ _______ _______ _____ _____    ______ ____
ROOT
ATOM      1  C   UNL     1       0.077  -3.715   6.314  0.00  0.00    +0.044 A 
ATOM      2  C   UNL     1       0.063  -3.032   7.523  0.00  0.00    +0.026 A 
ATOM      3  C   UNL     1       0.078  -3.729   8.713  0.00  0.00    +0.026 A 
ATOM      4  C   UNL     1       0.108  -5.121   8.713  0.00  0.00    +0.049 A 
ATOM      5  C   UNL     1       0.122  -5.817   7.519  0.00  0.00    +0.041 A 
ATOM      6  C   UNL     1       0.101  -5.119   6.306  0.00  0.00    +0.086 A 
ENDROOT
BRANCH   1  10
ATOM      7  N   UNL     1       0.051  -2.796   2.390  0.00  0.00    -0.327 N 
ATOM      8  C   UNL     1       1.324  -3.153   3.032  0.00  0.00    +0.124 C 
ATOM      9  C   UNL     1       1.319  -2.611   4.467  0.00  0.00    +0.124 C 
ATOM     10  N   UNL     1       0.062  -3.011   5.115  0.00  0.00    -0.326 N 
ATOM     11  C   UNL     1      -1.211  -2.655   4.473  0.00  0.00    +0.124 C 
ATOM     12  C   UNL     1      -1.206  -3.192   3.041  0.00  0.00    +0.124 C 
BRANCH   7  18
ATOM     13  C   UNL     1      -0.018   1.503   0.010  0.00  0.00    +0.044 C 
ATOM     14  C   UNL     1       0.002  -0.004   0.002  0.00  0.00    -0.049 A 
ATOM     15  C   UNL     1       0.006  -0.688  -1.200  0.00  0.00    +0.004 A 
ATOM     16  C   UNL     1       0.024  -2.071  -1.212  0.00  0.00    +0.005 A 
ATOM     17  C   UNL     1       0.039  -2.773  -0.023  0.00  0.00    -0.029 A 
ATOM     18  C   UNL     1       0.036  -2.089   1.186  0.00  0.00    +0.033 A 
ATOM     19  C   UNL     1       0.023  -0.700   1.194  0.00  0.00    +0.026 A 
ATOM     20  C   UNL     1       0.059  -4.280  -0.037  0.00  0.00    +0.045 C 
ENDBRANCH   7  18
ENDBRANCH   1  10
BRANCH   6  21
ATOM     21  C   UNL     1       0.110  -5.852   5.031  0.00  0.00    +0.388 C 
ATOM     22  O   UNL     1       0.131  -7.075   5.028  0.00  0.00    -0.241 OA
ATOM     23  O   UNL     1       0.096  -5.238   3.973  0.00  0.00    -0.241 OA
ENDBRANCH   6  21
BRANCH   4  24
ATOM     24  N   UNL     1       0.124  -5.818   9.927  0.00  0.00    -0.216 N 
ATOM     25  H   UNL     1       0.734  -6.562  10.051  0.00  0.00    +0.174 HD
BRANCH  24  26
ATOM     26  S   UNL     1      -0.898  -5.373  11.151  0.00  0.00    +0.072 S 
ATOM     27  O   UNL     1      -0.665  -6.275  12.224  0.00  0.00    -0.150 OA
ATOM     28  O   UNL     1      -0.768  -3.966  11.297  0.00  0.00    -0.150 OA
BRANCH  26  29
ATOM     29  C   UNL     1      -2.542  -5.672  10.592  0.00  0.00    +0.109 A 
ATOM     30  C   UNL     1      -3.235  -4.681   9.922  0.00  0.00    +0.032 A 
ATOM     31  C   UNL     1      -4.525  -4.915   9.482  0.00  0.00    -0.048 A 
ATOM     32  C   UNL     1      -5.121  -6.140   9.713  0.00  0.00    +0.006 A 
ATOM     33  C   UNL     1      -4.428  -7.132  10.382  0.00  0.00    -0.048 A 
ATOM     34  C   UNL     1      -3.137  -6.899  10.818  0.00  0.00    +0.032 A 
ATOM     35  C   UNL     1      -5.079  -8.467  10.634  0.00  0.00    +0.044 C 
ATOM     36  C   UNL     1      -5.280  -3.834   8.753  0.00  0.00    +0.044 C 
ENDBRANCH  26  29
ENDBRANCH  24  26
ENDBRANCH   4  24
TORSDOF 6
