REMARK  Name = ZINC21706985
REMARK  13 active torsions:
REMARK  status: ('A' for Active; 'I' for Inactive)
REMARK    1  A    between atoms: C_1  and  C_2
REMARK    2  A    between atoms: C_2  and  C_3
REMARK    3  A    between atoms: C_2  and  C_4
REMARK    4  A    between atoms: C_4  and  N_5
REMARK    5  A    between atoms: C_6  and  C_8
REMARK    6  A    between atoms: C_15  and  C_17
REMARK    7  A    between atoms: C_20  and  N_23
REMARK    8  A    between atoms: N_23  and  S_24
REMARK    9  A    between atoms: S_24  and  C_27
REMARK   10  A    between atoms: C_30  and  C_33
REMARK   11  A    between atoms: C_33  and  C_34
REMARK   12  A    between atoms: C_33  and  C_35
REMARK   13  A    between atoms: C_33  and  C_36
REMARK                            x       y       z     vdW  Elec       q    Type
REMARK                         _______ _______ _______ _____ _____    ______ ____
ROOT
ATOM      1  C   UNL     1      -0.355  -0.097  -0.243  0.00  0.00    +0.037 A 
ATOM      2  C   UNL     1       0.904  -0.692  -0.359  0.00  0.00    +0.015 A 
ATOM      3  C   UNL     1       1.025  -2.061  -0.289  0.00  0.00    +0.025 A 
ATOM      4  C   UNL     1      -0.107  -2.854  -0.116  0.00  0.00    +0.048 A 
ATOM      5  C   UNL     1      -1.363  -2.264  -0.006  0.00  0.00    +0.025 A 
ATOM      6  C   UNL     1      -1.490  -0.895  -0.068  0.00  0.00    +0.015 A 
ENDROOT
BRANCH   1  13
ATOM      7  C   UNL     1      -1.564   4.094   1.661  0.00  0.00    +0.092 C 
ATOM      8  C   UNL     1      -2.543   3.399   2.611  0.00  0.00    +0.016 C 
ATOM      9  C   UNL     1      -2.163   1.923   2.747  0.00  0.00    +0.020 C 
ATOM     10  C   UNL     1      -2.262   1.246   1.371  0.00  0.00    +0.108 C 
ATOM     11  N   UNL     1      -1.431   1.997   0.420  0.00  0.00    -0.297 N 
ATOM     12  C   UNL     1      -1.652   3.443   0.278  0.00  0.00    +0.120 C 
ATOM     13  C   UNL     1      -0.488   1.371  -0.311  0.00  0.00    +0.247 C 
ATOM     14  O   UNL     1       0.257   2.016  -1.023  0.00  0.00    -0.270 OA
BRANCH   7  16
ATOM     15  N   UNL     1      -1.190   6.369   0.764  0.00  0.00    -0.315 N 
ATOM     16  C   UNL     1      -1.919   5.555   1.553  0.00  0.00    +0.218 C 
ATOM     17  O   UNL     1      -2.860   5.998   2.177  0.00  0.00    -0.275 OA
ATOM     18  H   UNL     1      -0.336   5.966   0.199  0.00  0.00    +0.149 HD
BRANCH  15  19
ATOM     19  C   UNL     1      -1.535   7.788   0.659  0.00  0.00    +0.107 C 
BRANCH  19  21
ATOM     20  C   UNL     1      -0.735   7.917  -1.704  0.00  0.00    +0.009 C 
ATOM     21  C   UNL     1      -0.558   8.481  -0.293  0.00  0.00    -0.000 C 
ATOM     22  C   UNL     1      -0.840   9.985  -0.307  0.00  0.00    +0.009 C 
ENDBRANCH  19  21
ENDBRANCH  15  19
ENDBRANCH   7  16
ENDBRANCH   1  13
BRANCH   4  23
ATOM     23  N   UNL     1       0.018  -4.237  -0.052  0.00  0.00    -0.216 N 
ATOM     24  H   UNL     1      -0.520  -4.803   0.723  0.00  0.00    +0.174 HD
BRANCH  23  25
ATOM     25  S   UNL     1       0.977  -5.033  -1.143  0.00  0.00    +0.072 S 
ATOM     26  O   UNL     1       2.238  -4.378  -1.129  0.00  0.00    -0.150 OA
ATOM     27  O   UNL     1       0.836  -6.421  -0.870  0.00  0.00    -0.150 OA
BRANCH  25  28
ATOM     28  C   UNL     1       0.285  -4.761  -2.740  0.00  0.00    +0.109 A 
ATOM     29  C   UNL     1      -0.732  -5.575  -3.201  0.00  0.00    +0.029 A 
ATOM     30  C   UNL     1      -1.278  -5.359  -4.453  0.00  0.00    +0.006 A 
ATOM     31  C   UNL     1      -0.800  -4.333  -5.247  0.00  0.00    -0.042 A 
ATOM     32  C   UNL     1       0.221  -3.522  -4.788  0.00  0.00    +0.006 A 
ATOM     33  C   UNL     1       0.763  -3.735  -3.535  0.00  0.00    +0.029 A 
BRANCH  31  34
ATOM     34  C   UNL     1      -1.391  -4.100  -6.613  0.00  0.00    -0.013 C 
ATOM     35  C   UNL     1      -0.298  -4.245  -7.674  0.00  0.00    +0.015 C 
ATOM     36  C   UNL     1      -2.494  -5.128  -6.874  0.00  0.00    +0.015 C 
ATOM     37  C   UNL     1      -1.982  -2.691  -6.679  0.00  0.00    +0.015 C 
ENDBRANCH  31  34
ENDBRANCH  25  28
ENDBRANCH  23  25
ENDBRANCH   4  23
TORSDOF 8
