REMARK  Name = ZINC52886385
REMARK  1 active torsions:
REMARK  status: ('A' for Active; 'I' for Inactive)
REMARK    1  A    between atoms: C_6  and  C_7
REMARK                            x       y       z     vdW  Elec       q    Type
REMARK                         _______ _______ _______ _____ _____    ______ ____
ROOT
ATOM      1  C   UNL     1      -0.017   1.389   0.010  0.00  0.00    +0.012 A 
ATOM      2  C   UNL     1       1.169   2.098   0.002  0.00  0.00    +0.050 A 
ATOM      3  C   UNL     1       2.377   1.421  -0.013  0.00  0.00    +0.162 A 
ATOM      4  C   UNL     1       2.402   0.032  -0.020  0.00  0.00    +0.162 A 
ATOM      5  C   UNL     1       1.220  -0.684  -0.013  0.00  0.00    +0.058 A 
ATOM      6  C   UNL     1       0.002  -0.004   0.002  0.00  0.00    -0.013 A 
ATOM      7  O   UNL     1       3.601  -0.621  -0.034  0.00  0.00    -0.488 OA
ATOM      8  C   UNL     1       4.367  -0.496  -1.234  0.00  0.00    +0.232 C 
ATOM      9  C   UNL     1       5.191   0.782  -1.217  0.00  0.00    +0.082 C 
ATOM     10  C   UNL     1       4.322   2.030  -1.220  0.00  0.00    +0.232 C 
ATOM     11  O   UNL     1       3.553   2.115  -0.019  0.00  0.00    -0.488 OA
ENDROOT
BRANCH   6  12
ATOM     12  C   UNL     1      -1.272  -0.764   0.011  0.00  0.00    +0.000 A 
ATOM     13  C   UNL     1      -2.499  -0.091   0.021  0.00  0.00    +0.013 A 
ATOM     14  C   UNL     1      -3.659  -0.840   0.029  0.00  0.00    +0.044 A 
ATOM     15  C   UNL     1      -3.571  -2.229   0.027  0.00  0.00    +0.116 A 
ATOM     16  N   UNL     1      -2.393  -2.835   0.017  0.00  0.00    -0.240 NA
ATOM     17  C   UNL     1      -1.264  -2.155   0.003  0.00  0.00    +0.121 A 
ATOM     18  N   UNL     1      -4.734  -2.990   0.035  0.00  0.00    -0.343 N 
ATOM     19  H   UNL     1      -5.599  -2.553   0.043  0.00  0.00    +0.144 HD
ATOM     20  H   UNL     1      -4.679  -3.959   0.034  0.00  0.00    +0.144 HD
ENDBRANCH   6  12
TORSDOF 1
