REMARK  Name = ZINC13349160
REMARK  8 active torsions:
REMARK  status: ('A' for Active; 'I' for Inactive)
REMARK    1  A    between atoms: C_1  and  C_2
REMARK    2  A    between atoms: C_2  and  C_3
REMARK    3  A    between atoms: C_6  and  N_9
REMARK    4  A    between atoms: N_12  and  C_13
REMARK    5  A    between atoms: C_15  and  C_33
REMARK    6  A    between atoms: N_22  and  S_23
REMARK    7  A    between atoms: S_23  and  C_26
REMARK    8  A    between atoms: C_29  and  C_32
REMARK                            x       y       z     vdW  Elec       q    Type
REMARK                         _______ _______ _______ _____ _____    ______ ____
ROOT
ATOM      1  C   UNL     1       2.348  -3.349   4.797  0.00  0.00    +0.036 A 
ATOM      2  C   UNL     1       1.921  -4.280   3.854  0.00  0.00    +0.028 A 
ATOM      3  C   UNL     1       1.344  -3.889   2.675  0.00  0.00    -0.022 A 
ATOM      4  C   UNL     1       1.161  -2.519   2.376  0.00  0.00    +0.083 A 
ATOM      5  C   UNL     1       1.605  -1.601   3.354  0.00  0.00    +0.043 A 
ATOM      6  C   UNL     1       2.184  -1.995   4.534  0.00  0.00    +0.040 A 
ATOM      7  S   UNL     1       1.212  -0.036   2.611  0.00  0.00    -0.051 S 
ATOM      8  C   UNL     1       0.498  -0.676   1.103  0.00  0.00    +0.179 A 
ATOM      9  N   UNL     1       0.613  -1.974   1.267  0.00  0.00    -0.223 NA
ATOM     10  N   UNL     1      -0.035   0.017   0.034  0.00  0.00    -0.194 N 
ATOM     11  C   UNL     1       0.897  -4.933   1.683  0.00  0.00    +0.046 C 
ATOM     12  H   UNL     1      -0.388  -0.465  -0.730  0.00  0.00    +0.176 HD
ENDROOT
BRANCH   1  16
ATOM     13  N   UNL     1       4.555  -3.503   7.657  0.00  0.00    -0.269 N 
ATOM     14  C   UNL     1       3.926  -3.048   6.555  0.00  0.00    +0.308 C 
ATOM     15  O   UNL     1       4.252  -1.985   6.064  0.00  0.00    -0.252 OA
ATOM     16  N   UNL     1       2.936  -3.772   5.997  0.00  0.00    -0.269 N 
ATOM     17  H   UNL     1       4.342  -4.381   8.009  0.00  0.00    +0.156 HD
ATOM     18  H   UNL     1       2.630  -4.587   6.426  0.00  0.00    +0.156 HD
BRANCH  13  22
ATOM     19  C   UNL     1       7.415  -1.136   9.549  0.00  0.00    -0.048 A 
ATOM     20  C   UNL     1       6.590  -1.954  10.299  0.00  0.00    +0.005 A 
ATOM     21  C   UNL     1       5.641  -2.740   9.675  0.00  0.00    +0.023 A 
ATOM     22  C   UNL     1       5.516  -2.708   8.292  0.00  0.00    +0.035 A 
ATOM     23  C   UNL     1       6.349  -1.890   7.541  0.00  0.00    +0.023 A 
ATOM     24  C   UNL     1       7.292  -1.102   8.171  0.00  0.00    +0.005 A 
BRANCH  19  26
ATOM     25  C   UNL     1       9.759  -1.059  10.353  0.00  0.00    +0.009 C 
ATOM     26  C   UNL     1       8.448  -0.279  10.233  0.00  0.00    +0.032 C 
ENDBRANCH  19  26
ENDBRANCH  13  22
ENDBRANCH   1  16
BRANCH  10  27
ATOM     27  S   UNL     1      -0.071   1.673   0.057  0.00  0.00    +0.074 S 
ATOM     28  O   UNL     1      -0.644   2.083  -1.177  0.00  0.00    -0.150 OA
ATOM     29  O   UNL     1      -0.616   2.050   1.313  0.00  0.00    -0.150 OA
BRANCH  27  30
ATOM     30  C   UNL     1       1.601   2.230   0.045  0.00  0.00    +0.109 A 
ATOM     31  C   UNL     1       2.268   2.438   1.238  0.00  0.00    +0.029 A 
ATOM     32  C   UNL     1       3.581   2.872   1.229  0.00  0.00    +0.005 A 
ATOM     33  C   UNL     1       4.223   3.106   0.027  0.00  0.00    -0.050 A 
ATOM     34  C   UNL     1       3.554   2.902  -1.165  0.00  0.00    +0.005 A 
ATOM     35  C   UNL     1       2.243   2.465  -1.156  0.00  0.00    +0.029 A 
ATOM     36  C   UNL     1       5.652   3.583   0.018  0.00  0.00    +0.044 C 
ENDBRANCH  27  30
ENDBRANCH  10  27
TORSDOF 5
