REMARK  Name = ZINC04722332
REMARK  3 active torsions:
REMARK  status: ('A' for Active; 'I' for Inactive)
REMARK    1  A    between atoms: C_3  and  C_20
REMARK    2  A    between atoms: C_5  and  N_7
REMARK    3  A    between atoms: C_14  and  C_17
REMARK                            x       y       z     vdW  Elec       q    Type
REMARK                         _______ _______ _______ _____ _____    ______ ____
ROOT
ATOM      1  N   UNL     1      -5.199  -2.588  -1.357  0.00  0.00    -0.269 N 
ATOM      2  C   UNL     1      -3.987  -2.001  -1.411  0.00  0.00    +0.306 C 
ATOM      3  O   UNL     1      -2.991  -2.676  -1.583  0.00  0.00    -0.252 OA
ATOM      4  N   UNL     1      -3.879  -0.664  -1.274  0.00  0.00    -0.285 N 
ATOM      5  C   UNL     1      -5.079   0.178  -1.176  0.00  0.00    +0.109 C 
ATOM      6  C   UNL     1      -4.975   1.040   0.086  0.00  0.00    +0.020 C 
ATOM      7  C   UNL     1      -3.659   1.821   0.058  0.00  0.00    +0.016 C 
ATOM      8  C   UNL     1      -2.483   0.843   0.043  0.00  0.00    +0.092 C 
ATOM      9  C   UNL     1      -2.559  -0.021  -1.220  0.00  0.00    +0.122 C 
ATOM     10  H   UNL     1      -5.999  -2.043  -1.299  0.00  0.00    +0.156 HD
ENDROOT
BRANCH   1  15
ATOM     11  C   UNL     1      -4.437  -6.142  -0.803  0.00  0.00    +0.002 A 
ATOM     12  C   UNL     1      -5.506  -6.742  -1.442  0.00  0.00    +0.012 A 
ATOM     13  C   UNL     1      -6.474  -5.966  -2.053  0.00  0.00    +0.057 A 
ATOM     14  C   UNL     1      -6.378  -4.588  -2.022  0.00  0.00    +0.035 A 
ATOM     15  C   UNL     1      -5.302  -3.983  -1.386  0.00  0.00    +0.035 A 
ATOM     16  C   UNL     1      -4.332  -4.766  -0.773  0.00  0.00    +0.023 A 
BRANCH  13  17
ATOM     17  C   UNL     1      -7.639  -6.624  -2.748  0.00  0.00    +0.417 C 
ATOM     18  F   UNL     1      -7.521  -8.014  -2.640  0.00  0.00    -0.166 F 
ATOM     19  F   UNL     1      -8.833  -6.209  -2.149  0.00  0.00    -0.166 F 
ATOM     20  F   UNL     1      -7.643  -6.259  -4.098  0.00  0.00    -0.166 F 
ENDBRANCH  13  17
ENDBRANCH   1  15
BRANCH   8  21
ATOM     21  C   UNL     1      -1.188   1.613   0.048  0.00  0.00    +0.215 C 
ATOM     22  O   UNL     1      -1.204   2.826   0.062  0.00  0.00    -0.276 OA
ATOM     23  N   UNL     1      -0.012   0.955   0.036  0.00  0.00    -0.329 N 
ATOM     24  H   UNL     1       0.001  -0.015   0.025  0.00  0.00    +0.145 HD
ATOM     25  H   UNL     1       0.822   1.451   0.035  0.00  0.00    +0.145 HD
ENDBRANCH   8  21
TORSDOF 3
