REMARK  Name = ZINC02791081
REMARK  6 active torsions:
REMARK  status: ('A' for Active; 'I' for Inactive)
REMARK    1  A    between atoms: C_1  and  C_2
REMARK    2  A    between atoms: C_5  and  C_8
REMARK    3  A    between atoms: N_10  and  C_11
REMARK    4  A    between atoms: C_13  and  C_26
REMARK    5  A    between atoms: C_15  and  C_23
REMARK    6  A    between atoms: C_19  and  C_20
REMARK                            x       y       z     vdW  Elec       q    Type
REMARK                         _______ _______ _______ _____ _____    ______ ____
ROOT
ATOM      1  C   UNL     1       2.025   4.135   0.280  0.00  0.00    +0.063 A 
ATOM      2  C   UNL     1       1.230   3.675  -0.848  0.00  0.00    +0.033 A 
ATOM      3  C   UNL     1       1.491   2.601  -1.735  0.00  0.00    -0.031 A 
ATOM      4  C   UNL     1       0.595   2.337  -2.744  0.00  0.00    +0.033 A 
ATOM      5  C   UNL     1      -0.544   3.115  -2.892  0.00  0.00    +0.108 A 
ATOM      6  N   UNL     1      -0.786   4.110  -2.061  0.00  0.00    -0.239 NA
ATOM      7  C   UNL     1       0.041   4.402  -1.081  0.00  0.00    +0.111 A 
ATOM      8  S   UNL     1       0.041   5.640   0.193  0.00  0.00    -0.062 S 
ATOM      9  C   UNL     1       1.566   5.210   1.008  0.00  0.00    +0.097 A 
ENDROOT
BRANCH   9  10
ATOM     10  C   UNL     1       2.183   5.846   2.171  0.00  0.00    +0.250 C 
ATOM     11  O   UNL     1       3.299   5.513   2.527  0.00  0.00    -0.270 OA
ATOM     12  N   UNL     1       1.517   6.803   2.848  0.00  0.00    -0.325 N 
ATOM     13  H   UNL     1       0.629   7.068   2.564  0.00  0.00    +0.145 HD
ATOM     14  H   UNL     1       1.927   7.225   3.619  0.00  0.00    +0.145 HD
ENDBRANCH   9  10
BRANCH   1  17
ATOM     15  C   UNL     1       4.366   4.209   0.648  0.00  0.00    +0.248 C 
ATOM     16  O   UNL     1       4.344   5.415   0.495  0.00  0.00    -0.270 OA
ATOM     17  N   UNL     1       3.218   3.504   0.615  0.00  0.00    -0.280 N 
ATOM     18  H   UNL     1       3.224   2.557   0.825  0.00  0.00    +0.155 HD
BRANCH  15  23
ATOM     19  C   UNL     1       9.374   1.513   1.522  0.00  0.00    +0.044 C 
ATOM     20  C   UNL     1       8.063   2.219   1.293  0.00  0.00    -0.050 A 
ATOM     21  C   UNL     1       8.041   3.591   1.117  0.00  0.00    +0.004 A 
ATOM     22  C   UNL     1       6.844   4.244   0.907  0.00  0.00    +0.013 A 
ATOM     23  C   UNL     1       5.653   3.517   0.872  0.00  0.00    +0.037 A 
ATOM     24  C   UNL     1       5.681   2.133   1.055  0.00  0.00    +0.013 A 
ATOM     25  C   UNL     1       6.886   1.492   1.259  0.00  0.00    +0.004 A 
ENDBRANCH  15  23
ENDBRANCH   1  17
BRANCH   5  26
ATOM     26  C   UNL     1      -1.514   2.817  -4.006  0.00  0.00    +0.390 C 
ATOM     27  F   UNL     1      -0.860   2.933  -5.238  0.00  0.00    -0.202 F 
ATOM     28  F   UNL     1      -2.006   1.516  -3.861  0.00  0.00    -0.202 F 
ENDBRANCH   5  26
BRANCH   3  29
ATOM     29  C   UNL     1       2.732   1.761  -1.575  0.00  0.00    +0.020 C 
ATOM     30  C   UNL     1       2.978   0.660  -2.609  0.00  0.00    +0.009 C 
ATOM     31  C   UNL     1       2.546   0.292  -1.189  0.00  0.00    +0.009 C 
ENDBRANCH   3  29
TORSDOF 5
