REMARK  Name = ZINC51021860
REMARK  3 active torsions:
REMARK  status: ('A' for Active; 'I' for Inactive)
REMARK    1  A    between atoms: C_7  and  S_10
REMARK    2  A    between atoms: C_8  and  N_9
REMARK    3  A    between atoms: S_10  and  C_11
REMARK                            x       y       z     vdW  Elec       q    Type
REMARK                         _______ _______ _______ _____ _____    ______ ____
ROOT
ATOM      1  C   UNL     1      -0.012   1.366  -0.221  0.00  0.00    +0.020 A 
ATOM      2  C   UNL     1       1.162   2.066  -0.239  0.00  0.00    +0.013 A 
ATOM      3  C   UNL     1       2.365   1.347  -0.132  0.00  0.00    +0.022 A 
ATOM      4  C   UNL     1       2.315  -0.066  -0.012  0.00  0.00    +0.073 A 
ATOM      5  C   UNL     1       3.514  -0.790   0.094  0.00  0.00    +0.029 A 
ATOM      6  C   UNL     1       4.709  -0.139   0.083  0.00  0.00    +0.019 A 
ATOM      7  C   UNL     1       4.772   1.251  -0.035  0.00  0.00    +0.036 A 
ATOM      8  C   UNL     1       3.612   2.001  -0.143  0.00  0.00    +0.048 A 
ATOM      9  N   UNL     1       1.132  -0.689  -0.002  0.00  0.00    -0.255 NA
ATOM     10  C   UNL     1       0.008  -0.021  -0.101  0.00  0.00    +0.111 A 
ENDROOT
BRANCH   8  11
ATOM     11  N   UNL     1       3.679   3.390  -0.261  0.00  0.00    -0.357 N 
ATOM     12  H   UNL     1       2.863   3.910  -0.336  0.00  0.00    +0.142 HD
ATOM     13  H   UNL     1       4.540   3.836  -0.268  0.00  0.00    +0.142 HD
ENDBRANCH   8  11
BRANCH   7  14
ATOM     14  S   UNL     1       6.339   2.058  -0.046  0.00  0.00    -0.066 S 
BRANCH  14  15
ATOM     15  C   UNL     1       6.466   2.764   1.563  0.00  0.00    +0.130 A 
ATOM     16  C   UNL     1       7.545   3.585   1.900  0.00  0.00    +0.118 A 
ATOM     17  C   UNL     1       7.601   4.124   3.195  0.00  0.00    +0.182 A 
ATOM     18  N   UNL     1       8.722   4.867   3.260  0.00  0.00    -0.216 NA
ATOM     19  H   UNL     1       8.917   3.853   0.328  0.00  0.00    +0.167 HD
ATOM     20  C   UNL     1       9.347   4.823   2.117  0.00  0.00    +0.199 A 
ATOM     21  N   UNL     1       8.665   4.047   1.244  0.00  0.00    -0.341 N 
ATOM     22  N   UNL     1       6.620   3.830   4.056  0.00  0.00    -0.214 NA
ATOM     23  C   UNL     1       5.624   3.052   3.694  0.00  0.00    +0.224 A 
ATOM     24  N   UNL     1       5.533   2.531   2.484  0.00  0.00    -0.227 NA
ENDBRANCH  14  15
ENDBRANCH   7  14
TORSDOF 3
