REMARK  Name = ZINC39933351
REMARK  9 active torsions:
REMARK  status: ('A' for Active; 'I' for Inactive)
REMARK    1  A    between atoms: C_1  and  C_2
REMARK    2  A    between atoms: C_6  and  N_8
REMARK    3  A    between atoms: C_9  and  S_23
REMARK    4  A    between atoms: C_13  and  C_14
REMARK    5  A    between atoms: S_23  and  C_24
REMARK    6  A    between atoms: C_24  and  C_26
REMARK    7  A    between atoms: C_24  and  C_27
REMARK    8  A    between atoms: N_29  and  C_30
REMARK    9  A    between atoms: C_33  and  C_36
REMARK                            x       y       z     vdW  Elec       q    Type
REMARK                         _______ _______ _______ _____ _____    ______ ____
ROOT
ATOM      1  N   UNL     1      -0.351  -3.127   2.497  0.00  0.00    -0.254 N 
ATOM      2  C   UNL     1      -0.357  -4.553   2.861  0.00  0.00    +0.242 C 
ATOM      3  N   UNL     1       0.042  -4.568   4.278  0.00  0.00    -0.237 N 
ATOM      4  N   UNL     1       0.248  -3.233   4.647  0.00  0.00    -0.169 NA
ATOM      5  C   UNL     1       0.032  -2.425   3.643  0.00  0.00    +0.151 C 
ATOM      6  H   UNL     1       0.142  -5.349   4.845  0.00  0.00    +0.171 HD
ENDROOT
BRANCH   5   7
ATOM      7  C   UNL     1       0.165  -1.029   3.709  0.00  0.00    +0.022 C 
ATOM      8  C   UNL     1       0.438  -0.260   4.841  0.00  0.00    +0.006 A 
ATOM      9  C   UNL     1       0.655  -0.598   6.194  0.00  0.00    +0.010 A 
ATOM     10  C   UNL     1       0.905   0.381   7.101  0.00  0.00    +0.001 A 
ATOM     11  C   UNL     1       0.954   1.726   6.730  0.00  0.00    +0.002 A 
ATOM     12  C   UNL     1       0.755   2.123   5.449  0.00  0.00    +0.026 A 
ATOM     13  C   UNL     1       0.489   1.157   4.445  0.00  0.00    +0.043 A 
ATOM     14  N   UNL     1       0.265   1.282   3.151  0.00  0.00    -0.380 N 
ATOM     15  C   UNL     1       0.050  -0.045   2.566  0.00  0.00    +0.152 C 
ATOM     16  H   UNL     1       0.248   2.120   2.663  0.00  0.00    +0.160 HD
ENDBRANCH   5   7
BRANCH   1  22
ATOM     17  C   UNL     1      -3.721  -1.916  -0.869  0.00  0.00    +0.044 C 
ATOM     18  C   UNL     1      -2.287  -1.982  -0.409  0.00  0.00    -0.049 A 
ATOM     19  C   UNL     1      -1.277  -1.504  -1.224  0.00  0.00    +0.003 A 
ATOM     20  C   UNL     1       0.039  -1.562  -0.805  0.00  0.00    +0.002 A 
ATOM     21  C   UNL     1       0.350  -2.100   0.428  0.00  0.00    +0.023 A 
ATOM     22  C   UNL     1      -0.662  -2.582   1.249  0.00  0.00    +0.038 A 
ATOM     23  C   UNL     1      -1.984  -2.516   0.828  0.00  0.00    +0.027 A 
ENDBRANCH   1  22
BRANCH   2  24
ATOM     24  S   UNL     1       0.840  -5.470   1.853  0.00  0.00    -0.105 S 
BRANCH  24  25
ATOM     25  C   UNL     1       2.430  -4.686   2.237  0.00  0.00    +0.133 C 
ATOM     26  C   UNL     1       2.775  -4.928   3.708  0.00  0.00    +0.029 C 
BRANCH  25  27
ATOM     27  C   UNL     1       3.506  -5.279   1.365  0.00  0.00    +0.230 C 
ATOM     28  O   UNL     1       3.334  -6.359   0.839  0.00  0.00    -0.274 OA
ATOM     29  N   UNL     1       4.660  -4.610   1.169  0.00  0.00    -0.285 N 
ATOM     30  H   UNL     1       4.827  -3.782   1.646  0.00  0.00    +0.155 HD
BRANCH  29  31
ATOM     31  C   UNL     1       5.612  -5.108   0.281  0.00  0.00    +0.033 A 
ATOM     32  C   UNL     1       5.207  -5.812  -0.849  0.00  0.00    +0.024 A 
ATOM     33  C   UNL     1       6.145  -6.304  -1.728  0.00  0.00    +0.015 A 
ATOM     34  C   UNL     1       7.506  -6.097  -1.485  0.00  0.00    +0.037 A 
ATOM     35  C   UNL     1       7.909  -5.389  -0.349  0.00  0.00    +0.015 A 
ATOM     36  C   UNL     1       6.966  -4.895   0.523  0.00  0.00    +0.024 A 
BRANCH  34  37
ATOM     37  C   UNL     1       8.514  -6.624  -2.425  0.00  0.00    +0.242 C 
ATOM     38  O   UNL     1       8.162  -7.240  -3.412  0.00  0.00    -0.270 OA
ATOM     39  N   UNL     1       9.826  -6.423  -2.188  0.00  0.00    -0.325 N 
ATOM     40  H   UNL     1      10.107  -5.932  -1.401  0.00  0.00    +0.145 HD
ATOM     41  H   UNL     1      10.489  -6.770  -2.806  0.00  0.00    +0.145 HD
ENDBRANCH  34  37
ENDBRANCH  29  31
ENDBRANCH  25  27
ENDBRANCH  24  25
ENDBRANCH   2  24
TORSDOF 7
