REMARK  Name = ZINC25382053
REMARK  11 active torsions:
REMARK  status: ('A' for Active; 'I' for Inactive)
REMARK    1  A    between atoms: C_1  and  C_2
REMARK    2  A    between atoms: N_5  and  C_8
REMARK    3  A    between atoms: C_8  and  C_10
REMARK    4  A    between atoms: C_8  and  C_30
REMARK    5  A    between atoms: C_10  and  N_11
REMARK    6  A    between atoms: C_12  and  C_14
REMARK    7  A    between atoms: C_14  and  C_16
REMARK    8  A    between atoms: C_14  and  N_19
REMARK    9  A    between atoms: C_16  and  C_17
REMARK   10  A    between atoms: C_16  and  C_18
REMARK   11  A    between atoms: C_20  and  C_22
REMARK                            x       y       z     vdW  Elec       q    Type
REMARK                         _______ _______ _______ _____ _____    ______ ____
ROOT
ATOM      1  N   UNL     1      -1.298   2.790  -3.613  0.00  0.00    -0.315 N 
ATOM      2  C   UNL     1      -2.105   3.314  -4.557  0.00  0.00    +0.234 C 
ATOM      3  O   UNL     1      -2.759   2.582  -5.271  0.00  0.00    -0.274 OA
ATOM      4  H   UNL     1      -0.706   3.453  -2.966  0.00  0.00    +0.149 HD
ENDROOT
BRANCH   1   5
ATOM      5  C   UNL     1      -1.211   1.337  -3.449  0.00  0.00    +0.094 C 
BRANCH   5   6
ATOM      6  C   UNL     1      -0.145   1.005  -2.402  0.00  0.00    -0.013 C 
BRANCH   6  11
ATOM      7  C   UNL     1      -1.349   2.949   2.836  0.00  0.00    +0.007 C 
ATOM      8  C   UNL     1      -1.060   2.031   1.646  0.00  0.00    -0.018 C 
ATOM      9  C   UNL     1      -2.107   2.266   0.554  0.00  0.00    -0.015 C 
ATOM     10  C   UNL     1      -1.778   1.390  -0.657  0.00  0.00    -0.078 C 
ATOM     11  N   UNL     1      -0.440   1.727  -1.157  0.00  0.00    +0.386 N 
ATOM     12  C   UNL     1       0.588   1.466  -0.142  0.00  0.00    -0.078 C 
ATOM     13  C   UNL     1       0.330   2.344   1.085  0.00  0.00    -0.015 C 
ATOM     14  H   UNL     1      -0.426   2.805  -1.379  0.00  0.00    -0.081 HD
ENDBRANCH   6  11
BRANCH   6  15
ATOM     15  C   UNL     1      -0.148  -0.478  -2.135  0.00  0.00    -0.022 A 
ATOM     16  C   UNL     1       0.826  -1.390  -2.375  0.00  0.00    +0.009 A 
ATOM     17  C   UNL     1       0.601  -2.713  -2.043  0.00  0.00    +0.008 A 
ATOM     18  C   UNL     1      -0.586  -3.059  -1.489  0.00  0.00    +0.045 A 
ATOM     19  S   UNL     1      -1.431  -1.488  -1.414  0.00  0.00    -0.103 S 
ENDBRANCH   6  15
ENDBRANCH   5   6
ENDBRANCH   1   5
BRANCH   2  20
ATOM     20  C   UNL     1      -2.195   4.809  -4.727  0.00  0.00    +0.162 C 
BRANCH  20  21
ATOM     21  N   UNL     1      -3.131   5.122  -5.809  0.00  0.00    -0.300 N 
ATOM     22  C   UNL     1      -3.019   6.284  -6.482  0.00  0.00    +0.250 C 
ATOM     23  O   UNL     1      -2.140   7.073  -6.190  0.00  0.00    -0.270 OA
ATOM     24  H   UNL     1      -3.926   4.409  -6.073  0.00  0.00    +0.150 HD
BRANCH  22  25
ATOM     25  C   UNL     1      -3.962   6.600  -7.572  0.00  0.00    +0.107 A 
ATOM     26  C   UNL     1      -5.154   7.277  -7.296  0.00  0.00    +0.138 A 
ATOM     27  C   UNL     1      -6.030   7.573  -8.324  0.00  0.00    +0.039 A 
ATOM     28  C   UNL     1      -5.734   7.194  -9.621  0.00  0.00    +0.006 A 
ATOM     29  C   UNL     1      -4.559   6.519  -9.901  0.00  0.00    +0.039 A 
ATOM     30  C   UNL     1      -3.670   6.219  -8.886  0.00  0.00    +0.138 A 
ATOM     31  F   UNL     1      -2.524   5.560  -9.162  0.00  0.00    -0.205 F 
ATOM     32  F   UNL     1      -5.448   7.644  -6.030  0.00  0.00    -0.205 F 
ENDBRANCH  22  25
ENDBRANCH  20  21
BRANCH  20  33
ATOM     33  C   UNL     1      -2.691   5.441  -3.425  0.00  0.00    +0.012 C 
ATOM     34  C   UNL     1      -2.782   6.958  -3.597  0.00  0.00    +0.009 C 
ATOM     35  C   UNL     1      -4.073   4.882  -3.081  0.00  0.00    +0.009 C 
ENDBRANCH  20  33
ENDBRANCH   2  20
TORSDOF 8
