REMARK  Name = ZINC20558487
REMARK  7 active torsions:
REMARK  status: ('A' for Active; 'I' for Inactive)
REMARK    1  A    between atoms: C_1  and  C_2
REMARK    2  A    between atoms: C_2  and  C_3
REMARK    3  A    between atoms: C_6  and  C_9
REMARK    4  A    between atoms: C_11  and  C_35
REMARK    5  A    between atoms: C_12  and  N_34
REMARK    6  A    between atoms: N_19  and  C_26
REMARK    7  A    between atoms: C_26  and  C_27
REMARK                            x       y       z     vdW  Elec       q    Type
REMARK                         _______ _______ _______ _____ _____    ______ ____
ROOT
ATOM      1  C   UNL     1       3.242   1.250  -0.037  0.00  0.00    +0.118 C 
ATOM      2  C   UNL     1       4.111   1.773   1.074  0.00  0.00    +0.099 C 
ATOM      3  C   UNL     1       4.983   2.786   0.839  0.00  0.00    +0.199 C 
ATOM      4  O   UNL     1       5.091   3.344  -0.377  0.00  0.00    -0.439 OA
ATOM      5  C   UNL     1       4.665   2.674  -1.481  0.00  0.00    +0.162 C 
ATOM      6  C   UNL     1       3.791   1.677  -1.370  0.00  0.00    +0.141 C 
ATOM      7  S   UNL     1       3.264   0.838  -2.835  0.00  0.00    +0.076 S 
ATOM      8  O   UNL     1       1.868   0.607  -2.703  0.00  0.00    -0.150 OA
ATOM      9  O   UNL     1       4.197  -0.207  -3.075  0.00  0.00    -0.150 OA
ATOM     10  N   UNL     1       3.459   1.954  -4.054  0.00  0.00    -0.198 N 
ATOM     11  C   UNL     1       4.612   2.749  -4.011  0.00  0.00    +0.062 A 
ATOM     12  C   UNL     1       5.206   3.091  -2.796  0.00  0.00    +0.042 A 
ATOM     13  C   UNL     1       6.371   3.869  -2.806  0.00  0.00    +0.013 A 
ATOM     14  C   UNL     1       6.914   4.292  -3.999  0.00  0.00    +0.001 A 
ATOM     15  C   UNL     1       6.314   3.953  -5.200  0.00  0.00    +0.002 A 
ATOM     16  C   UNL     1       5.167   3.184  -5.207  0.00  0.00    +0.025 A 
ENDROOT
BRANCH   1  20
ATOM     17  C   UNL     1      -0.718   2.784   0.421  0.00  0.00    -0.048 A 
ATOM     18  C   UNL     1      -0.500   1.419   0.433  0.00  0.00    +0.004 A 
ATOM     19  C   UNL     1       0.782   0.923   0.290  0.00  0.00    +0.005 A 
ATOM     20  C   UNL     1       1.845   1.791   0.125  0.00  0.00    -0.033 A 
ATOM     21  C   UNL     1       1.626   3.156   0.107  0.00  0.00    +0.005 A 
ATOM     22  C   UNL     1       0.345   3.652   0.255  0.00  0.00    +0.004 A 
BRANCH  17  24
ATOM     23  C   UNL     1      -2.771   3.460  -0.794  0.00  0.00    +0.009 C 
ATOM     24  C   UNL     1      -2.115   3.325   0.582  0.00  0.00    +0.032 C 
ENDBRANCH  17  24
ENDBRANCH   1  20
BRANCH   3  25
ATOM     25  N   UNL     1       5.771   3.248   1.864  0.00  0.00    -0.328 N 
ATOM     26  H   UNL     1       6.481   4.069   1.685  0.00  0.00    +0.145 HD
ATOM     27  H   UNL     1       5.691   2.798   2.865  0.00  0.00    +0.145 HD
ENDBRANCH   3  25
BRANCH   2  28
ATOM     28  C   UNL     1       4.018   1.201   2.383  0.00  0.00    +0.101 C 
ATOM     29  N   UNL     1       3.943   0.747   3.422  0.00  0.00    -0.191 NA
ENDBRANCH   2  28
BRANCH  10  30
ATOM     30  C   UNL     1       2.470   2.100  -5.125  0.00  0.00    +0.166 C 
BRANCH  30  31
ATOM     31  C   UNL     1       1.548   3.248  -4.805  0.00  0.00    -0.028 A 
ATOM     32  C   UNL     1       0.334   3.009  -4.189  0.00  0.00    +0.008 A 
ATOM     33  C   UNL     1      -0.510   4.062  -3.891  0.00  0.00    +0.038 A 
ATOM     34  C   UNL     1      -0.143   5.356  -4.219  0.00  0.00    +0.123 A 
ATOM     35  C   UNL     1       1.071   5.595  -4.840  0.00  0.00    +0.038 A 
ATOM     36  C   UNL     1       1.916   4.540  -5.133  0.00  0.00    +0.008 A 
ATOM     37  F   UNL     1      -0.969   6.386  -3.932  0.00  0.00    -0.205 F 
ENDBRANCH  30  31
ENDBRANCH  10  30
TORSDOF 6
