REMARK  Name = ZINC13364826
REMARK  10 active torsions:
REMARK  status: ('A' for Active; 'I' for Inactive)
REMARK    1  A    between atoms: C_1  and  C_2
REMARK    2  A    between atoms: C_2  and  C_3
REMARK    3  A    between atoms: C_10  and  C_12
REMARK    4  A    between atoms: C_15  and  S_18
REMARK    5  A    between atoms: N_16  and  C_17
REMARK    6  A    between atoms: S_18  and  C_19
REMARK    7  A    between atoms: C_19  and  C_20
REMARK    8  A    between atoms: N_22  and  C_23
REMARK    9  A    between atoms: C_25  and  C_30
REMARK   10  A    between atoms: C_28  and  C_29
REMARK                            x       y       z     vdW  Elec       q    Type
REMARK                         _______ _______ _______ _____ _____    ______ ____
ROOT
ATOM      1  C   UNL     1       1.068   2.310  -0.042  0.00  0.00    +0.171 A 
ATOM      2  N   UNL     1       0.597   3.537  -0.032  0.00  0.00    -0.128 NA
ATOM      3  N   UNL     1      -0.687   3.514  -0.011  0.00  0.00    -0.122 NA
ATOM      4  C   UNL     1      -1.118   2.273  -0.011  0.00  0.00    +0.192 A 
ATOM      5  N   UNL     1      -0.018   1.462  -0.026  0.00  0.00    -0.305 N 
ATOM      6  C   UNL     1       0.003  -0.003  -0.029  0.00  0.00    +0.153 C 
ENDROOT
BRANCH   1  13
ATOM      7  C   UNL     1       7.321   2.105  -0.060  0.00  0.00    -0.007 C 
ATOM      8  C   UNL     1       7.300   0.657  -0.556  0.00  0.00    +0.009 C 
ATOM      9  C   UNL     1       6.133  -0.078   0.121  0.00  0.00    +0.043 C 
ATOM     10  C   UNL     1       4.912   0.777   0.011  0.00  0.00    -0.006 A 
ATOM     11  C   UNL     1       4.851   2.098  -0.322  0.00  0.00    -0.036 A 
ATOM     12  C   UNL     1       3.587   2.675  -0.359  0.00  0.00    +0.023 A 
ATOM     13  C   UNL     1       2.486   1.916  -0.067  0.00  0.00    +0.057 A 
ATOM     14  S   UNL     1       3.220   0.325   0.284  0.00  0.00    -0.090 S 
ATOM     15  C   UNL     1       6.129   2.872  -0.633  0.00  0.00    +0.039 C 
BRANCH   7  17
ATOM     16  C   UNL     1       8.701   4.184   0.084  0.00  0.00    +0.004 C 
ATOM     17  C   UNL     1       8.619   2.777  -0.514  0.00  0.00    +0.000 C 
ENDBRANCH   7  17
ENDBRANCH   1  13
BRANCH   4  18
ATOM     18  S   UNL     1      -2.801   1.751   0.007  0.00  0.00    -0.077 S 
BRANCH  18  19
ATOM     19  C   UNL     1      -3.629   3.361   0.021  0.00  0.00    +0.173 C 
BRANCH  19  20
ATOM     20  C   UNL     1      -5.122   3.157   0.037  0.00  0.00    +0.227 C 
ATOM     21  O   UNL     1      -5.581   2.035   0.041  0.00  0.00    -0.275 OA
ATOM     22  N   UNL     1      -5.947   4.223   0.049  0.00  0.00    -0.285 N 
ATOM     23  H   UNL     1      -5.582   5.118   0.128  0.00  0.00    +0.155 HD
BRANCH  22  24
ATOM     24  C   UNL     1      -7.331   4.037  -0.051  0.00  0.00    +0.037 A 
ATOM     25  C   UNL     1      -7.835   2.899  -0.660  0.00  0.00    +0.038 A 
ATOM     26  C   UNL     1      -9.215   2.717  -0.754  0.00  0.00    +0.065 A 
ATOM     27  C   UNL     1     -10.079   3.688  -0.243  0.00  0.00    +0.015 A 
ATOM     28  C   UNL     1      -9.567   4.819   0.357  0.00  0.00    +0.006 A 
ATOM     29  C   UNL     1      -8.199   4.997   0.454  0.00  0.00    -0.029 A 
ATOM     30  C   UNL     1      -7.648   6.237   1.110  0.00  0.00    +0.045 C 
BRANCH  26  31
ATOM     31  C   UNL     1      -9.761   1.503  -1.397  0.00  0.00    +0.387 C 
ATOM     32  O   UNL     1      -9.007   0.660  -1.841  0.00  0.00    -0.241 OA
ATOM     33  O   UNL     1     -11.094   1.332  -1.490  0.00  0.00    -0.241 OA
ENDBRANCH  26  31
ENDBRANCH  22  24
ENDBRANCH  19  20
ENDBRANCH  18  19
ENDBRANCH   4  18
TORSDOF 7
