REMARK  Name = ZINC23296591
REMARK  8 active torsions:
REMARK  status: ('A' for Active; 'I' for Inactive)
REMARK    1  A    between atoms: C_1  and  C_2
REMARK    2  A    between atoms: C_2  and  C_3
REMARK    3  A    between atoms: C_2  and  C_4
REMARK    4  A    between atoms: C_2  and  C_5
REMARK    5  A    between atoms: C_12  and  C_14
REMARK    6  A    between atoms: N_16  and  N_17
REMARK    7  A    between atoms: C_18  and  C_20
REMARK    8  A    between atoms: C_26  and  C_28
REMARK                            x       y       z     vdW  Elec       q    Type
REMARK                         _______ _______ _______ _____ _____    ______ ____
ROOT
ATOM      1  C   UNL     1      -7.939   3.542  -2.880  0.00  0.00    +0.267 C 
ATOM      2  O   UNL     1      -7.544   4.404  -2.117  0.00  0.00    -0.268 OA
ATOM      3  N   UNL     1      -7.444   2.291  -2.798  0.00  0.00    -0.230 N 
ATOM      4  H   UNL     1      -7.801   1.512  -3.487  0.00  0.00    +0.173 HD
ENDROOT
BRANCH   1  11
ATOM      5  C   UNL     1     -12.518   6.016  -6.328  0.00  0.00    -0.001 C 
ATOM      6  C   UNL     1     -12.120   5.131  -7.513  0.00  0.00    +0.009 C 
ATOM      7  C   UNL     1     -11.697   3.755  -6.980  0.00  0.00    +0.043 C 
ATOM      8  C   UNL     1     -10.745   3.960  -5.843  0.00  0.00    -0.006 A 
ATOM      9  C   UNL     1     -10.519   5.120  -5.157  0.00  0.00    -0.036 A 
ATOM     10  C   UNL     1      -9.587   5.068  -4.133  0.00  0.00    +0.024 A 
ATOM     11  C   UNL     1      -8.954   3.864  -3.888  0.00  0.00    +0.076 A 
ATOM     12  S   UNL     1      -9.699   2.802  -5.114  0.00  0.00    -0.088 S 
ATOM     13  C   UNL     1     -11.277   6.394  -5.520  0.00  0.00    +0.040 C 
BRANCH   5  15
ATOM     14  C   UNL     1     -14.442   6.912  -7.648  0.00  0.00    +0.011 C 
ATOM     15  C   UNL     1     -13.193   7.287  -6.848  0.00  0.00    -0.035 C 
ATOM     16  C   UNL     1     -13.591   8.173  -5.666  0.00  0.00    +0.011 C 
ATOM     17  C   UNL     1     -12.219   8.049  -7.751  0.00  0.00    +0.011 C 
ENDBRANCH   5  15
ENDBRANCH   1  11
BRANCH   3  18
ATOM     18  N   UNL     1      -6.475   1.983  -1.834  0.00  0.00    -0.234 N 
ATOM     19  C   UNL     1      -5.980   0.732  -1.752  0.00  0.00    +0.232 C 
ATOM     20  O   UNL     1      -6.374  -0.127  -2.512  0.00  0.00    -0.274 OA
ATOM     21  H   UNL     1      -6.117   2.762  -1.145  0.00  0.00    +0.173 HD
BRANCH  19  22
ATOM     22  C   UNL     1      -4.937   0.401  -0.716  0.00  0.00    +0.079 C 
ATOM     23  C   UNL     1      -4.549  -1.075  -0.837  0.00  0.00    +0.032 C 
ATOM     24  C   UNL     1      -3.514  -1.416   0.240  0.00  0.00    +0.109 C 
ATOM     25  N   UNL     1      -2.385  -0.483   0.124  0.00  0.00    -0.297 N 
ATOM     26  C   UNL     1      -2.656   0.961   0.142  0.00  0.00    +0.109 C 
ATOM     27  C   UNL     1      -3.701   1.275  -0.939  0.00  0.00    +0.032 C 
ATOM     28  C   UNL     1      -1.123  -0.943   0.007  0.00  0.00    +0.253 C 
ATOM     29  O   UNL     1      -0.920  -2.136  -0.120  0.00  0.00    -0.269 OA
BRANCH  28  30
ATOM     30  C   UNL     1       0.004  -0.007   0.035  0.00  0.00    +0.074 A 
ATOM     31  C   UNL     1       1.288  -0.170  -0.462  0.00  0.00    +0.021 A 
ATOM     32  C   UNL     1       2.158   0.879  -0.302  0.00  0.00    +0.008 A 
ATOM     33  C   UNL     1       1.730   2.006   0.325  0.00  0.00    +0.046 A 
ATOM     34  S   UNL     1       0.081   1.640   0.716  0.00  0.00    -0.092 S 
ENDBRANCH  28  30
ENDBRANCH  19  22
ENDBRANCH   3  18
TORSDOF 5
