REMARK  Name = ZINC00735867
REMARK  7 active torsions:
REMARK  status: ('A' for Active; 'I' for Inactive)
REMARK    1  A    between atoms: C_4  and  C_7
REMARK    2  A    between atoms: C_7  and  C_8
REMARK    3  A    between atoms: N_11  and  C_14
REMARK    4  A    between atoms: C_17  and  N_27
REMARK    5  A    between atoms: C_19  and  C_20
REMARK    6  A    between atoms: N_30  and  C_31
REMARK    7  A    between atoms: C_31  and  C_32
REMARK                            x       y       z     vdW  Elec       q    Type
REMARK                         _______ _______ _______ _____ _____    ______ ____
ROOT
ATOM      1  C   UNL     1       2.751  -0.328  -2.300  0.00  0.00    +0.042 A 
ATOM      2  C   UNL     1       2.471  -0.139  -3.648  0.00  0.00    +0.026 A 
ATOM      3  C   UNL     1       3.237  -0.766  -4.608  0.00  0.00    +0.025 A 
ATOM      4  C   UNL     1       4.293  -1.592  -4.237  0.00  0.00    +0.036 A 
ATOM      5  C   UNL     1       4.584  -1.791  -2.899  0.00  0.00    +0.038 A 
ATOM      6  C   UNL     1       3.817  -1.155  -1.919  0.00  0.00    +0.060 A 
ENDROOT
BRANCH   6   7
ATOM      7  C   UNL     1       4.125  -1.357  -0.491  0.00  0.00    +0.248 C 
ATOM      8  O   UNL     1       4.197  -0.401   0.256  0.00  0.00    -0.270 OA
ATOM      9  N   UNL     1       4.327  -2.601  -0.015  0.00  0.00    -0.297 N 
ATOM     10  C   UNL     1       4.364  -3.831  -0.819  0.00  0.00    +0.108 C 
ATOM     11  C   UNL     1       4.596  -5.008   0.153  0.00  0.00    +0.020 C 
ATOM     12  C   UNL     1       4.104  -4.437   1.509  0.00  0.00    +0.020 C 
ATOM     13  C   UNL     1       4.541  -2.955   1.401  0.00  0.00    +0.108 C 
ENDBRANCH   6   7
BRANCH   1  17
ATOM     14  C   UNL     1      -0.101   2.030  -0.312  0.00  0.00    -0.004 C 
ATOM     15  C   UNL     1       1.378   2.421  -0.251  0.00  0.00    +0.023 C 
ATOM     16  C   UNL     1       2.122   1.765  -1.417  0.00  0.00    +0.105 C 
ATOM     17  N   UNL     1       1.979   0.306  -1.332  0.00  0.00    -0.329 N 
ATOM     18  C   UNL     1       0.570  -0.096  -1.436  0.00  0.00    +0.105 C 
ATOM     19  C   UNL     1      -0.220   0.504  -0.270  0.00  0.00    +0.023 C 
BRANCH  14  20
ATOM     20  C   UNL     1      -0.838   2.633   0.885  0.00  0.00    +0.038 C 
BRANCH  20  24
ATOM     21  C   UNL     1      -0.803   6.894   0.582  0.00  0.00    +0.000 A 
ATOM     22  C   UNL     1      -1.835   6.169   0.016  0.00  0.00    +0.000 A 
ATOM     23  C   UNL     1      -1.847   4.790   0.114  0.00  0.00    +0.003 A 
ATOM     24  C   UNL     1      -0.826   4.136   0.778  0.00  0.00    -0.047 A 
ATOM     25  C   UNL     1       0.204   4.861   1.348  0.00  0.00    +0.003 A 
ATOM     26  C   UNL     1       0.217   6.240   1.246  0.00  0.00    +0.000 A 
ENDBRANCH  20  24
ENDBRANCH  14  20
ENDBRANCH   1  17
BRANCH   4  27
ATOM     27  N   UNL     1       5.064  -2.226  -5.221  0.00  0.00    -0.269 N 
ATOM     28  C   UNL     1       6.377  -2.447  -5.010  0.00  0.00    +0.304 C 
ATOM     29  O   UNL     1       6.913  -2.014  -4.008  0.00  0.00    -0.252 OA
ATOM     30  N   UNL     1       7.095  -3.149  -5.909  0.00  0.00    -0.295 N 
ATOM     31  H   UNL     1       4.598  -2.542  -6.166  0.00  0.00    +0.156 HD
ATOM     32  H   UNL     1       6.610  -3.540  -6.816  0.00  0.00    +0.151 HD
BRANCH  30  33
ATOM     33  C   UNL     1       8.522  -3.389  -5.680  0.00  0.00    +0.141 C 
BRANCH  33  34
ATOM     34  C   UNL     1       9.087  -4.191  -6.824  0.00  0.00    -0.030 A 
ATOM     35  C   UNL     1       9.087  -5.572  -6.767  0.00  0.00    +0.005 A 
ATOM     36  C   UNL     1       9.600  -6.308  -7.819  0.00  0.00    +0.000 A 
ATOM     37  C   UNL     1      10.123  -5.662  -8.923  0.00  0.00    +0.000 A 
ATOM     38  C   UNL     1      10.129  -4.280  -8.978  0.00  0.00    +0.000 A 
ATOM     39  C   UNL     1       9.610  -3.545  -7.928  0.00  0.00    +0.005 A 
ENDBRANCH  33  34
ENDBRANCH  30  33
ENDBRANCH   4  27
TORSDOF 7
