REMARK  Name = ZINC62733096
REMARK  7 active torsions:
REMARK  status: ('A' for Active; 'I' for Inactive)
REMARK    1  A    between atoms: C_1  and  C_2
REMARK    2  A    between atoms: N_11  and  C_15
REMARK    3  A    between atoms: C_15  and  C_16
REMARK    4  A    between atoms: N_18  and  C_19
REMARK    5  A    between atoms: C_22  and  N_25
REMARK    6  A    between atoms: N_28  and  C_31
REMARK    7  A    between atoms: C_31  and  C_32
REMARK                            x       y       z     vdW  Elec       q    Type
REMARK                         _______ _______ _______ _____ _____    ______ ____
ROOT
ATOM      1  C   UNL     1       1.168   2.287   6.936  0.00  0.00    +0.235 C 
ATOM      2  O   UNL     1       1.604   2.755   7.967  0.00  0.00    -0.274 OA
ATOM      3  N   UNL     1       1.032   0.953   6.806  0.00  0.00    -0.284 N 
ATOM      4  H   UNL     1       0.624   0.582   6.008  0.00  0.00    +0.155 HD
ENDROOT
BRANCH   3   5
ATOM      5  C   UNL     1       1.480   0.100   7.824  0.00  0.00    +0.034 A 
ATOM      6  C   UNL     1       2.033  -1.133   7.504  0.00  0.00    +0.025 A 
ATOM      7  C   UNL     1       2.475  -1.973   8.507  0.00  0.00    +0.025 A 
ATOM      8  C   UNL     1       2.367  -1.584   9.836  0.00  0.00    +0.030 A 
ATOM      9  C   UNL     1       1.814  -0.350  10.156  0.00  0.00    +0.025 A 
ATOM     10  C   UNL     1       1.377   0.491   9.153  0.00  0.00    +0.025 A 
BRANCH   8  11
ATOM     11  N   UNL     1       2.814  -2.435  10.852  0.00  0.00    -0.327 N 
ATOM     12  C   UNL     1       2.596  -2.100  12.268  0.00  0.00    +0.120 C 
ATOM     13  C   UNL     1       1.954  -3.306  12.960  0.00  0.00    +0.103 C 
ATOM     14  N   UNL     1       2.779  -4.499  12.724  0.00  0.00    -0.295 NA
ATOM     15  C   UNL     1       2.836  -4.832  11.295  0.00  0.00    +0.103 C 
ATOM     16  C   UNL     1       3.509  -3.691  10.534  0.00  0.00    +0.120 C 
BRANCH  14  17
ATOM     17  C   UNL     1       2.292  -5.640  13.511  0.00  0.00    +0.119 C 
BRANCH  17  18
ATOM     18  C   UNL     1       3.293  -6.764  13.438  0.00  0.00    -0.033 A 
ATOM     19  C   UNL     1       3.199  -7.708  12.432  0.00  0.00    +0.005 A 
ATOM     20  C   UNL     1       4.117  -8.739  12.365  0.00  0.00    +0.000 A 
ATOM     21  C   UNL     1       5.129  -8.827  13.303  0.00  0.00    +0.000 A 
ATOM     22  C   UNL     1       5.223  -7.882  14.308  0.00  0.00    +0.000 A 
ATOM     23  C   UNL     1       4.308  -6.848  14.373  0.00  0.00    +0.005 A 
ENDBRANCH  17  18
ENDBRANCH  14  17
ENDBRANCH   8  11
ENDBRANCH   3   5
BRANCH   1  24
ATOM     24  C   UNL     1       0.779   3.198   5.801  0.00  0.00    +0.214 C 
BRANCH  24  34
ATOM     25  C   UNL     1       1.098   7.389   4.321  0.00  0.00    +0.010 C 
ATOM     26  C   UNL     1       2.112   7.677   5.430  0.00  0.00    +0.018 C 
ATOM     27  C   UNL     1       1.856   9.071   6.007  0.00  0.00    +0.006 C 
ATOM     28  C   UNL     1       2.858   9.349   7.129  0.00  0.00    +0.000 C 
ATOM     29  C   UNL     1       2.686   8.309   8.238  0.00  0.00    +0.003 C 
ATOM     30  C   UNL     1       2.945   6.912   7.669  0.00  0.00    +0.035 C 
ATOM     31  C   UNL     1       1.967   6.635   6.533  0.00  0.00    +0.115 C 
ATOM     32  C   UNL     1       2.182   5.245   5.979  0.00  0.00    +0.247 C 
ATOM     33  O   UNL     1       3.186   4.810   5.457  0.00  0.00    -0.273 OA
ATOM     34  N   UNL     1       1.020   4.591   6.187  0.00  0.00    -0.215 N 
ATOM     35  C   UNL     1       0.116   5.372   6.790  0.00  0.00    +0.310 C 
ATOM     36  O   UNL     1      -1.006   5.005   7.082  0.00  0.00    -0.252 OA
ATOM     37  N   UNL     1       0.588   6.608   7.037  0.00  0.00    -0.285 N 
ATOM     38  H   UNL     1       0.111   7.338   7.464  0.00  0.00    +0.151 HD
ENDBRANCH  24  34
ENDBRANCH   1  24
TORSDOF 6
