REMARK  Name = ZINC67481832
REMARK  8 active torsions:
REMARK  status: ('A' for Active; 'I' for Inactive)
REMARK    1  A    between atoms: C_1  and  C_2
REMARK    2  A    between atoms: C_2  and  C_3
REMARK    3  A    between atoms: C_2  and  C_4
REMARK    4  A    between atoms: N_6  and  C_7
REMARK    5  A    between atoms: N_15  and  C_16
REMARK    6  A    between atoms: C_16  and  C_17
REMARK    7  A    between atoms: N_22  and  C_23
REMARK    8  A    between atoms: C_23  and  C_24
REMARK                            x       y       z     vdW  Elec       q    Type
REMARK                         _______ _______ _______ _____ _____    ______ ____
ROOT
ATOM      1  C   UNL     1       2.584  -2.411   4.660  0.00  0.00    +0.076 C 
ATOM      2  C   UNL     1       1.607  -2.634   5.816  0.00  0.00    +0.041 C 
ATOM      3  C   UNL     1       1.087  -1.280   6.309  0.00  0.00    +0.111 C 
ATOM      4  N   UNL     1       2.234  -0.427   6.646  0.00  0.00    -0.286 N 
ATOM      5  C   UNL     1       3.280  -0.219   5.636  0.00  0.00    +0.111 C 
ATOM      6  C   UNL     1       3.776  -1.585   5.150  0.00  0.00    +0.041 C 
ATOM      7  C   UNL     1       2.326   0.154   7.859  0.00  0.00    +0.302 C 
ATOM      8  O   UNL     1       3.320   0.787   8.156  0.00  0.00    -0.253 OA
ATOM      9  N   UNL     1       1.315   0.033   8.742  0.00  0.00    -0.301 N 
ATOM     10  H   UNL     1       0.554  -0.532   8.534  0.00  0.00    +0.150 HD
ENDROOT
BRANCH   1  13
ATOM     11  C   UNL     1       2.334  -4.384   3.252  0.00  0.00    +0.216 C 
ATOM     12  O   UNL     1       1.290  -3.922   2.842  0.00  0.00    -0.276 OA
ATOM     13  N   UNL     1       3.058  -3.705   4.164  0.00  0.00    -0.312 N 
ATOM     14  H   UNL     1       3.893  -4.074   4.492  0.00  0.00    +0.149 HD
BRANCH  11  16
ATOM     15  C   UNL     1       2.952  -6.693   3.912  0.00  0.00    +0.017 C 
ATOM     16  C   UNL     1       2.821  -5.715   2.742  0.00  0.00    +0.069 C 
ATOM     17  C   UNL     1       1.822  -6.269   1.724  0.00  0.00    +0.017 C 
ENDBRANCH  11  16
ENDBRANCH   1  13
BRANCH   9  18
ATOM     18  C   UNL     1       1.365   0.754  10.016  0.00  0.00    +0.090 C 
BRANCH  18  19
ATOM     19  C   UNL     1       0.104   0.446  10.826  0.00  0.00    -0.051 C 
ATOM     20  C   UNL     1       0.066   1.328  12.092  0.00  0.00    -0.016 C 
ATOM     21  C   UNL     1      -0.852   2.505  11.670  0.00  0.00    -0.020 C 
ATOM     22  C   UNL     1      -1.880   1.789  10.759  0.00  0.00    -0.078 C 
ATOM     23  N   UNL     1      -1.095   0.765  10.030  0.00  0.00    +0.383 N 
ATOM     24  H   UNL     1      -0.818   1.126   9.129  0.00  0.00    -0.081 HD
BRANCH  23  25
ATOM     25  C   UNL     1      -1.904  -0.447   9.848  0.00  0.00    -0.075 C 
BRANCH  25  26
ATOM     26  C   UNL     1      -3.087  -0.136   8.927  0.00  0.00    -0.028 C 
ATOM     27  C   UNL     1      -3.969  -1.379   8.794  0.00  0.00    +0.002 C 
ATOM     28  C   UNL     1      -5.151  -1.069   7.874  0.00  0.00    +0.000 C 
ATOM     29  C   UNL     1      -4.631  -0.663   6.494  0.00  0.00    +0.000 C 
ATOM     30  C   UNL     1      -3.748   0.580   6.627  0.00  0.00    +0.000 C 
ATOM     31  C   UNL     1      -2.566   0.269   7.547  0.00  0.00    +0.002 C 
ENDBRANCH  25  26
ENDBRANCH  23  25
ENDBRANCH  18  19
ENDBRANCH   9  18
TORSDOF 6
