REMARK  Name = ZINC63260491
REMARK  6 active torsions:
REMARK  status: ('A' for Active; 'I' for Inactive)
REMARK    1  A    between atoms: C_1  and  N_2
REMARK    2  A    between atoms: C_3  and  C_5
REMARK    3  A    between atoms: C_8  and  N_11
REMARK    4  A    between atoms: C_12  and  C_14
REMARK    5  A    between atoms: C_16  and  N_25
REMARK    6  A    between atoms: C_19  and  N_20
REMARK                            x       y       z     vdW  Elec       q    Type
REMARK                         _______ _______ _______ _____ _____    ______ ____
ROOT
ATOM      1  N   UNL     1      -0.030  -6.213   2.229  0.00  0.00    -0.308 N 
ATOM      2  C   UNL     1       0.092  -6.892   3.387  0.00  0.00    +0.246 C 
ATOM      3  O   UNL     1       0.185  -6.288   4.439  0.00  0.00    -0.270 OA
ATOM      4  H   UNL     1      -0.105  -6.695   1.390  0.00  0.00    +0.149 HD
ENDROOT
BRANCH   1   8
ATOM      5  C   UNL     1       0.625  -2.182   0.995  0.00  0.00    +0.075 C 
ATOM      6  C   UNL     1      -0.811  -2.712   1.006  0.00  0.00    +0.014 C 
ATOM      7  C   UNL     1      -0.790  -4.242   0.998  0.00  0.00    +0.023 C 
ATOM      8  C   UNL     1      -0.050  -4.748   2.237  0.00  0.00    +0.073 C 
ATOM      9  C   UNL     1       1.386  -4.219   2.226  0.00  0.00    +0.023 C 
ATOM     10  C   UNL     1       1.365  -2.689   2.235  0.00  0.00    +0.014 C 
BRANCH   5  13
ATOM     11  C   UNL     1      -0.018   1.461   0.010  0.00  0.00    +0.128 C 
ATOM     12  N   UNL     1       0.002  -0.004   0.002  0.00  0.00    -0.318 N 
ATOM     13  C   UNL     1       0.604  -0.675   1.004  0.00  0.00    +0.216 C 
ATOM     14  O   UNL     1       1.130  -0.067   1.911  0.00  0.00    -0.276 OA
ATOM     15  H   UNL     1      -0.418  -0.491  -0.724  0.00  0.00    +0.148 HD
ENDBRANCH   5  13
ENDBRANCH   1   8
BRANCH   2  16
ATOM     16  C   UNL     1       0.112  -8.366   3.379  0.00  0.00    +0.060 A 
ATOM     17  C   UNL     1       0.011  -9.064   2.173  0.00  0.00    +0.047 A 
ATOM     18  C   UNL     1       0.030 -10.441   2.172  0.00  0.00    +0.127 A 
ATOM     19  C   UNL     1       0.149 -11.141   3.362  0.00  0.00    +0.034 A 
ATOM     20  C   UNL     1       0.250 -10.467   4.562  0.00  0.00    +0.026 A 
ATOM     21  C   UNL     1       0.239  -9.077   4.582  0.00  0.00    +0.042 A 
BRANCH  21  22
ATOM     22  N   UNL     1       0.347  -8.396   5.788  0.00  0.00    -0.329 N 
ATOM     23  C   UNL     1      -0.775  -7.998   6.650  0.00  0.00    +0.105 C 
ATOM     24  C   UNL     1      -0.179  -7.247   7.860  0.00  0.00    +0.020 C 
ATOM     25  C   UNL     1       1.198  -6.771   7.329  0.00  0.00    +0.020 C 
ATOM     26  C   UNL     1       1.606  -7.958   6.418  0.00  0.00    +0.105 C 
ENDBRANCH  21  22
BRANCH  18  27
ATOM     27  N   UNL     1      -0.078 -11.178   0.893  0.00  0.00    +0.056 N 
ATOM     28  O   UNL     1      -0.183 -10.571  -0.148  0.00  0.00    -0.126 OA
ATOM     29  O   UNL     1      -0.062 -12.387   0.888  0.00  0.00    -0.126 OA
ENDBRANCH  18  27
ENDBRANCH   2  16
TORSDOF 5
