REMARK  Name = ZINC09105157
REMARK  11 active torsions:
REMARK  status: ('A' for Active; 'I' for Inactive)
REMARK    1  A    between atoms: C_1  and  C_2
REMARK    2  A    between atoms: C_2  and  C_3
REMARK    3  A    between atoms: C_2  and  C_4
REMARK    4  A    between atoms: C_7  and  S_10
REMARK    5  A    between atoms: S_10  and  C_13
REMARK    6  A    between atoms: C_13  and  C_15
REMARK    7  A    between atoms: C_13  and  C_31
REMARK    8  A    between atoms: C_15  and  N_16
REMARK    9  A    between atoms: C_17  and  C_19
REMARK   10  A    between atoms: N_21  and  N_22
REMARK   11  A    between atoms: C_23  and  C_25
REMARK                            x       y       z     vdW  Elec       q    Type
REMARK                         _______ _______ _______ _____ _____    ______ ____
ROOT
ATOM      1  C   UNL     1       5.738  10.440   0.003  0.00  0.00    +0.136 C 
ENDROOT
BRANCH   1   2
ATOM      2  N   UNL     1       4.514   9.633   0.010  0.00  0.00    -0.305 N 
ATOM      3  C   UNL     1       4.594   8.288   0.003  0.00  0.00    +0.301 C 
ATOM      4  O   UNL     1       5.679   7.745  -0.010  0.00  0.00    -0.265 OA
ATOM      5  H   UNL     1       3.647  10.068   0.020  0.00  0.00    +0.149 HD
BRANCH   3   6
ATOM      6  C   UNL     1       3.347   7.465   0.010  0.00  0.00    +0.315 C 
ATOM      7  O   UNL     1       2.262   8.009   0.022  0.00  0.00    -0.264 OA
ATOM      8  N   UNL     1       3.426   6.120   0.002  0.00  0.00    -0.226 N 
ATOM      9  H   UNL     1       4.294   5.686  -0.008  0.00  0.00    +0.173 HD
BRANCH   8  10
ATOM     10  N   UNL     1       2.257   5.349   0.009  0.00  0.00    -0.230 N 
ATOM     11  C   UNL     1       2.337   4.003   0.001  0.00  0.00    +0.262 C 
ATOM     12  O   UNL     1       3.424   3.459  -0.011  0.00  0.00    -0.269 OA
ATOM     13  H   UNL     1       1.390   5.783   0.019  0.00  0.00    +0.173 HD
BRANCH  11  14
ATOM     14  C   UNL     1       1.103   3.189   0.008  0.00  0.00    +0.056 A 
ATOM     15  C   UNL     1       1.172   1.791   0.001  0.00  0.00    +0.016 A 
ATOM     16  C   UNL     1      -0.013   1.076   0.008  0.00  0.00    +0.020 A 
ATOM     17  C   UNL     1      -1.216   1.758   0.017  0.00  0.00    +0.111 A 
ATOM     18  N   UNL     1      -1.251   3.077   0.030  0.00  0.00    -0.263 NA
ATOM     19  C   UNL     1      -0.151   3.802   0.023  0.00  0.00    +0.123 A 
ENDBRANCH  11  14
ENDBRANCH   8  10
ENDBRANCH   3   6
ENDBRANCH   1   2
BRANCH   1  20
ATOM     20  C   UNL     1       5.369  11.925   0.014  0.00  0.00    +0.189 C 
BRANCH  20  21
ATOM     21  C   UNL     1       6.628  12.754   0.007  0.00  0.00    +0.016 A 
ATOM     22  C   UNL     1       7.056  13.663   0.917  0.00  0.00    +0.013 A 
ATOM     23  C   UNL     1       8.259  14.309   0.704  0.00  0.00    +0.008 A 
ATOM     24  C   UNL     1       8.970  14.023  -0.415  0.00  0.00    +0.045 A 
ATOM     25  S   UNL     1       7.937  12.801  -1.206  0.00  0.00    -0.100 S 
ENDBRANCH  20  21
BRANCH  20  26
ATOM     26  S   UNL     1       4.381  12.313  -1.456  0.00  0.00    +0.006 S 
ATOM     27  O   UNL     1       5.144  12.085  -2.633  0.00  0.00    -0.169 OA
ATOM     28  O   UNL     1       3.074  11.772  -1.324  0.00  0.00    -0.169 OA
BRANCH  26  32
ATOM     29  C   UNL     1       3.793  16.799  -1.311  0.00  0.00    -0.045 A 
ATOM     30  C   UNL     1       4.886  16.266  -1.968  0.00  0.00    +0.006 A 
ATOM     31  C   UNL     1       5.066  14.896  -2.012  0.00  0.00    +0.027 A 
ATOM     32  C   UNL     1       4.152  14.059  -1.400  0.00  0.00    +0.089 A 
ATOM     33  C   UNL     1       3.055  14.592  -0.748  0.00  0.00    +0.027 A 
ATOM     34  C   UNL     1       2.878  15.962  -0.700  0.00  0.00    +0.006 A 
BRANCH  29  36
ATOM     35  C   UNL     1       2.266  18.655  -1.922  0.00  0.00    +0.012 C 
ATOM     36  C   UNL     1       3.598  18.293  -1.262  0.00  0.00    +0.013 C 
ATOM     37  C   UNL     1       3.587  18.758   0.196  0.00  0.00    +0.012 C 
ENDBRANCH  29  36
ENDBRANCH  26  32
ENDBRANCH  20  26
ENDBRANCH   1  20
TORSDOF 9
