REMARK  Name = ZINC22916689
REMARK  9 active torsions:
REMARK  status: ('A' for Active; 'I' for Inactive)
REMARK    1  A    between atoms: C_4  and  C_7
REMARK    2  A    between atoms: C_7  and  C_8
REMARK    3  A    between atoms: C_7  and  N_14
REMARK    4  A    between atoms: N_17  and  C_20
REMARK    5  A    between atoms: C_20  and  C_21
REMARK    6  A    between atoms: C_21  and  C_23
REMARK    7  A    between atoms: C_21  and  O_32
REMARK    8  A    between atoms: C_23  and  O_24
REMARK    9  A    between atoms: O_24  and  C_25
REMARK                            x       y       z     vdW  Elec       q    Type
REMARK                         _______ _______ _______ _____ _____    ______ ____
ROOT
ATOM      1  N   UNL     1      -1.361  -0.087  -4.869  0.00  0.00    +0.389 N 
ATOM      2  C   UNL     1       0.009   0.442  -4.817  0.00  0.00    -0.062 C 
ATOM      3  C   UNL     1       0.657   0.042  -3.489  0.00  0.00    +0.066 C 
ATOM      4  N   UNL     1      -0.149   0.565  -2.377  0.00  0.00    -0.303 NA
ATOM      5  C   UNL     1      -1.519   0.035  -2.429  0.00  0.00    +0.066 C 
ATOM      6  C   UNL     1      -2.167   0.435  -3.757  0.00  0.00    -0.062 C 
ATOM      7  H   UNL     1      -1.307  -1.181  -4.765  0.00  0.00    -0.080 HD
ENDROOT
BRANCH   1   8
ATOM      8  C   UNL     1      -1.992   0.211  -6.162  0.00  0.00    -0.007 C 
BRANCH   8  12
ATOM      9  C   UNL     1       0.172  -1.741  -9.286  0.00  0.00    +0.000 A 
ATOM     10  C   UNL     1      -0.241  -0.431  -9.444  0.00  0.00    +0.000 A 
ATOM     11  C   UNL     1      -0.941   0.201  -8.434  0.00  0.00    +0.002 A 
ATOM     12  C   UNL     1      -1.229  -0.477  -7.264  0.00  0.00    -0.057 A 
ATOM     13  C   UNL     1      -0.811  -1.785  -7.103  0.00  0.00    +0.002 A 
ATOM     14  C   UNL     1      -0.116  -2.419  -8.116  0.00  0.00    +0.000 A 
ENDBRANCH   8  12
BRANCH   8  15
ATOM     15  C   UNL     1      -3.415  -0.283  -6.152  0.00  0.00    -0.057 A 
ATOM     16  C   UNL     1      -3.707  -1.543  -5.663  0.00  0.00    +0.002 A 
ATOM     17  C   UNL     1      -5.013  -1.994  -5.650  0.00  0.00    +0.000 A 
ATOM     18  C   UNL     1      -6.027  -1.189  -6.134  0.00  0.00    +0.000 A 
ATOM     19  C   UNL     1      -5.735   0.069  -6.628  0.00  0.00    +0.000 A 
ATOM     20  C   UNL     1      -4.429   0.522  -6.637  0.00  0.00    +0.002 A 
ENDBRANCH   8  15
ENDBRANCH   1   8
BRANCH   4  21
ATOM     21  C   UNL     1       0.482   0.266  -1.084  0.00  0.00    +0.119 C 
BRANCH  21  22
ATOM     22  C   UNL     1      -0.243   1.031   0.025  0.00  0.00    +0.166 C 
BRANCH  22  23
ATOM     23  O   UNL     1      -0.161   2.434  -0.232  0.00  0.00    -0.387 OA
ATOM     24  H   UNL     1      -0.628   3.148   0.463  0.00  0.00    +0.210 HD
ENDBRANCH  22  23
BRANCH  22  25
ATOM     25  C   UNL     1       0.414   0.720   1.372  0.00  0.00    +0.261 C 
BRANCH  25  26
ATOM     26  O   UNL     1      -0.332   1.340   2.421  0.00  0.00    -0.489 OA
BRANCH  26  27
ATOM     27  C   UNL     1       0.121   1.161   3.690  0.00  0.00    +0.121 A 
ATOM     28  C   UNL     1       1.257   0.399   3.921  0.00  0.00    +0.047 A 
ATOM     29  C   UNL     1       1.719   0.224   5.211  0.00  0.00    +0.019 A 
ATOM     30  C   UNL     1       1.043   0.797   6.273  0.00  0.00    +0.018 A 
ATOM     31  C   UNL     1      -0.094   1.552   6.045  0.00  0.00    +0.019 A 
ATOM     32  C   UNL     1      -0.556   1.735   4.756  0.00  0.00    +0.047 A 
ATOM     33 BR   UNL     1       1.673   0.549   8.038  0.00  0.00    -0.050 Br
ENDBRANCH  26  27
ENDBRANCH  25  26
ENDBRANCH  22  25
ENDBRANCH  21  22
ENDBRANCH   4  21
TORSDOF 9
