REMARK  Name = ZINC02332062
REMARK  6 active torsions:
REMARK  status: ('A' for Active; 'I' for Inactive)
REMARK    1  A    between atoms: C_6  and  C_7
REMARK    2  A    between atoms: C_7  and  O_8
REMARK    3  A    between atoms: O_8  and  C_9
REMARK    4  A    between atoms: C_12  and  C_16
REMARK    5  A    between atoms: C_13  and  O_15
REMARK    6  A    between atoms: C_17  and  C_23
REMARK                            x       y       z     vdW  Elec       q    Type
REMARK                         _______ _______ _______ _____ _____    ______ ____
ROOT
ATOM      1  C   UNL     1      -3.365   2.577   0.797  0.00  0.00    +0.124 A 
ATOM      2  C   UNL     1      -4.122   3.228  -0.170  0.00  0.00    +0.046 A 
ATOM      3  C   UNL     1      -5.208   3.992   0.198  0.00  0.00    +0.017 A 
ATOM      4  C   UNL     1      -5.543   4.123   1.546  0.00  0.00    +0.043 A 
ATOM      5  C   UNL     1      -4.777   3.471   2.520  0.00  0.00    +0.129 A 
ATOM      6  C   UNL     1      -3.691   2.701   2.139  0.00  0.00    +0.091 A 
ENDROOT
BRANCH   4   7
ATOM      7  C   UNL     1      -6.705   4.947   1.945  0.00  0.00    +0.087 A 
ATOM      8  C   UNL     1      -6.851   6.263   1.461  0.00  0.00    +0.026 A 
ATOM      9  C   UNL     1      -7.968   6.994   1.865  0.00  0.00    +0.125 A 
ATOM     10  N   UNL     1      -8.839   6.436   2.689  0.00  0.00    -0.222 NA
ATOM     11  C   UNL     1      -8.669   5.197   3.129  0.00  0.00    +0.213 A 
ATOM     12  N   UNL     1      -7.629   4.462   2.771  0.00  0.00    -0.214 NA
ATOM     13  N   UNL     1      -9.608   4.656   3.990  0.00  0.00    -0.327 N 
ATOM     14  H   UNL     1      -9.498   3.751   4.321  0.00  0.00    +0.145 HD
ATOM     15  H   UNL     1     -10.377   5.182   4.262  0.00  0.00    +0.145 HD
BRANCH   8  16
ATOM     16  C   UNL     1      -5.846   6.853   0.545  0.00  0.00    -0.014 A 
ATOM     17  C   UNL     1      -4.506   6.915   0.922  0.00  0.00    +0.010 A 
ATOM     18  C   UNL     1      -3.574   7.461   0.063  0.00  0.00    +0.016 A 
ATOM     19  C   UNL     1      -3.970   7.956  -1.168  0.00  0.00    +0.018 A 
ATOM     20  C   UNL     1      -5.301   7.902  -1.545  0.00  0.00    +0.016 A 
ATOM     21  C   UNL     1      -6.240   7.353  -0.696  0.00  0.00    +0.010 A 
ATOM     22 BR   UNL     1      -2.689   8.709  -2.337  0.00  0.00    -0.050 Br
ENDBRANCH   8  16
ENDBRANCH   4   7
BRANCH   5  23
ATOM     23  O   UNL     1      -5.098   3.594   3.834  0.00  0.00    -0.506 OA
ATOM     24  H   UNL     1      -4.667   4.338   4.276  0.00  0.00    +0.292 HD
ENDBRANCH   5  23
BRANCH   1  25
ATOM     25  O   UNL     1      -2.299   1.821   0.427  0.00  0.00    -0.487 OA
BRANCH  25  26
ATOM     26  C   UNL     1      -2.019   1.736  -0.972  0.00  0.00    +0.264 C 
BRANCH  26  32
ATOM     27  C   UNL     1       0.452   1.423  -1.212  0.00  0.00    +0.010 A 
ATOM     28  C   UNL     1       1.560   0.623  -1.417  0.00  0.00    +0.039 A 
ATOM     29  C   UNL     1       1.405  -0.741  -1.601  0.00  0.00    +0.123 A 
ATOM     30  C   UNL     1       0.139  -1.301  -1.579  0.00  0.00    +0.039 A 
ATOM     31  C   UNL     1      -0.968  -0.500  -1.373  0.00  0.00    +0.010 A 
ATOM     32  C   UNL     1      -0.811   0.862  -1.190  0.00  0.00    -0.010 A 
ATOM     33  F   UNL     1       2.487  -1.524  -1.802  0.00  0.00    -0.205 F 
ENDBRANCH  26  32
ENDBRANCH  25  26
ENDBRANCH   1  25
TORSDOF 6
