REMARK  Name = ZINC01129283
REMARK  6 active torsions:
REMARK  status: ('A' for Active; 'I' for Inactive)
REMARK    1  A    between atoms: N_9  and  S_10
REMARK    2  A    between atoms: S_10  and  C_13
REMARK    3  A    between atoms: C_16  and  N_19
REMARK    4  A    between atoms: N_19  and  C_20
REMARK    5  A    between atoms: C_20  and  N_22
REMARK    6  A    between atoms: C_23  and  C_25
REMARK                            x       y       z     vdW  Elec       q    Type
REMARK                         _______ _______ _______ _____ _____    ______ ____
ROOT
ATOM      1  C   UNL     1       1.180  -0.681  -0.032  0.00  0.00    +0.109 A 
ATOM      2  C   UNL     1       0.011   0.001   0.253  0.00  0.00    +0.030 A 
ATOM      3  C   UNL     1       0.002   1.382   0.268  0.00  0.00    +0.025 A 
ATOM      4  C   UNL     1       1.168   2.086  -0.004  0.00  0.00    +0.033 A 
ATOM      5  C   UNL     1       2.340   1.398  -0.290  0.00  0.00    +0.025 A 
ATOM      6  C   UNL     1       2.343   0.017  -0.304  0.00  0.00    +0.030 A 
ENDROOT
BRANCH   1   7
ATOM      7  S   UNL     1       1.188  -2.443  -0.051  0.00  0.00    +0.075 S 
ATOM      8  O   UNL     1       2.528  -2.846   0.192  0.00  0.00    -0.150 OA
ATOM      9  O   UNL     1       0.106  -2.862   0.770  0.00  0.00    -0.150 OA
BRANCH   7  18
ATOM     10  C   UNL     1      -2.843  -3.722  -3.398  0.00  0.00    +0.000 A 
ATOM     11  C   UNL     1      -2.867  -3.338  -2.070  0.00  0.00    +0.002 A 
ATOM     12  C   UNL     1      -1.691  -3.056  -1.408  0.00  0.00    +0.025 A 
ATOM     13  C   UNL     1      -0.467  -3.160  -2.072  0.00  0.00    +0.054 A 
ATOM     14  C   UNL     1      -0.455  -3.541  -3.405  0.00  0.00    -0.023 A 
ATOM     15  C   UNL     1      -1.636  -3.823  -4.064  0.00  0.00    +0.005 A 
ATOM     16  C   UNL     1       0.979  -3.570  -3.884  0.00  0.00    +0.058 C 
ATOM     17  C   UNL     1       1.805  -3.151  -2.656  0.00  0.00    +0.136 C 
ATOM     18  N   UNL     1       0.822  -2.918  -1.594  0.00  0.00    -0.202 N 
ENDBRANCH   7  18
ENDBRANCH   1   7
BRANCH   4  19
ATOM     19  N   UNL     1       1.162   3.485   0.009  0.00  0.00    -0.297 N 
ATOM     20  H   UNL     1       1.638   3.978  -0.676  0.00  0.00    +0.154 HD
BRANCH  19  21
ATOM     21  C   UNL     1       0.494   4.146   0.975  0.00  0.00    +0.141 C 
ATOM     22  S   UNL     1      -0.227   3.280   2.264  0.00  0.00    -0.018 S 
BRANCH  21  23
ATOM     23  N   UNL     1       0.394   5.489   0.926  0.00  0.00    -0.261 N 
ATOM     24  C   UNL     1      -0.274   6.151   1.892  0.00  0.00    +0.285 C 
ATOM     25  O   UNL     1      -0.787   5.536   2.808  0.00  0.00    -0.266 OA
ATOM     26  H   UNL     1       0.803   5.980   0.196  0.00  0.00    +0.157 HD
BRANCH  24  27
ATOM     27  C   UNL     1      -0.383   7.611   1.839  0.00  0.00    +0.191 A 
ATOM     28  C   UNL     1      -1.032   8.401   2.745  0.00  0.00    +0.056 A 
ATOM     29  C   UNL     1      -0.881   9.725   2.308  0.00  0.00    +0.058 A 
ATOM     30  C   UNL     1      -0.161   9.686   1.162  0.00  0.00    +0.171 A 
ATOM     31  O   UNL     1       0.137   8.410   0.883  0.00  0.00    -0.444 OA
ATOM     32 BR   UNL     1       0.340  11.186   0.125  0.00  0.00    -0.008 Br
ENDBRANCH  24  27
ENDBRANCH  21  23
ENDBRANCH  19  21
ENDBRANCH   4  19
TORSDOF 6
