REMARK  Name = ZINC13265022
REMARK  8 active torsions:
REMARK  status: ('A' for Active; 'I' for Inactive)
REMARK    1  A    between atoms: C_1  and  C_2
REMARK    2  A    between atoms: C_5  and  C_30
REMARK    3  A    between atoms: N_6  and  C_7
REMARK    4  A    between atoms: C_10  and  C_13
REMARK    5  A    between atoms: N_15  and  N_16
REMARK    6  A    between atoms: N_16  and  S_17
REMARK    7  A    between atoms: S_17  and  C_20
REMARK    8  A    between atoms: C_22  and  C_28
REMARK                            x       y       z     vdW  Elec       q    Type
REMARK                         _______ _______ _______ _____ _____    ______ ____
ROOT
ATOM      1  C   UNL     1       5.069   2.370   2.338  0.00  0.00    +0.259 C 
ATOM      2  O   UNL     1       5.827   3.316   2.436  0.00  0.00    -0.269 OA
ATOM      3  N   UNL     1       3.822   2.552   1.860  0.00  0.00    -0.228 N 
ATOM      4  H   UNL     1       3.218   1.797   1.782  0.00  0.00    +0.171 HD
ENDROOT
BRANCH   1   8
ATOM      5  C   UNL     1       6.353  -1.508   3.502  0.00  0.00    +0.047 A 
ATOM      6  C   UNL     1       7.221  -0.427   3.615  0.00  0.00    +0.027 A 
ATOM      7  C   UNL     1       6.808   0.832   3.238  0.00  0.00    +0.015 A 
ATOM      8  C   UNL     1       5.516   1.022   2.743  0.00  0.00    +0.038 A 
ATOM      9  C   UNL     1       4.645  -0.065   2.637  0.00  0.00    +0.015 A 
ATOM     10  C   UNL     1       5.066  -1.322   3.010  0.00  0.00    +0.027 A 
BRANCH   5  16
ATOM     11  C   UNL     1       8.585  -3.074   2.099  0.00  0.00    +0.064 C 
ATOM     12  C   UNL     1       7.765  -3.510   3.285  0.00  0.00    +0.021 A 
ATOM     13  C   UNL     1       7.883  -4.683   3.940  0.00  0.00    +0.023 A 
ATOM     14  C   UNL     1       6.927  -4.688   4.976  0.00  0.00    +0.023 A 
ATOM     15  C   UNL     1       6.264  -3.515   4.921  0.00  0.00    +0.021 A 
ATOM     16  N   UNL     1       6.776  -2.784   3.886  0.00  0.00    -0.318 N 
ATOM     17  C   UNL     1       5.150  -3.086   5.841  0.00  0.00    +0.064 C 
ENDBRANCH   5  16
ENDBRANCH   1   8
BRANCH   3  18
ATOM     18  N   UNL     1       3.399   3.831   1.476  0.00  0.00    -0.108 NA
ATOM     19  H   UNL     1       3.450   4.567   2.105  0.00  0.00    +0.172 HD
BRANCH  18  20
ATOM     20  S   UNL     1       2.812   4.084  -0.051  0.00  0.00    +0.075 S 
ATOM     21  O   UNL     1       3.817   3.641  -0.952  0.00  0.00    -0.152 OA
ATOM     22  O   UNL     1       2.299   5.410  -0.074  0.00  0.00    -0.152 OA
BRANCH  20  23
ATOM     23  C   UNL     1       1.434   3.008  -0.265  0.00  0.00    +0.126 A 
ATOM     24  C   UNL     1       1.486   2.002  -1.207  0.00  0.00    +0.046 A 
ATOM     25  C   UNL     1       0.393   1.149  -1.376  0.00  0.00    +0.083 A 
ATOM     26  C   UNL     1      -0.746   1.317  -0.582  0.00  0.00    +0.057 A 
ATOM     27  C   UNL     1      -0.787   2.331   0.353  0.00  0.00    +0.042 A 
ATOM     28  C   UNL     1       0.300   3.173   0.514  0.00  0.00    +0.069 A 
ATOM     29 CL   UNL     1       0.243   4.441   1.698  0.00  0.00    -0.081 Cl
ATOM     30 CL   UNL     1      -2.107   0.257  -0.778  0.00  0.00    -0.083 Cl
BRANCH  25  31
ATOM     31  C   UNL     1       0.443   0.071  -2.382  0.00  0.00    +0.388 C 
ATOM     32  O   UNL     1      -0.509  -0.670  -2.527  0.00  0.00    -0.241 OA
ATOM     33  O   UNL     1       1.544  -0.092  -3.142  0.00  0.00    -0.241 OA
ENDBRANCH  25  31
ENDBRANCH  20  23
ENDBRANCH  18  20
ENDBRANCH   3  18
TORSDOF 6
