REMARK  Name = ZINC00663242
REMARK  5 active torsions:
REMARK  status: ('A' for Active; 'I' for Inactive)
REMARK    1  A    between atoms: C_4  and  O_25
REMARK    2  A    between atoms: C_5  and  N_7
REMARK    3  A    between atoms: C_8  and  C_10
REMARK    4  A    between atoms: C_11  and  N_24
REMARK    5  A    between atoms: O_25  and  C_26
REMARK                            x       y       z     vdW  Elec       q    Type
REMARK                         _______ _______ _______ _____ _____    ______ ____
ROOT
ATOM      1  C   UNL     1       2.371   0.723   0.062  0.00  0.00    +0.097 A 
ATOM      2  C   UNL     1       3.691   1.117   0.043  0.00  0.00    +0.053 A 
ATOM      3  C   UNL     1       4.718   0.093   0.149  0.00  0.00    +0.029 A 
ATOM      4  C   UNL     1       6.127   0.251   0.158  0.00  0.00    +0.017 A 
ATOM      5  C   UNL     1       6.918  -0.872   0.257  0.00  0.00    -0.025 A 
ATOM      6  C   UNL     1       6.352  -2.123   0.345  0.00  0.00    +0.046 A 
ATOM      7  N   UNL     1       5.039  -2.272   0.340  0.00  0.00    -0.244 NA
ATOM      8  C   UNL     1       4.237  -1.232   0.247  0.00  0.00    +0.111 A 
ATOM      9  S   UNL     1       2.471  -1.050   0.208  0.00  0.00    -0.062 S 
ATOM     10  C   UNL     1       7.235  -3.351   0.447  0.00  0.00    +0.056 C 
ATOM     11  C   UNL     1       7.892  -3.362   1.829  0.00  0.00    +0.006 C 
ATOM     12  C   UNL     1       9.162  -2.535   1.832  0.00  0.00    +0.001 C 
ATOM     13  C   UNL     1       8.940  -1.045   1.667  0.00  0.00    +0.005 C 
ATOM     14  C   UNL     1       8.425  -0.719   0.263  0.00  0.00    +0.037 C 
ENDROOT
BRANCH   1  16
ATOM     15  N   UNL     1      -0.011   0.966   0.007  0.00  0.00    -0.278 N 
ATOM     16  C   UNL     1       1.211   1.534  -0.021  0.00  0.00    +0.257 C 
ATOM     17  O   UNL     1       1.319   2.743  -0.119  0.00  0.00    -0.269 OA
ATOM     18  H   UNL     1      -0.097  -0.000   0.020  0.00  0.00    +0.155 HD
BRANCH  15  23
ATOM     19  C   UNL     1      -2.304   3.758  -0.684  0.00  0.00    +0.002 A 
ATOM     20  C   UNL     1      -3.424   3.364   0.025  0.00  0.00    +0.004 A 
ATOM     21  C   UNL     1      -3.416   2.175   0.730  0.00  0.00    +0.048 A 
ATOM     22  C   UNL     1      -2.285   1.374   0.728  0.00  0.00    +0.151 A 
ATOM     23  C   UNL     1      -1.157   1.771   0.013  0.00  0.00    +0.076 A 
ATOM     24  C   UNL     1      -1.170   2.968  -0.687  0.00  0.00    +0.027 A 
BRANCH  22  25
ATOM     25  O   UNL     1      -2.277   0.205   1.422  0.00  0.00    -0.404 OA
BRANCH  25  26
ATOM     26  C   UNL     1      -3.469  -0.138   2.131  0.00  0.00    +0.575 C 
ATOM     27  F   UNL     1      -4.534  -0.243   1.230  0.00  0.00    -0.133 F 
ATOM     28  F   UNL     1      -3.288  -1.362   2.784  0.00  0.00    -0.133 F 
ATOM     29  F   UNL     1      -3.753   0.856   3.074  0.00  0.00    -0.133 F 
ENDBRANCH  25  26
ENDBRANCH  22  25
ENDBRANCH  15  23
ENDBRANCH   1  16
BRANCH   2  30
ATOM     30  N   UNL     1       4.031   2.458  -0.069  0.00  0.00    -0.356 N 
ATOM     31  H   UNL     1       3.336   3.131  -0.135  0.00  0.00    +0.142 HD
ATOM     32  H   UNL     1       4.965   2.722  -0.081  0.00  0.00    +0.142 HD
ENDBRANCH   2  30
TORSDOF 5
