REMARK  Name = ZINC34923748
REMARK  12 active torsions:
REMARK  status: ('A' for Active; 'I' for Inactive)
REMARK    1  A    between atoms: C_1  and  C_2
REMARK    2  A    between atoms: C_4  and  C_35
REMARK    3  A    between atoms: C_6  and  N_8
REMARK    4  A    between atoms: N_8  and  C_9
REMARK    5  A    between atoms: C_11  and  C_12
REMARK    6  A    between atoms: C_17  and  C_34
REMARK    7  A    between atoms: C_18  and  C_30
REMARK    8  A    between atoms: C_19  and  C_22
REMARK    9  A    between atoms: C_27  and  O_28
REMARK   10  A    between atoms: O_28  and  C_29
REMARK   11  A    between atoms: C_30  and  O_32
REMARK   12  A    between atoms: O_32  and  C_33
REMARK                            x       y       z     vdW  Elec       q    Type
REMARK                         _______ _______ _______ _____ _____    ______ ____
ROOT
ATOM      1  C   UNL     1      -0.663  -2.004   6.257  0.00  0.00    +0.048 C 
ATOM      2  C   UNL     1      -0.538  -2.538   7.492  0.00  0.00    +0.072 C 
ATOM      3  S   UNL     1      -0.776  -1.112   8.535  0.00  0.00    -0.060 S 
ATOM      4  C   UNL     1      -1.014   0.043   7.341  0.00  0.00    +0.166 C 
ATOM      5  N   UNL     1      -1.248   1.337   7.413  0.00  0.00    -0.230 NA
ATOM      6  C   UNL     1      -1.417   2.133   6.370  0.00  0.00    +0.053 C 
ATOM      7  C   UNL     1      -1.353   1.628   5.086  0.00  0.00    +0.083 C 
ATOM      8  C   UNL     1      -1.086   0.148   4.923  0.00  0.00    +0.153 C 
ATOM      9  N   UNL     1      -0.908  -0.648   6.166  0.00  0.00    -0.267 N 
ATOM     10  C   UNL     1      -1.681   3.602   6.584  0.00  0.00    +0.066 C 
ENDROOT
BRANCH   8  11
ATOM     11  C   UNL     1      -2.232  -0.447   4.147  0.00  0.00    +0.020 A 
ATOM     12  C   UNL     1      -2.073  -0.761   2.811  0.00  0.00    +0.009 A 
ATOM     13  C   UNL     1      -3.124  -1.307   2.098  0.00  0.00    +0.001 A 
ATOM     14  C   UNL     1      -4.337  -1.540   2.720  0.00  0.00    +0.004 A 
ATOM     15  C   UNL     1      -4.501  -1.228   4.055  0.00  0.00    +0.046 A 
ATOM     16  C   UNL     1      -3.446  -0.685   4.774  0.00  0.00    +0.125 A 
BRANCH  16  17
ATOM     17  O   UNL     1      -3.603  -0.383   6.090  0.00  0.00    -0.495 OA
ATOM     18  C   UNL     1      -4.844  -0.750   6.696  0.00  0.00    +0.277 C 
ENDBRANCH  16  17
ENDBRANCH   8  11
BRANCH   1  21
ATOM     19  C   UNL     1      -0.385  -4.170   5.168  0.00  0.00    +0.243 C 
ATOM     20  O   UNL     1      -0.246  -4.732   6.393  0.00  0.00    -0.270 OA
ATOM     21  C   UNL     1      -0.537  -2.837   5.052  0.00  0.00    +0.091 C 
BRANCH  19  22
ATOM     22  N   UNL     1      -0.372  -4.967   4.035  0.00  0.00    -0.282 N 
ATOM     23  H   UNL     1      -0.384  -4.559   3.155  0.00  0.00    +0.155 HD
BRANCH  22  29
ATOM     24  C   UNL     1      -1.659  -9.024   6.493  0.00  0.00    +0.044 C 
ATOM     25  C   UNL     1      -0.957  -8.352   5.341  0.00  0.00    -0.048 A 
ATOM     26  C   UNL     1      -0.281  -9.113   4.405  0.00  0.00    +0.006 A 
ATOM     27  C   UNL     1       0.365  -8.501   3.347  0.00  0.00    -0.048 A 
ATOM     28  C   UNL     1       0.337  -7.126   3.221  0.00  0.00    +0.026 A 
ATOM     29  C   UNL     1      -0.342  -6.358   4.159  0.00  0.00    +0.034 A 
ATOM     30  C   UNL     1      -0.994  -6.977   5.218  0.00  0.00    +0.026 A 
ATOM     31  C   UNL     1       1.101  -9.335   2.330  0.00  0.00    +0.044 C 
ENDBRANCH  22  29
ENDBRANCH  19  22
ENDBRANCH   1  21
BRANCH   7  32
ATOM     32  C   UNL     1      -1.530   2.458   3.972  0.00  0.00    +0.339 C 
ATOM     33  O   UNL     1      -1.661   3.660   4.123  0.00  0.00    -0.245 OA
BRANCH  32  34
ATOM     34  O   UNL     1      -1.554   1.926   2.730  0.00  0.00    -0.465 OA
ATOM     35  C   UNL     1      -1.625   2.840   1.634  0.00  0.00    +0.280 C 
ENDBRANCH  32  34
ENDBRANCH   7  32
TORSDOF 7
