REMARK  Name = ZINC44040075
REMARK  7 active torsions:
REMARK  status: ('A' for Active; 'I' for Inactive)
REMARK    1  A    between atoms: C_1  and  C_2
REMARK    2  A    between atoms: C_2  and  C_3
REMARK    3  A    between atoms: C_2  and  C_4
REMARK    4  A    between atoms: C_4  and  C_6
REMARK    5  A    between atoms: C_4  and  N_16
REMARK    6  A    between atoms: N_19  and  C_20
REMARK    7  A    between atoms: C_23  and  N_26
REMARK                            x       y       z     vdW  Elec       q    Type
REMARK                         _______ _______ _______ _____ _____    ______ ____
ROOT
ATOM      1  N   UNL     1      -2.018   0.114   1.197  0.00  0.00    -0.292 N 
ATOM      2  C   UNL     1      -1.936  -0.456   2.416  0.00  0.00    +0.304 C 
ATOM      3  O   UNL     1      -1.143  -1.357   2.612  0.00  0.00    -0.252 OA
ATOM      4  N   UNL     1      -2.731  -0.027   3.416  0.00  0.00    -0.269 N 
ATOM      5  H   UNL     1      -2.650   0.833   1.040  0.00  0.00    +0.151 HD
ATOM      6  H   UNL     1      -3.307   0.741   3.281  0.00  0.00    +0.156 HD
ENDROOT
BRANCH   4   7
ATOM      7  C   UNL     1      -2.725  -0.692   4.648  0.00  0.00    +0.035 A 
ATOM      8  C   UNL     1      -2.933   0.021   5.822  0.00  0.00    +0.025 A 
ATOM      9  C   UNL     1      -2.928  -0.634   7.037  0.00  0.00    +0.029 A 
ATOM     10  C   UNL     1      -2.715  -2.005   7.086  0.00  0.00    +0.067 A 
ATOM     11  C   UNL     1      -2.507  -2.717   5.913  0.00  0.00    +0.029 A 
ATOM     12  C   UNL     1      -2.517  -2.064   4.697  0.00  0.00    +0.025 A 
BRANCH  10  13
ATOM     13  N   UNL     1      -2.710  -2.670   8.321  0.00  0.00    -0.220 N 
ATOM     14  C   UNL     1      -2.513  -3.987   8.528  0.00  0.00    +0.225 A 
ATOM     15  N   UNL     1      -2.584  -4.209   9.816  0.00  0.00    -0.222 NA
ATOM     16  C   UNL     1      -2.823  -3.067  10.460  0.00  0.00    +0.245 A 
ATOM     17  N   UNL     1      -2.903  -2.096   9.588  0.00  0.00    -0.154 NA
ENDBRANCH  10  13
ENDBRANCH   4   7
BRANCH   1  18
ATOM     18  C   UNL     1      -1.154  -0.352   0.110  0.00  0.00    +0.107 C 
BRANCH  18  19
ATOM     19  C   UNL     1      -1.804  -0.047  -1.215  0.00  0.00    -0.023 A 
ATOM     20  C   UNL     1      -2.461   1.155  -1.401  0.00  0.00    +0.009 A 
ATOM     21  C   UNL     1      -3.060   1.437  -2.614  0.00  0.00    +0.050 A 
ATOM     22  C   UNL     1      -3.003   0.515  -3.648  0.00  0.00    +0.162 A 
ATOM     23  C   UNL     1      -2.341  -0.693  -3.462  0.00  0.00    +0.162 A 
ATOM     24  C   UNL     1      -1.738  -0.968  -2.243  0.00  0.00    +0.055 A 
ATOM     25  O   UNL     1      -2.267  -1.609  -4.466  0.00  0.00    -0.485 OA
ATOM     26  C   UNL     1      -3.193  -1.455  -5.547  0.00  0.00    +0.270 C 
ATOM     27  C   UNL     1      -3.202   0.021  -5.966  0.00  0.00    +0.270 C 
ATOM     28  O   UNL     1      -3.601   0.805  -4.836  0.00  0.00    -0.485 OA
ENDBRANCH  18  19
BRANCH  18  30
ATOM     29  C   UNL     1      -0.025   1.876   0.188  0.00  0.00    +0.009 C 
ATOM     30  C   UNL     1       0.197   0.362   0.191  0.00  0.00    +0.008 C 
ATOM     31  C   UNL     1       0.913  -0.045   1.481  0.00  0.00    +0.009 C 
ENDBRANCH  18  30
ENDBRANCH   1  18
TORSDOF 5
