REMARK  Name = ZINC00921957
REMARK  11 active torsions:
REMARK  status: ('A' for Active; 'I' for Inactive)
REMARK    1  A    between atoms: C_1  and  O_2
REMARK    2  A    between atoms: O_2  and  C_3
REMARK    3  A    between atoms: C_6  and  C_11
REMARK    4  A    between atoms: C_8  and  O_9
REMARK    5  A    between atoms: O_9  and  C_10
REMARK    6  A    between atoms: C_11  and  C_13
REMARK    7  A    between atoms: C_11  and  N_22
REMARK    8  A    between atoms: N_15  and  C_16
REMARK    9  A    between atoms: N_22  and  C_23
REMARK   10  A    between atoms: C_32  and  C_34
REMARK   11  A    between atoms: C_34  and  C_35
REMARK                            x       y       z     vdW  Elec       q    Type
REMARK                         _______ _______ _______ _____ _____    ______ ____
ROOT
ATOM      1  C   UNL     1       2.692  -2.285  -4.344  0.00  0.00    +0.197 C 
ENDROOT
BRANCH   1   5
ATOM      2  C   UNL     1       1.358   0.246  -1.165  0.00  0.00    +0.162 A 
ATOM      3  C   UNL     1       1.996   0.791  -2.267  0.00  0.00    +0.050 A 
ATOM      4  C   UNL     1       2.426  -0.029  -3.293  0.00  0.00    +0.010 A 
ATOM      5  C   UNL     1       2.221  -1.395  -3.222  0.00  0.00    -0.014 A 
ATOM      6  C   UNL     1       1.585  -1.946  -2.125  0.00  0.00    +0.055 A 
ATOM      7  C   UNL     1       1.157  -1.129  -1.091  0.00  0.00    +0.162 A 
BRANCH   2   9
ATOM      8  C   UNL     1       1.175   2.453  -0.298  0.00  0.00    +0.277 C 
ATOM      9  O   UNL     1       0.935   1.052  -0.154  0.00  0.00    -0.491 OA
ENDBRANCH   2   9
BRANCH   7  10
ATOM     10  O   UNL     1       0.537  -1.670  -0.008  0.00  0.00    -0.491 OA
ATOM     11  C   UNL     1       0.365  -3.088  -0.000  0.00  0.00    +0.277 C 
ENDBRANCH   7  10
ENDBRANCH   1   5
BRANCH   1  12
ATOM     12  C   UNL     1       4.192  -2.197  -4.459  0.00  0.00    +0.239 C 
ATOM     13  O   UNL     1       4.699  -1.810  -5.491  0.00  0.00    -0.273 OA
ATOM     14  N   UNL     1       4.970  -2.548  -3.417  0.00  0.00    -0.311 N 
ATOM     15  H   UNL     1       4.564  -2.858  -2.591  0.00  0.00    +0.149 HD
BRANCH  14  16
ATOM     16  C   UNL     1       6.428  -2.462  -3.529  0.00  0.00    +0.073 C 
ATOM     17  C   UNL     1       6.966  -3.742  -4.173  0.00  0.00    +0.022 C 
ATOM     18  C   UNL     1       8.489  -3.652  -4.290  0.00  0.00    +0.002 C 
ATOM     19  C   UNL     1       9.099  -3.487  -2.897  0.00  0.00    +0.000 C 
ATOM     20  C   UNL     1       8.561  -2.207  -2.253  0.00  0.00    +0.002 C 
ATOM     21  C   UNL     1       7.038  -2.297  -2.136  0.00  0.00    +0.022 C 
ENDBRANCH  14  16
ENDBRANCH   1  12
BRANCH   1  22
ATOM     22  N   UNL     1       2.079  -1.851  -5.601  0.00  0.00    -0.255 N 
ATOM     23  C   UNL     1       2.244  -2.584  -6.720  0.00  0.00    +0.226 C 
ATOM     24  O   UNL     1       2.973  -3.554  -6.707  0.00  0.00    -0.275 OA
BRANCH  22  25
ATOM     25  C   UNL     1       1.320  -0.674  -5.641  0.00  0.00    +0.041 A 
ATOM     26  C   UNL     1       1.776   0.422  -6.361  0.00  0.00    +0.027 A 
ATOM     27  C   UNL     1       1.029   1.583  -6.402  0.00  0.00    +0.051 A 
ATOM     28  C   UNL     1      -0.178   1.658  -5.725  0.00  0.00    +0.166 A 
ATOM     29  C   UNL     1      -0.639   0.560  -5.003  0.00  0.00    +0.168 A 
ATOM     30  C   UNL     1       0.109  -0.606  -4.966  0.00  0.00    +0.073 A 
ATOM     31  O   UNL     1      -1.837   0.883  -4.434  0.00  0.00    -0.453 OA
ATOM     32  C   UNL     1      -1.907   2.320  -4.477  0.00  0.00    +0.466 C 
ATOM     33  O   UNL     1      -1.088   2.669  -5.608  0.00  0.00    -0.453 OA
ENDBRANCH  22  25
BRANCH  23  34
ATOM     34  C   UNL     1       1.525  -2.199  -7.987  0.00  0.00    +0.138 C 
BRANCH  34  35
ATOM     35  C   UNL     1       1.769  -3.248  -9.042  0.00  0.00    -0.001 A 
ATOM     36  C   UNL     1       1.052  -4.364  -9.318  0.00  0.00    +0.011 A 
ATOM     37  C   UNL     1       1.467  -5.191 -10.345  0.00  0.00    +0.008 A 
ATOM     38  C   UNL     1       2.580  -4.861 -11.045  0.00  0.00    +0.045 A 
ATOM     39  S   UNL     1       3.074  -3.337 -10.257  0.00  0.00    -0.101 S 
ENDBRANCH  34  35
ENDBRANCH  23  34
ENDBRANCH   1  22
TORSDOF 9
