REMARK  Name = ZINC33306568
REMARK  9 active torsions:
REMARK  status: ('A' for Active; 'I' for Inactive)
REMARK    1  A    between atoms: C_1  and  C_2
REMARK    2  A    between atoms: C_2  and  C_3
REMARK    3  A    between atoms: N_5  and  C_6
REMARK    4  A    between atoms: C_7  and  C_30
REMARK    5  A    between atoms: C_10  and  C_11
REMARK    6  A    between atoms: C_12  and  C_13
REMARK    7  A    between atoms: C_16  and  S_18
REMARK    8  A    between atoms: S_18  and  N_21
REMARK    9  A    between atoms: N_21  and  C_22
REMARK                            x       y       z     vdW  Elec       q    Type
REMARK                         _______ _______ _______ _____ _____    ______ ____
ROOT
ATOM      1  C   UNL     1      -5.262   5.100   0.714  0.00  0.00    +0.014 A 
ATOM      2  C   UNL     1      -6.541   5.610   0.875  0.00  0.00    +0.017 A 
ATOM      3  C   UNL     1      -6.676   6.931   1.230  0.00  0.00    +0.037 A 
ATOM      4  C   UNL     1      -5.563   7.692   1.399  0.00  0.00    +0.148 A 
ATOM      5  S   UNL     1      -4.251   6.530   1.061  0.00  0.00    -0.069 S 
ENDROOT
BRANCH   4   6
ATOM      6  S   UNL     1      -5.444   9.394   1.840  0.00  0.00    +0.098 S 
ATOM      7  O   UNL     1      -4.189   9.852   1.357  0.00  0.00    -0.148 OA
ATOM      8  O   UNL     1      -6.673   9.998   1.461  0.00  0.00    -0.148 OA
BRANCH   6   9
ATOM      9  N   UNL     1      -5.371   9.468   3.493  0.00  0.00    -0.096 NA
BRANCH   9  10
ATOM     10  C   UNL     1      -4.322   8.842   4.175  0.00  0.00    +0.093 A 
ATOM     11  C   UNL     1      -3.054   8.798   3.611  0.00  0.00    +0.031 A 
ATOM     12  C   UNL     1      -2.020   8.179   4.286  0.00  0.00    +0.040 A 
ATOM     13  C   UNL     1      -2.246   7.604   5.525  0.00  0.00    +0.125 A 
ATOM     14  C   UNL     1      -3.509   7.646   6.090  0.00  0.00    +0.060 A 
ATOM     15  C   UNL     1      -4.546   8.269   5.421  0.00  0.00    +0.068 A 
ATOM     16 CL   UNL     1      -6.128   8.328   6.133  0.00  0.00    -0.081 Cl
ATOM     17  F   UNL     1      -1.233   6.999   6.184  0.00  0.00    -0.205 F 
ENDBRANCH   9  10
ENDBRANCH   6   9
ENDBRANCH   4   6
BRANCH   1  19
ATOM     18  C   UNL     1      -3.534   3.445   0.236  0.00  0.00    +0.052 C 
ATOM     19  C   UNL     1      -4.849   3.745   0.348  0.00  0.00    +0.019 C 
BRANCH  18  24
ATOM     20  C   UNL     1      -1.822   1.644  -0.280  0.00  0.00    +0.103 A 
ATOM     21  C   UNL     1      -1.879   0.287  -0.638  0.00  0.00    +0.102 A 
ATOM     22  N   UNL     1      -3.132  -0.072  -0.694  0.00  0.00    -0.081 NA
ATOM     23  O   UNL     1      -3.938   1.047  -0.380  0.00  0.00    -0.353 OA
ATOM     24  C   UNL     1      -3.122   2.092  -0.129  0.00  0.00    +0.182 A 
ATOM     25  C   UNL     1      -0.694  -0.604  -0.909  0.00  0.00    +0.071 C 
BRANCH  20  28
ATOM     26  C   UNL     1       0.475   1.823   0.329  0.00  0.00    +0.217 C 
ATOM     27  O   UNL     1       0.465   0.656   0.660  0.00  0.00    -0.275 OA
ATOM     28  N   UNL     1      -0.657   2.408  -0.111  0.00  0.00    -0.281 N 
ATOM     29  H   UNL     1      -0.668   3.484  -0.337  0.00  0.00    +0.155 HD
BRANCH  26  31
ATOM     30  C   UNL     1       2.880   1.722   0.923  0.00  0.00    +0.013 C 
ATOM     31  C   UNL     1       1.754   2.617   0.402  0.00  0.00    +0.093 C 
ENDBRANCH  26  31
ENDBRANCH  20  28
ENDBRANCH  18  24
ENDBRANCH   1  19
TORSDOF 7
