REMARK  Name = ZINC13124387
REMARK  6 active torsions:
REMARK  status: ('A' for Active; 'I' for Inactive)
REMARK    1  A    between atoms: C_1  and  C_2
REMARK    2  A    between atoms: C_5  and  N_9
REMARK    3  A    between atoms: C_6  and  C_8
REMARK    4  A    between atoms: C_10  and  C_30
REMARK    5  A    between atoms: C_12  and  C_15
REMARK    6  A    between atoms: C_13  and  C_14
REMARK                            x       y       z     vdW  Elec       q    Type
REMARK                         _______ _______ _______ _____ _____    ______ ____
ROOT
ATOM      1  C   UNL     1       1.698  -7.449  -0.038  0.00  0.00    +0.211 C 
ATOM      2  N   UNL     1       0.990  -8.612  -0.601  0.00  0.00    -0.293 N 
ATOM      3  C   UNL     1       0.148  -9.347   0.192  0.00  0.00    +0.183 C 
ATOM      4  N   UNL     1       0.353  -9.459   1.493  0.00  0.00    -0.183 NA
ATOM      5  C   UNL     1       1.385  -8.780   2.045  0.00  0.00    +0.236 A 
ATOM      6  N   UNL     1       2.071  -7.803   1.337  0.00  0.00    -0.285 N 
ATOM      7  C   UNL     1       3.052  -7.319   2.148  0.00  0.00    +0.072 A 
ATOM      8  C   UNL     1       4.040  -6.358   1.970  0.00  0.00    +0.028 A 
ATOM      9  C   UNL     1       4.886  -6.114   3.040  0.00  0.00    +0.002 A 
ATOM     10  C   UNL     1       4.765  -6.791   4.241  0.00  0.00    +0.002 A 
ATOM     11  C   UNL     1       3.791  -7.752   4.445  0.00  0.00    +0.030 A 
ATOM     12  C   UNL     1       2.924  -8.015   3.378  0.00  0.00    +0.091 A 
ATOM     13  N   UNL     1       1.889  -8.878   3.252  0.00  0.00    -0.210 NA
ATOM     14  N   UNL     1      -0.926  -9.977  -0.375  0.00  0.00    -0.331 N 
ATOM     15  H   UNL     1       1.118  -8.857  -1.530  0.00  0.00    +0.151 HD
ATOM     16  H   UNL     1      -1.086  -9.900  -1.328  0.00  0.00    +0.145 HD
ATOM     17  H   UNL     1      -1.528 -10.499   0.178  0.00  0.00    +0.145 HD
ENDROOT
BRANCH   1  21
ATOM     18  N   UNL     1       0.059  -4.172  -0.021  0.00  0.00    -0.317 N 
ATOM     19  C   UNL     1      -1.040  -4.983  -0.025  0.00  0.00    +0.021 A 
ATOM     20  C   UNL     1      -0.619  -6.264  -0.033  0.00  0.00    +0.030 A 
ATOM     21  C   UNL     1       0.791  -6.245  -0.032  0.00  0.00    +0.014 A 
ATOM     22  C   UNL     1       1.179  -4.954  -0.031  0.00  0.00    +0.028 A 
ATOM     23  C   UNL     1       2.602  -4.458  -0.036  0.00  0.00    +0.064 C 
ATOM     24  C   UNL     1      -2.476  -4.526  -0.023  0.00  0.00    +0.064 C 
BRANCH  18  29
ATOM     25  C   UNL     1      -0.018   1.503   0.010  0.00  0.00    +0.044 C 
ATOM     26  C   UNL     1       0.002  -0.004   0.002  0.00  0.00    -0.050 A 
ATOM     27  C   UNL     1       0.006  -0.688  -1.200  0.00  0.00    +0.005 A 
ATOM     28  C   UNL     1       0.025  -2.068  -1.211  0.00  0.00    +0.026 A 
ATOM     29  C   UNL     1       0.040  -2.771  -0.013  0.00  0.00    +0.049 A 
ATOM     30  C   UNL     1       0.037  -2.082   1.192  0.00  0.00    -0.026 A 
ATOM     31  C   UNL     1       0.023  -0.700   1.196  0.00  0.00    +0.008 A 
ATOM     32  C   UNL     1       0.053  -2.840   2.494  0.00  0.00    +0.046 C 
ENDBRANCH  18  29
ENDBRANCH   1  21
TORSDOF 2
