REMARK  Name = ZINC10075313
REMARK  7 active torsions:
REMARK  status: ('A' for Active; 'I' for Inactive)
REMARK    1  A    between atoms: C_1  and  O_2
REMARK    2  A    between atoms: O_2  and  C_3
REMARK    3  A    between atoms: C_6  and  C_9
REMARK    4  A    between atoms: C_14  and  C_22
REMARK    5  A    between atoms: N_24  and  C_25
REMARK    6  A    between atoms: C_28  and  O_31
REMARK    7  A    between atoms: O_31  and  C_32
REMARK                            x       y       z     vdW  Elec       q    Type
REMARK                         _______ _______ _______ _____ _____    ______ ____
ROOT
ATOM      1  C   UNL     1       3.817  -3.642   3.981  0.00  0.00    +0.032 C 
ATOM      2  C   UNL     1       4.649  -4.923   4.085  0.00  0.00    +0.088 C 
ATOM      3  C   UNL     1       4.733  -5.338   5.528  0.00  0.00    +0.162 C 
ATOM      4  C   UNL     1       3.735  -5.062   6.400  0.00  0.00    +0.026 C 
ATOM      5  C   UNL     1       3.911  -5.453   7.849  0.00  0.00    +0.119 C 
ATOM      6  C   UNL     1       2.547  -5.770   8.462  0.00  0.00    +0.115 C 
ATOM      7  C   UNL     1       1.560  -4.707   8.057  0.00  0.00    +0.237 C 
ATOM      8  O   UNL     1       0.733  -4.320   8.858  0.00  0.00    -0.274 OA
ATOM      9  N   UNL     1       1.582  -4.188   6.836  0.00  0.00    -0.185 NA
ATOM     10  C   UNL     1       2.575  -4.397   5.994  0.00  0.00    +0.042 C 
ATOM     11  C   UNL     1       2.430  -3.908   4.572  0.00  0.00    +0.062 C 
ATOM     12  O   UNL     1       5.823  -5.999   5.962  0.00  0.00    -0.292 OA
ENDROOT
BRANCH   1  16
ATOM     13  C   UNL     1       3.435  -2.508  -0.122  0.00  0.00    +0.120 A 
ATOM     14  C   UNL     1       4.029  -1.643   0.786  0.00  0.00    +0.046 A 
ATOM     15  C   UNL     1       4.151  -2.012   2.111  0.00  0.00    +0.007 A 
ATOM     16  C   UNL     1       3.682  -3.242   2.534  0.00  0.00    -0.043 A 
ATOM     17  C   UNL     1       3.089  -4.105   1.631  0.00  0.00    +0.007 A 
ATOM     18  C   UNL     1       2.959  -3.739   0.306  0.00  0.00    +0.046 A 
BRANCH  13  20
ATOM     19  C   UNL     1       3.825  -0.865  -1.796  0.00  0.00    +0.277 C 
ATOM     20  O   UNL     1       3.313  -2.147  -1.427  0.00  0.00    -0.495 OA
ENDBRANCH  13  20
ENDBRANCH   1  16
BRANCH   5  21
ATOM     21  C   UNL     1       4.548  -4.314   8.603  0.00  0.00    +0.225 C 
ATOM     22  O   UNL     1       4.832  -3.287   8.024  0.00  0.00    -0.275 OA
ATOM     23  N   UNL     1       4.803  -4.437   9.921  0.00  0.00    -0.285 N 
ATOM     24  H   UNL     1       4.474  -5.208  10.408  0.00  0.00    +0.155 HD
BRANCH  23  25
ATOM     25  C   UNL     1       5.543  -3.450  10.586  0.00  0.00    +0.034 A 
ATOM     26  C   UNL     1       6.282  -3.780  11.715  0.00  0.00    +0.027 A 
ATOM     27  C   UNL     1       7.011  -2.807  12.370  0.00  0.00    +0.048 A 
ATOM     28  C   UNL     1       7.005  -1.502  11.901  0.00  0.00    +0.129 A 
ATOM     29  C   UNL     1       6.267  -1.172  10.773  0.00  0.00    +0.048 A 
ATOM     30  C   UNL     1       5.542  -2.145  10.114  0.00  0.00    +0.027 A 
BRANCH  28  31
ATOM     31  O   UNL     1       7.723  -0.544  12.547  0.00  0.00    -0.456 OA
BRANCH  31  32
ATOM     32  C   UNL     1       8.575  -0.940  13.528  0.00  0.00    +0.128 A 
ATOM     33  C   UNL     1       9.800  -1.504  13.200  0.00  0.00    +0.046 A 
ATOM     34  C   UNL     1      10.664  -1.905  14.199  0.00  0.00    +0.004 A 
ATOM     35  C   UNL     1      10.310  -1.746  15.527  0.00  0.00    +0.000 A 
ATOM     36  C   UNL     1       9.091  -1.184  15.857  0.00  0.00    +0.004 A 
ATOM     37  C   UNL     1       8.225  -0.775  14.861  0.00  0.00    +0.046 A 
ENDBRANCH  31  32
ENDBRANCH  28  31
ENDBRANCH  23  25
ENDBRANCH   5  21
TORSDOF 6
