REMARK  Name = ZINC37333544
REMARK  6 active torsions:
REMARK  status: ('A' for Active; 'I' for Inactive)
REMARK    1  A    between atoms: C_1  and  N_2
REMARK    2  A    between atoms: N_2  and  C_3
REMARK    3  A    between atoms: N_2  and  C_14
REMARK    4  A    between atoms: C_6  and  S_10
REMARK    5  A    between atoms: C_8  and  N_9
REMARK    6  A    between atoms: S_10  and  N_13
REMARK                            x       y       z     vdW  Elec       q    Type
REMARK                         _______ _______ _______ _____ _____    ______ ____
ROOT
ATOM      1  C   UNL     1       0.023  -0.711   1.211  0.00  0.00    +0.051 A 
ATOM      2  C   UNL     1      -1.166  -1.083   1.819  0.00  0.00    +0.027 A 
ATOM      3  C   UNL     1      -1.143  -1.781   3.013  0.00  0.00    +0.030 A 
ATOM      4  C   UNL     1       0.064  -2.110   3.602  0.00  0.00    +0.107 A 
ATOM      5  C   UNL     1       1.254  -1.743   3.002  0.00  0.00    +0.053 A 
ATOM      6  C   UNL     1       1.240  -1.047   1.803  0.00  0.00    +0.048 A 
ENDROOT
BRANCH   6   7
ATOM      7  N   UNL     1       2.445  -0.679   1.191  0.00  0.00    -0.356 N 
ATOM      8  H   UNL     1       2.433  -0.189   0.354  0.00  0.00    +0.142 HD
ATOM      9  H   UNL     1       3.290  -0.914   1.604  0.00  0.00    +0.142 HD
ENDBRANCH   6   7
BRANCH   4  10
ATOM     10  S   UNL     1       0.084  -2.999   5.123  0.00  0.00    +0.056 S 
ATOM     11  O   UNL     1       1.328  -2.709   5.747  0.00  0.00    -0.153 OA
ATOM     12  O   UNL     1      -1.163  -2.748   5.758  0.00  0.00    -0.153 OA
BRANCH  10  13
ATOM     13  N   UNL     1       0.108  -4.612   4.748  0.00  0.00    -0.204 NA
ATOM     14  H   UNL     1       0.108  -4.893   3.819  0.00  0.00    +0.144 HD
ATOM     15  H   UNL     1       0.121  -5.274   5.456  0.00  0.00    +0.144 HD
ENDBRANCH  10  13
ENDBRANCH   4  10
BRANCH   1  17
ATOM     16  C   UNL     1      -0.018   1.461   0.010  0.00  0.00    +0.129 C 
ATOM     17  N   UNL     1       0.002  -0.004   0.002  0.00  0.00    -0.328 N 
BRANCH  17  18
ATOM     18  C   UNL     1      -0.000  -0.730  -1.271  0.00  0.00    +0.073 C 
ATOM     19  C   UNL     1       1.236  -0.339  -2.083  0.00  0.00    +0.022 C 
ATOM     20  C   UNL     1       1.234  -1.097  -3.412  0.00  0.00    +0.002 C 
ATOM     21  C   UNL     1      -0.028  -0.740  -4.200  0.00  0.00    +0.000 C 
ATOM     22  C   UNL     1      -1.264  -1.131  -3.388  0.00  0.00    +0.002 C 
ATOM     23  C   UNL     1      -1.262  -0.373  -2.059  0.00  0.00    +0.022 C 
ENDBRANCH  17  18
ENDBRANCH   1  17
TORSDOF 5
