REMARK  Name = ZINC12772318
REMARK  9 active torsions:
REMARK  status: ('A' for Active; 'I' for Inactive)
REMARK    1  A    between atoms: C_1  and  C_2
REMARK    2  A    between atoms: C_2  and  C_3
REMARK    3  A    between atoms: C_2  and  C_4
REMARK    4  A    between atoms: C_4  and  O_33
REMARK    5  A    between atoms: C_5  and  C_29
REMARK    6  A    between atoms: C_7  and  C_23
REMARK    7  A    between atoms: N_12  and  C_13
REMARK    8  A    between atoms: C_29  and  O_31
REMARK    9  A    between atoms: O_31  and  C_32
REMARK                            x       y       z     vdW  Elec       q    Type
REMARK                         _______ _______ _______ _____ _____    ______ ____
ROOT
ATOM      1  C   UNL     1      -1.307   4.233   0.050  0.00  0.00    +0.156 C 
ATOM      2  C   UNL     1      -0.654   5.620   0.110  0.00  0.00    +0.173 C 
ATOM      3  C   UNL     1       0.500   5.657  -0.897  0.00  0.00    +0.120 C 
ATOM      4  N   UNL     1       1.424   4.558  -0.609  0.00  0.00    -0.318 N 
ATOM      5  C   UNL     1       0.997   3.417  -0.048  0.00  0.00    +0.140 C 
ATOM      6  S   UNL     1       2.133   2.170   0.246  0.00  0.00    -0.018 S 
ATOM      7  N   UNL     1      -0.284   3.213   0.292  0.00  0.00    -0.253 N 
ATOM      8  H   UNL     1       2.364   4.657  -0.829  0.00  0.00    +0.148 HD
ENDROOT
BRANCH   7   9
ATOM      9  C   UNL     1      -0.653   1.999   0.885  0.00  0.00    +0.042 A 
ATOM     10  C   UNL     1      -0.619   1.862   2.266  0.00  0.00    +0.027 A 
ATOM     11  C   UNL     1      -0.982   0.664   2.851  0.00  0.00    +0.051 A 
ATOM     12  C   UNL     1      -1.380  -0.405   2.062  0.00  0.00    +0.162 A 
ATOM     13  C   UNL     1      -1.416  -0.270   0.679  0.00  0.00    +0.164 A 
ATOM     14  C   UNL     1      -1.051   0.932   0.092  0.00  0.00    +0.073 A 
ATOM     15  O   UNL     1      -1.808  -1.306  -0.112  0.00  0.00    -0.485 OA
ATOM     16  C   UNL     1      -1.806  -2.608   0.484  0.00  0.00    +0.270 C 
ATOM     17  C   UNL     1      -2.476  -2.506   1.861  0.00  0.00    +0.270 C 
ATOM     18  O   UNL     1      -1.729  -1.579   2.656  0.00  0.00    -0.485 OA
ENDBRANCH   7   9
BRANCH   3  19
ATOM     19  C   UNL     1       1.230   6.970  -0.783  0.00  0.00    -0.026 A 
ATOM     20  C   UNL     1       2.144   7.167   0.235  0.00  0.00    +0.005 A 
ATOM     21  C   UNL     1       2.817   8.370   0.337  0.00  0.00    +0.000 A 
ATOM     22  C   UNL     1       2.567   9.381  -0.573  0.00  0.00    +0.000 A 
ATOM     23  C   UNL     1       1.648   9.186  -1.587  0.00  0.00    +0.000 A 
ATOM     24  C   UNL     1       0.979   7.981  -1.692  0.00  0.00    +0.005 A 
ENDBRANCH   3  19
BRANCH   1  26
ATOM     25  C   UNL     1      -3.352   5.317   0.991  0.00  0.00    +0.012 C 
ATOM     26  C   UNL     1      -2.392   4.133   1.124  0.00  0.00    +0.034 C 
ATOM     27  C   UNL     1      -3.167   2.825   0.946  0.00  0.00    +0.012 C 
ENDBRANCH   1  26
BRANCH   2  28
ATOM     28  C   UNL     1      -0.123   5.880   1.497  0.00  0.00    +0.317 C 
ATOM     29  O   UNL     1       0.372   4.979   2.132  0.00  0.00    -0.250 OA
BRANCH  28  30
ATOM     30  O   UNL     1      -0.202   7.111   2.026  0.00  0.00    -0.468 OA
ATOM     31  C   UNL     1       0.329   7.288   3.366  0.00  0.00    +0.280 C 
ENDBRANCH  28  30
ENDBRANCH   2  28
BRANCH   1  32
ATOM     32  O   UNL     1      -1.889   4.029  -1.239  0.00  0.00    -0.370 OA
ATOM     33  H   UNL     1      -2.314   3.168  -1.347  0.00  0.00    +0.212 HD
ENDBRANCH   1  32
TORSDOF 6
