REMARK  Name = ZINC14458931
REMARK  5 active torsions:
REMARK  status: ('A' for Active; 'I' for Inactive)
REMARK    1  A    between atoms: C_1  and  O_2
REMARK    2  A    between atoms: O_2  and  C_3
REMARK    3  A    between atoms: C_5  and  C_10
REMARK    4  A    between atoms: C_8  and  O_9
REMARK    5  A    between atoms: C_21  and  C_26
REMARK                            x       y       z     vdW  Elec       q    Type
REMARK                         _______ _______ _______ _____ _____    ______ ____
ROOT
ATOM      1  C   UNL     1       0.002  -0.004   0.002  0.00  0.00    +0.105 C 
ATOM      2  C   UNL     1      -0.146  -0.538   1.415  0.00  0.00    +0.029 C 
ATOM      3  C   UNL     1       0.833  -0.009   2.471  0.00  0.00    +0.033 C 
ATOM      4  C   UNL     1      -0.007  -0.110   3.747  0.00  0.00    -0.030 C 
ATOM      5  C   UNL     1      -1.296  -0.067   3.440  0.00  0.00    -0.023 C 
ATOM      6  C   UNL     1      -1.441   0.132   1.975  0.00  0.00    +0.049 C 
ATOM      7  C   UNL     1      -2.594  -0.410   1.223  0.00  0.00    -0.018 A 
ATOM      8  C   UNL     1      -3.821  -0.612   1.805  0.00  0.00    +0.025 A 
ATOM      9  C   UNL     1      -4.890  -1.094   1.044  0.00  0.00    +0.052 A 
ATOM     10  C   UNL     1      -4.702  -1.371  -0.314  0.00  0.00    +0.020 A 
ATOM     11  C   UNL     1      -3.470  -1.174  -0.892  0.00  0.00    +0.024 A 
ATOM     12  C   UNL     1      -2.401  -0.700  -0.136  0.00  0.00    +0.031 A 
ATOM     13  N   UNL     1      -1.160  -0.526  -0.749  0.00  0.00    -0.336 N 
ATOM     14  H   UNL     1      -1.057  -0.754  -1.687  0.00  0.00    +0.147 HD
ENDROOT
BRANCH   1  17
ATOM     15  C   UNL     1       1.145   3.593   0.159  0.00  0.00    +0.162 A 
ATOM     16  C   UNL     1       1.162   2.208   0.151  0.00  0.00    +0.054 A 
ATOM     17  C   UNL     1      -0.018   1.503   0.010  0.00  0.00    -0.023 A 
ATOM     18  C   UNL     1      -1.217   2.177  -0.129  0.00  0.00    +0.009 A 
ATOM     19  C   UNL     1      -1.242   3.559  -0.116  0.00  0.00    +0.049 A 
ATOM     20  C   UNL     1      -0.062   4.272   0.025  0.00  0.00    +0.158 A 
BRANCH  15  22
ATOM     21  C   UNL     1       3.507   3.526   0.431  0.00  0.00    +0.277 C 
ATOM     22  O   UNL     1       2.306   4.288   0.298  0.00  0.00    -0.491 OA
ENDBRANCH  15  22
BRANCH  20  23
ATOM     23  O   UNL     1      -0.084   5.632   0.032  0.00  0.00    -0.503 OA
ATOM     24  H   UNL     1       0.011   6.031  -0.843  0.00  0.00    +0.292 HD
ENDBRANCH  20  23
ENDBRANCH   1  17
BRANCH   9  25
ATOM     25  C   UNL     1      -6.170  -1.304   1.651  0.00  0.00    +0.099 C 
ATOM     26  N   UNL     1      -7.185  -1.471   2.133  0.00  0.00    -0.191 NA
ENDBRANCH   9  25
TORSDOF 4
