REMARK  Name = ZINC35352455
REMARK  11 active torsions:
REMARK  status: ('A' for Active; 'I' for Inactive)
REMARK    1  A    between atoms: C_1  and  C_2
REMARK    2  A    between atoms: C_3  and  C_30
REMARK    3  A    between atoms: C_4  and  C_11
REMARK    4  A    between atoms: N_9  and  C_10
REMARK    5  A    between atoms: C_14  and  N_17
REMARK    6  A    between atoms: C_18  and  C_20
REMARK    7  A    between atoms: C_30  and  O_32
REMARK    8  A    between atoms: O_32  and  C_33
REMARK    9  A    between atoms: C_33  and  C_34
REMARK   10  A    between atoms: C_34  and  C_35
REMARK   11  A    between atoms: C_34  and  C_36
REMARK                            x       y       z     vdW  Elec       q    Type
REMARK                         _______ _______ _______ _____ _____    ______ ____
ROOT
ATOM      1  C   UNL     1      -2.060  -2.376  -1.107  0.00  0.00    -0.022 A 
ATOM      2  C   UNL     1      -1.689  -2.146  -2.419  0.00  0.00    +0.007 A 
ATOM      3  C   UNL     1      -2.557  -2.456  -3.448  0.00  0.00    +0.023 A 
ATOM      4  C   UNL     1      -3.803  -2.998  -3.163  0.00  0.00    +0.033 A 
ATOM      5  C   UNL     1      -4.173  -3.228  -1.844  0.00  0.00    +0.023 A 
ATOM      6  C   UNL     1      -3.298  -2.921  -0.820  0.00  0.00    +0.007 A 
ENDROOT
BRANCH   1  10
ATOM      7  C   UNL     1      -0.122   1.669   0.407  0.00  0.00    +0.061 C 
ATOM      8  C   UNL     1      -0.073   0.183   0.159  0.00  0.00    +0.021 C 
ATOM      9  C   UNL     1      -1.204  -0.547   0.271  0.00  0.00    +0.078 C 
ATOM     10  C   UNL     1      -1.110  -2.037   0.013  0.00  0.00    +0.141 C 
ATOM     11  N   UNL     1       0.216  -2.571  -0.340  0.00  0.00    -0.315 N 
ATOM     12  C   UNL     1       1.254  -1.713  -0.412  0.00  0.00    +0.137 C 
ATOM     13  S   UNL     1       2.801  -2.319  -0.822  0.00  0.00    -0.018 S 
ATOM     14  N   UNL     1       1.112  -0.402  -0.180  0.00  0.00    -0.289 N 
ATOM     15  C   UNL     1       2.298   0.451  -0.289  0.00  0.00    +0.137 C 
ATOM     16  H   UNL     1       0.340  -3.516  -0.516  0.00  0.00    +0.149 HD
BRANCH   9  17
ATOM     17  C   UNL     1      -2.434   0.059   0.617  0.00  0.00    +0.339 C 
ATOM     18  O   UNL     1      -2.486   1.258   0.820  0.00  0.00    -0.245 OA
BRANCH  17  19
ATOM     19  O   UNL     1      -3.550  -0.692   0.722  0.00  0.00    -0.461 OA
BRANCH  19  20
ATOM     20  C   UNL     1      -4.758  -0.014   1.075  0.00  0.00    +0.235 C 
BRANCH  20  21
ATOM     21  C   UNL     1      -5.907  -1.021   1.146  0.00  0.00    +0.020 C 
ATOM     22  C   UNL     1      -5.649  -2.009   2.285  0.00  0.00    +0.010 C 
ATOM     23  C   UNL     1      -7.221  -0.280   1.401  0.00  0.00    +0.010 C 
ENDBRANCH  20  21
ENDBRANCH  19  20
ENDBRANCH  17  19
ENDBRANCH   9  17
ENDBRANCH   1  10
BRANCH   4  24
ATOM     24  N   UNL     1      -4.685  -3.313  -4.203  0.00  0.00    -0.285 N 
ATOM     25  C   UNL     1      -4.208  -3.787  -5.371  0.00  0.00    +0.223 C 
ATOM     26  O   UNL     1      -3.011  -3.882  -5.543  0.00  0.00    -0.275 OA
ATOM     27  H   UNL     1      -5.640  -3.189  -4.083  0.00  0.00    +0.155 HD
BRANCH  25  28
ATOM     28  C   UNL     1      -5.162  -4.200  -6.462  0.00  0.00    +0.048 C 
ATOM     29  C   UNL     1      -6.069  -5.321  -5.950  0.00  0.00    +0.019 C 
ATOM     30  C   UNL     1      -7.037  -5.739  -7.059  0.00  0.00    -0.009 C 
ATOM     31  C   UNL     1      -6.243  -6.238  -8.268  0.00  0.00    +0.007 C 
ATOM     32  C   UNL     1      -5.337  -5.117  -8.780  0.00  0.00    -0.009 C 
ATOM     33  C   UNL     1      -4.368  -4.698  -7.672  0.00  0.00    +0.019 C 
ATOM     34  C   UNL     1      -6.192  -3.916  -9.191  0.00  0.00    +0.007 C 
ATOM     35  C   UNL     1      -6.985  -3.418  -7.981  0.00  0.00    -0.009 C 
ATOM     36  C   UNL     1      -7.892  -4.539  -7.469  0.00  0.00    +0.007 C 
ATOM     37  C   UNL     1      -6.017  -2.999  -6.873  0.00  0.00    +0.019 C 
ENDBRANCH  25  28
ENDBRANCH   4  24
TORSDOF 7
