REMARK  Name = ZINC44593512
REMARK  7 active torsions:
REMARK  status: ('A' for Active; 'I' for Inactive)
REMARK    1  A    between atoms: C_1  and  C_2
REMARK    2  A    between atoms: C_4  and  S_10
REMARK    3  A    between atoms: C_6  and  N_9
REMARK    4  A    between atoms: C_7  and  C_8
REMARK    5  A    between atoms: S_10  and  N_13
REMARK    6  A    between atoms: N_13  and  C_14
REMARK    7  A    between atoms: N_18  and  C_19
REMARK                            x       y       z     vdW  Elec       q    Type
REMARK                         _______ _______ _______ _____ _____    ______ ____
ROOT
ATOM      1  C   UNL     1       0.357   1.459   0.206  0.00  0.00    +0.044 C 
ATOM      2  C   UNL     1       0.273  -0.044   0.146  0.00  0.00    -0.044 A 
ATOM      3  C   UNL     1       0.209  -0.685  -1.078  0.00  0.00    +0.032 A 
ATOM      4  C   UNL     1       0.131  -2.064  -1.137  0.00  0.00    +0.111 A 
ATOM      5  C   UNL     1       0.117  -2.807   0.028  0.00  0.00    +0.051 A 
ATOM      6  C   UNL     1       0.181  -2.167   1.259  0.00  0.00    +0.030 A 
ATOM      7  C   UNL     1       0.265  -0.781   1.314  0.00  0.00    -0.027 A 
ATOM      8  C   UNL     1       0.341  -0.083   2.647  0.00  0.00    +0.046 C 
ENDROOT
BRANCH   6   9
ATOM      9  N   UNL     1       0.167  -2.915   2.438  0.00  0.00    -0.358 N 
ATOM     10  H   UNL     1       0.113  -3.883   2.398  0.00  0.00    +0.142 HD
ATOM     11  H   UNL     1       0.212  -2.467   3.297  0.00  0.00    +0.142 HD
ENDBRANCH   6   9
BRANCH   4  12
ATOM     12  S   UNL     1       0.049  -2.875  -2.699  0.00  0.00    +0.074 S 
ATOM     13  O   UNL     1      -0.434  -4.188  -2.450  0.00  0.00    -0.150 OA
ATOM     14  O   UNL     1      -0.605  -1.979  -3.587  0.00  0.00    -0.150 OA
BRANCH  12  15
ATOM     15  N   UNL     1       1.602  -3.037  -3.249  0.00  0.00    -0.200 N 
ATOM     16  H   UNL     1       1.887  -2.562  -4.045  0.00  0.00    +0.175 HD
BRANCH  15  17
ATOM     17  C   UNL     1       2.499  -3.856  -2.568  0.00  0.00    +0.136 A 
ATOM     18  C   UNL     1       2.199  -4.702  -1.544  0.00  0.00    +0.066 A 
ATOM     19  C   UNL     1       3.383  -5.332  -1.150  0.00  0.00    +0.136 A 
ATOM     20  N   UNL     1       4.356  -4.888  -1.903  0.00  0.00    -0.178 NA
ATOM     21  N   UNL     1       3.826  -3.960  -2.808  0.00  0.00    -0.252 N 
ATOM     22  C   UNL     1       4.577  -3.229  -3.832  0.00  0.00    +0.174 C 
ENDBRANCH  15  17
ENDBRANCH  12  15
ENDBRANCH   4  12
TORSDOF 4
