REMARK  Name = ZINC51090096
REMARK  3 active torsions:
REMARK  status: ('A' for Active; 'I' for Inactive)
REMARK    1  A    between atoms: C_3  and  C_9
REMARK    2  A    between atoms: N_7  and  N_8
REMARK    3  A    between atoms: N_11  and  C_12
REMARK                            x       y       z     vdW  Elec       q    Type
REMARK                         _______ _______ _______ _____ _____    ______ ____
ROOT
ATOM      1  C   UNL     1       3.677   2.050  -0.015  0.00  0.00    +0.267 C 
ATOM      2  O   UNL     1       3.701   3.266  -0.012  0.00  0.00    -0.268 OA
ATOM      3  N   UNL     1       4.831   1.354  -0.037  0.00  0.00    -0.278 N 
ATOM      4  H   UNL     1       4.815   0.386   0.026  0.00  0.00    +0.155 HD
ENDROOT
BRANCH   1   7
ATOM      5  C   UNL     1      -0.016   1.380   0.047  0.00  0.00    +0.006 A 
ATOM      6  C   UNL     1       1.194   2.061   0.028  0.00  0.00    +0.033 A 
ATOM      7  C   UNL     1       2.381   1.335   0.005  0.00  0.00    +0.128 A 
ATOM      8  N   UNL     1       2.362   0.006   0.002  0.00  0.00    -0.226 NA
ATOM      9  C   UNL     1       1.227  -0.669   0.020  0.00  0.00    +0.133 A 
ATOM     10  C   UNL     1       0.002  -0.002   0.043  0.00  0.00    +0.045 A 
ATOM     11  N   UNL     1       1.254  -2.058   0.015  0.00  0.00    -0.268 N 
ATOM     12  H   UNL     1       0.423  -2.559   0.028  0.00  0.00    +0.167 HD
BRANCH  11  13
ATOM     13  N   UNL     1       2.450  -2.718  -0.008  0.00  0.00    -0.255 NA
ATOM     14  H   UNL     1       2.311  -3.718  -0.008  0.00  0.00    +0.140 HD
ATOM     15  H   UNL     1       3.007  -2.430  -0.798  0.00  0.00    +0.140 HD
ENDBRANCH  11  13
ENDBRANCH   1   7
BRANCH   3  16
ATOM     16  C   UNL     1       6.053   2.027  -0.150  0.00  0.00    +0.069 A 
ATOM     17  C   UNL     1       6.221   3.270   0.446  0.00  0.00    +0.027 A 
ATOM     18  C   UNL     1       7.428   3.932   0.333  0.00  0.00    +0.017 A 
ATOM     19  C   UNL     1       8.470   3.359  -0.374  0.00  0.00    +0.021 A 
ATOM     20  C   UNL     1       8.308   2.121  -0.970  0.00  0.00    +0.055 A 
ATOM     21  C   UNL     1       7.103   1.451  -0.856  0.00  0.00    +0.146 A 
ATOM     22  F   UNL     1       6.946   0.239  -1.433  0.00  0.00    -0.204 F 
ATOM     23 BR   UNL     1      10.120   4.270  -0.527  0.00  0.00    -0.050 Br
ENDBRANCH   3  16
TORSDOF 3
