REMARK  Name = ZINC36395877
REMARK  6 active torsions:
REMARK  status: ('A' for Active; 'I' for Inactive)
REMARK    1  A    between atoms: C_1  and  C_2
REMARK    2  A    between atoms: C_5  and  S_8
REMARK    3  A    between atoms: S_8  and  N_11
REMARK    4  A    between atoms: N_11  and  C_12
REMARK    5  A    between atoms: C_14  and  S_19
REMARK    6  A    between atoms: S_19  and  N_22
REMARK                            x       y       z     vdW  Elec       q    Type
REMARK                         _______ _______ _______ _____ _____    ______ ____
ROOT
ATOM      1  C   UNL     1       1.978  -6.359  -0.043  0.00  0.00    +0.111 A 
ATOM      2  C   UNL     1       3.309  -6.754  -0.047  0.00  0.00    +0.058 A 
ATOM      3  C   UNL     1       3.630  -8.098  -0.056  0.00  0.00    +0.107 A 
ATOM      4  C   UNL     1       2.627  -9.050  -0.061  0.00  0.00    +0.031 A 
ATOM      5  C   UNL     1       1.300  -8.662  -0.058  0.00  0.00    +0.042 A 
ATOM      6  C   UNL     1       0.972  -7.319  -0.043  0.00  0.00    +0.148 A 
ATOM      7  F   UNL     1      -0.325  -6.939  -0.034  0.00  0.00    -0.203 F 
ENDROOT
BRANCH   3   8
ATOM      8  S   UNL     1       5.319  -8.599  -0.060  0.00  0.00    +0.056 S 
ATOM      9  O   UNL     1       5.353  -9.905  -0.620  0.00  0.00    -0.153 OA
ATOM     10  O   UNL     1       6.062  -7.518  -0.605  0.00  0.00    -0.153 OA
BRANCH   8  11
ATOM     11  N   UNL     1       5.790  -8.748   1.520  0.00  0.00    -0.204 NA
ATOM     12  H   UNL     1       5.159  -8.565   2.234  0.00  0.00    +0.144 HD
ATOM     13  H   UNL     1       6.697  -9.019   1.732  0.00  0.00    +0.144 HD
ENDBRANCH   8  11
ENDBRANCH   3   8
BRANCH   1  14
ATOM     14  N   UNL     1       1.651  -4.999  -0.034  0.00  0.00    -0.095 NA
BRANCH  14  15
ATOM     15  S   UNL     1       0.063  -4.530  -0.023  0.00  0.00    +0.092 S 
ATOM     16  O   UNL     1      -0.476  -4.950   1.223  0.00  0.00    -0.148 OA
ATOM     17  O   UNL     1      -0.490  -4.937  -1.267  0.00  0.00    -0.148 OA
BRANCH  15  22
ATOM     18  C   UNL     1      -0.018   1.503   0.010  0.00  0.00    +0.044 C 
ATOM     19  C   UNL     1       0.002  -0.004   0.002  0.00  0.00    -0.050 A 
ATOM     20  C   UNL     1       0.006  -0.689  -1.199  0.00  0.00    +0.005 A 
ATOM     21  C   UNL     1       0.025  -2.071  -1.206  0.00  0.00    +0.029 A 
ATOM     22  C   UNL     1       0.040  -2.768  -0.013  0.00  0.00    +0.110 A 
ATOM     23  C   UNL     1       0.037  -2.084   1.188  0.00  0.00    +0.029 A 
ATOM     24  C   UNL     1       0.023  -0.702   1.195  0.00  0.00    +0.005 A 
ENDBRANCH  15  22
ENDBRANCH  14  15
ENDBRANCH   1  14
TORSDOF 5
