REMARK  Name = ZINC10556879
REMARK  6 active torsions:
REMARK  status: ('A' for Active; 'I' for Inactive)
REMARK    1  A    between atoms: C_1  and  C_2
REMARK    2  A    between atoms: C_7  and  N_11
REMARK    3  A    between atoms: C_12  and  C_14
REMARK    4  A    between atoms: C_18  and  N_20
REMARK    5  A    between atoms: N_20  and  S_21
REMARK    6  A    between atoms: S_21  and  C_24
REMARK                            x       y       z     vdW  Elec       q    Type
REMARK                         _______ _______ _______ _____ _____    ______ ____
ROOT
ATOM      1  C   UNL     1       4.240   1.260  -4.494  0.00  0.00    +0.039 A 
ATOM      2  C   UNL     1       5.197   2.180  -4.062  0.00  0.00    +0.013 A 
ATOM      3  C   UNL     1       5.723   2.082  -2.790  0.00  0.00    +0.003 A 
ATOM      4  C   UNL     1       5.305   1.075  -1.939  0.00  0.00    +0.024 A 
ATOM      5  C   UNL     1       4.352   0.155  -2.360  0.00  0.00    +0.049 A 
ATOM      6  C   UNL     1       3.822   0.241  -3.638  0.00  0.00    +0.037 A 
ENDROOT
BRANCH   1   8
ATOM      7  N   UNL     1       4.085   2.344  -6.684  0.00  0.00    -0.281 N 
ATOM      8  C   UNL     1       3.675   1.362  -5.857  0.00  0.00    +0.248 C 
ATOM      9  O   UNL     1       2.842   0.560  -6.231  0.00  0.00    -0.270 OA
ATOM     10  H   UNL     1       4.692   3.029  -6.361  0.00  0.00    +0.155 HD
BRANCH   7  17
ATOM     11  C   UNL     1       1.605   0.878 -13.887  0.00  0.00    +0.073 C 
ATOM     12  C   UNL     1       2.086   1.178 -12.491  0.00  0.00    +0.076 A 
ATOM     13  N   UNL     1       2.298   2.341 -11.942  0.00  0.00    -0.244 NA
ATOM     14  C   UNL     1       2.732   2.474 -10.671  0.00  0.00    +0.079 A 
ATOM     15  C   UNL     1       3.005   3.655  -9.944  0.00  0.00    +0.031 A 
ATOM     16  C   UNL     1       3.441   3.595  -8.658  0.00  0.00    +0.025 A 
ATOM     17  C   UNL     1       3.635   2.376  -8.008  0.00  0.00    +0.035 A 
ATOM     18  C   UNL     1       3.381   1.195  -8.693  0.00  0.00    +0.040 A 
ATOM     19  C   UNL     1       2.936   1.252  -9.990  0.00  0.00    +0.041 A 
ATOM     20  S   UNL     1       2.490   0.059 -11.227  0.00  0.00    -0.072 S 
ENDBRANCH   7  17
ENDBRANCH   1   8
BRANCH   5  21
ATOM     21  N   UNL     1       3.934  -0.861  -1.497  0.00  0.00    -0.216 N 
ATOM     22  H   UNL     1       3.853  -1.771  -1.822  0.00  0.00    +0.174 HD
BRANCH  21  23
ATOM     23  S   UNL     1       3.576  -0.511   0.082  0.00  0.00    +0.072 S 
ATOM     24  O   UNL     1       4.662   0.256   0.584  0.00  0.00    -0.150 OA
ATOM     25  O   UNL     1       3.161  -1.730   0.684  0.00  0.00    -0.150 OA
BRANCH  23  26
ATOM     26  C   UNL     1       2.170   0.551   0.074  0.00  0.00    +0.112 A 
ATOM     27  C   UNL     1       0.898   0.012   0.119  0.00  0.00    +0.032 A 
ATOM     28  C   UNL     1      -0.207   0.842   0.113  0.00  0.00    +0.051 A 
ATOM     29  C   UNL     1      -0.043   2.218   0.061  0.00  0.00    +0.162 A 
ATOM     30  C   UNL     1       1.236   2.760   0.018  0.00  0.00    +0.164 A 
ATOM     31  C   UNL     1       2.341   1.921   0.024  0.00  0.00    +0.078 A 
ATOM     32  O   UNL     1       1.420   4.107  -0.025  0.00  0.00    -0.485 OA
ATOM     33  C   UNL     1       0.290   4.900  -0.406  0.00  0.00    +0.270 C 
ATOM     34  C   UNL     1      -0.932   4.400   0.376  0.00  0.00    +0.270 C 
ATOM     35  O   UNL     1      -1.141   3.022   0.047  0.00  0.00    -0.485 OA
ENDBRANCH  23  26
ENDBRANCH  21  23
ENDBRANCH   5  21
TORSDOF 5
