REMARK  Name = ZINC63146597
REMARK  6 active torsions:
REMARK  status: ('A' for Active; 'I' for Inactive)
REMARK    1  A    between atoms: C_1  and  C_2
REMARK    2  A    between atoms: C_5  and  C_8
REMARK    3  A    between atoms: C_8  and  N_9
REMARK    4  A    between atoms: C_10  and  C_14
REMARK    5  A    between atoms: C_17  and  N_21
REMARK    6  A    between atoms: C_19  and  N_20
REMARK                            x       y       z     vdW  Elec       q    Type
REMARK                         _______ _______ _______ _____ _____    ______ ____
ROOT
ATOM      1  N   UNL     1      -1.550  -0.626   5.490  0.00  0.00    -0.225 N 
ATOM      2  C   UNL     1      -2.011  -1.782   6.044  0.00  0.00    +0.184 A 
ATOM      3  N   UNL     1      -1.335  -1.969   7.159  0.00  0.00    -0.108 NA
ATOM      4  N   UNL     1      -0.491  -1.018   7.338  0.00  0.00    -0.023 NA
ATOM      5  N   UNL     1      -0.555  -0.169   6.371  0.00  0.00    -0.044 NA
ENDROOT
BRANCH   2   6
ATOM      6  C   UNL     1      -3.068  -2.659   5.498  0.00  0.00    +0.041 A 
ATOM      7  C   UNL     1      -4.280  -2.113   5.074  0.00  0.00    +0.015 A 
ATOM      8  C   UNL     1      -5.264  -2.932   4.566  0.00  0.00    +0.023 A 
ATOM      9  C   UNL     1      -5.053  -4.305   4.472  0.00  0.00    +0.026 A 
ATOM     10  C   UNL     1      -3.851  -4.858   4.891  0.00  0.00    +0.046 A 
ATOM     11  C   UNL     1      -2.853  -4.041   5.399  0.00  0.00    +0.037 A 
BRANCH  11  12
ATOM     12  N   UNL     1      -1.643  -4.592   5.815  0.00  0.00    -0.357 N 
ATOM     13  H   UNL     1      -0.919  -4.013   6.101  0.00  0.00    +0.142 HD
ATOM     14  H   UNL     1      -1.524  -5.555   5.818  0.00  0.00    +0.142 HD
ENDBRANCH  11  12
BRANCH   9  15
ATOM     15  N   UNL     1      -6.054  -5.128   3.956  0.00  0.00    -0.358 N 
ATOM     16  H   UNL     1      -6.895  -4.744   3.663  0.00  0.00    +0.142 HD
ATOM     17  H   UNL     1      -5.909  -6.085   3.890  0.00  0.00    +0.142 HD
ENDBRANCH   9  15
ENDBRANCH   2   6
BRANCH   1  18
ATOM     18  C   UNL     1      -1.993   0.003   4.243  0.00  0.00    +0.151 C 
BRANCH  18  23
ATOM     19  C   UNL     1       0.625   1.092   0.633  0.00  0.00    +0.007 C 
ATOM     20  C   UNL     1       0.405  -0.422   0.665  0.00  0.00    -0.014 C 
ATOM     21  C   UNL     1      -1.092  -0.722   0.570  0.00  0.00    +0.003 C 
ATOM     22  C   UNL     1      -1.818  -0.076   1.752  0.00  0.00    +0.005 C 
ATOM     23  C   UNL     1      -1.267  -0.643   3.061  0.00  0.00    +0.011 C 
ATOM     24  C   UNL     1       0.231  -0.343   3.157  0.00  0.00    +0.005 C 
ATOM     25  C   UNL     1       0.957  -0.989   1.975  0.00  0.00    +0.003 C 
ENDBRANCH  18  23
ENDBRANCH   1  18
TORSDOF 5
