REMARK  Name = ZINC14990849
REMARK  7 active torsions:
REMARK  status: ('A' for Active; 'I' for Inactive)
REMARK    1  A    between atoms: C_1  and  C_2
REMARK    2  A    between atoms: C_10  and  C_11
REMARK    3  A    between atoms: N_13  and  C_14
REMARK    4  A    between atoms: C_17  and  O_20
REMARK    5  A    between atoms: N_21  and  C_22
REMARK    6  A    between atoms: C_22  and  C_24
REMARK    7  A    between atoms: C_22  and  C_25
REMARK                            x       y       z     vdW  Elec       q    Type
REMARK                         _______ _______ _______ _____ _____    ______ ____
ROOT
ATOM      1  C   UNL     1      -0.318  -3.085  -0.595  0.00  0.00    +0.046 C 
ATOM      2  C   UNL     1      -1.501  -2.154  -0.520  0.00  0.00    -0.019 A 
ATOM      3  C   UNL     1      -2.756  -2.643  -0.134  0.00  0.00    +0.051 A 
ATOM      4  C   UNL     1      -3.136  -3.971   0.227  0.00  0.00    +0.131 A 
ATOM      5  N   UNL     1      -4.393  -4.215   0.557  0.00  0.00    -0.220 NA
ATOM      6  C   UNL     1      -5.317  -3.270   0.564  0.00  0.00    +0.224 A 
ATOM      7  N   UNL     1      -5.030  -2.024   0.239  0.00  0.00    -0.228 NA
ATOM      8  C   UNL     1      -3.802  -1.689  -0.102  0.00  0.00    +0.114 A 
ATOM      9  S   UNL     1      -2.998  -0.185  -0.594  0.00  0.00    -0.064 S 
ATOM     10  C   UNL     1      -1.352  -0.835  -0.822  0.00  0.00    +0.079 A 
ATOM     11  N   UNL     1      -2.202  -4.987   0.234  0.00  0.00    -0.321 N 
ATOM     12  H   UNL     1      -1.265  -4.785   0.087  0.00  0.00    +0.148 HD
ENDROOT
BRANCH  10  13
ATOM     13  C   UNL     1      -0.137  -0.124  -1.240  0.00  0.00    +0.251 C 
ATOM     14  O   UNL     1       0.914  -0.727  -1.347  0.00  0.00    -0.270 OA
ATOM     15  N   UNL     1      -0.187   1.197  -1.505  0.00  0.00    -0.308 N 
ATOM     16  H   UNL     1      -1.026   1.676  -1.423  0.00  0.00    +0.149 HD
BRANCH  15  17
ATOM     17  C   UNL     1       1.025   1.906  -1.922  0.00  0.00    +0.073 C 
ATOM     18  C   UNL     1       1.817   2.333  -0.684  0.00  0.00    +0.025 C 
ATOM     19  C   UNL     1       3.083   3.075  -1.120  0.00  0.00    +0.033 C 
ATOM     20  C   UNL     1       2.695   4.313  -1.930  0.00  0.00    +0.115 C 
ATOM     21  C   UNL     1       1.903   3.886  -3.167  0.00  0.00    +0.033 C 
ATOM     22  C   UNL     1       0.637   3.145  -2.732  0.00  0.00    +0.025 C 
BRANCH  20  23
ATOM     23  O   UNL     1       3.877   5.006  -2.337  0.00  0.00    -0.392 OA
ATOM     24  H   UNL     1       4.429   5.306  -1.602  0.00  0.00    +0.210 HD
ENDBRANCH  20  23
ENDBRANCH  15  17
ENDBRANCH  10  13
BRANCH  11  25
ATOM     25  C   UNL     1      -2.627  -6.370   0.461  0.00  0.00    +0.106 C 
ATOM     26  C   UNL     1      -3.077  -6.990  -0.864  0.00  0.00    +0.033 C 
BRANCH  25  27
ATOM     27  C   UNL     1      -1.475  -7.164   1.021  0.00  0.00    +0.010 A 
ATOM     28  C   UNL     1      -1.481  -8.105   1.997  0.00  0.00    +0.013 A 
ATOM     29  C   UNL     1      -0.291  -8.713   2.350  0.00  0.00    +0.008 A 
ATOM     30  C   UNL     1       0.849  -8.342   1.718  0.00  0.00    +0.045 A 
ATOM     31  S   UNL     1       0.253  -7.104   0.578  0.00  0.00    -0.100 S 
ENDBRANCH  25  27
ENDBRANCH  11  25
TORSDOF 5
