REMARK  Name = ZINC67081504
REMARK  7 active torsions:
REMARK  status: ('A' for Active; 'I' for Inactive)
REMARK    1  A    between atoms: C_1  and  C_2
REMARK    2  A    between atoms: C_6  and  C_7
REMARK    3  A    between atoms: N_9  and  N_10
REMARK    4  A    between atoms: N_13  and  C_14
REMARK    5  A    between atoms: C_14  and  C_15
REMARK    6  A    between atoms: C_18  and  O_21
REMARK    7  A    between atoms: O_21  and  C_22
REMARK                            x       y       z     vdW  Elec       q    Type
REMARK                         _______ _______ _______ _____ _____    ______ ____
ROOT
ATOM      1  N   UNL     1      -0.273  -1.035   6.834  0.00  0.00    -0.218 N 
ATOM      2  C   UNL     1       0.001  -2.118   7.588  0.00  0.00    +0.316 C 
ATOM      3  O   UNL     1       0.230  -1.990   8.775  0.00  0.00    -0.251 OA
ATOM      4  N   UNL     1       0.022  -3.342   7.026  0.00  0.00    -0.294 N 
ATOM      5  H   UNL     1      -0.288  -0.153   7.239  0.00  0.00    +0.174 HD
ATOM      6  H   UNL     1      -0.161  -3.444   6.079  0.00  0.00    +0.151 HD
ENDROOT
BRANCH   1   9
ATOM      7  C   UNL     1      -0.811  -0.099   4.713  0.00  0.00    +0.267 C 
ATOM      8  O   UNL     1      -0.830   1.007   5.220  0.00  0.00    -0.268 OA
ATOM      9  N   UNL     1      -0.537  -1.182   5.466  0.00  0.00    -0.229 N 
ATOM     10  H   UNL     1      -0.522  -2.063   5.062  0.00  0.00    +0.173 HD
BRANCH   7  16
ATOM     11  C   UNL     1      -1.477   2.181   2.696  0.00  0.00    +0.045 C 
ATOM     12  C   UNL     1      -1.388   0.719   2.340  0.00  0.00    -0.031 A 
ATOM     13  C   UNL     1      -1.595   0.266   1.058  0.00  0.00    +0.011 A 
ATOM     14  C   UNL     1      -1.499  -1.063   0.806  0.00  0.00    +0.046 A 
ATOM     15  S   UNL     1      -1.127  -1.740   2.298  0.00  0.00    -0.092 S 
ATOM     16  C   UNL     1      -1.088  -0.253   3.281  0.00  0.00    +0.078 A 
ENDBRANCH   7  16
ENDBRANCH   1   9
BRANCH   4  17
ATOM     17  C   UNL     1       0.320  -4.520   7.845  0.00  0.00    +0.141 C 
BRANCH  17  18
ATOM     18  C   UNL     1       0.280  -5.755   6.983  0.00  0.00    -0.030 A 
ATOM     19  C   UNL     1      -0.907  -6.447   6.823  0.00  0.00    +0.009 A 
ATOM     20  C   UNL     1      -0.946  -7.579   6.033  0.00  0.00    +0.046 A 
ATOM     21  C   UNL     1       0.206  -8.022   5.400  0.00  0.00    +0.128 A 
ATOM     22  C   UNL     1       1.395  -7.326   5.562  0.00  0.00    +0.046 A 
ATOM     23  C   UNL     1       1.428  -6.192   6.349  0.00  0.00    +0.009 A 
BRANCH  21  24
ATOM     24  O   UNL     1       0.170  -9.136   4.622  0.00  0.00    -0.456 OA
BRANCH  24  25
ATOM     25  C   UNL     1      -1.018  -9.781   4.486  0.00  0.00    +0.128 A 
ATOM     26  C   UNL     1      -1.883  -9.434   3.458  0.00  0.00    +0.046 A 
ATOM     27  C   UNL     1      -3.091 -10.091   3.322  0.00  0.00    +0.004 A 
ATOM     28  C   UNL     1      -3.438 -11.093   4.209  0.00  0.00    +0.000 A 
ATOM     29  C   UNL     1      -2.578 -11.440   5.235  0.00  0.00    +0.004 A 
ATOM     30  C   UNL     1      -1.366 -10.791   5.372  0.00  0.00    +0.046 A 
ENDBRANCH  24  25
ENDBRANCH  21  24
ENDBRANCH  17  18
ENDBRANCH   4  17
TORSDOF 6
