REMARK  Name = ZINC08711966
REMARK  8 active torsions:
REMARK  status: ('A' for Active; 'I' for Inactive)
REMARK    1  A    between atoms: C_1  and  C_2
REMARK    2  A    between atoms: C_5  and  C_8
REMARK    3  A    between atoms: C_11  and  C_33
REMARK    4  A    between atoms: C_16  and  C_18
REMARK    5  A    between atoms: N_20  and  C_21
REMARK    6  A    between atoms: C_24  and  C_27
REMARK    7  A    between atoms: C_27  and  C_29
REMARK    8  A    between atoms: C_27  and  O_30
REMARK                            x       y       z     vdW  Elec       q    Type
REMARK                         _______ _______ _______ _____ _____    ______ ____
ROOT
ATOM      1  C   UNL     1       0.044  -4.285  -0.044  0.00  0.00    +0.104 C 
ATOM      2  C   UNL     1       1.473  -4.783   0.197  0.00  0.00    +0.063 C 
ATOM      3  C   UNL     1       1.512  -6.313   0.125  0.00  0.00    +0.215 C 
ATOM      4  N   UNL     1       0.453  -6.855   0.981  0.00  0.00    -0.237 N 
ATOM      5  C   UNL     1      -0.627  -6.131   1.401  0.00  0.00    +0.137 A 
ATOM      6  C   UNL     1      -1.395  -6.929   2.170  0.00  0.00    +0.112 A 
ATOM      7  C   UNL     1      -0.770  -8.196   2.228  0.00  0.00    +0.167 A 
ATOM      8  N   UNL     1       0.339  -8.140   1.510  0.00  0.00    -0.163 NA
ATOM      9 CL   UNL     1      -2.881  -6.483   2.948  0.00  0.00    -0.078 Cl
ATOM     10  N   UNL     1      -0.824  -4.794   1.036  0.00  0.00    -0.321 N 
ATOM     11  H   UNL     1      -1.486  -4.234   1.470  0.00  0.00    +0.148 HD
ENDROOT
BRANCH   1  16
ATOM     12  C   UNL     1      -0.029   1.494  -0.029  0.00  0.00    +0.044 C 
ATOM     13  C   UNL     1      -0.010  -0.013  -0.033  0.00  0.00    -0.050 A 
ATOM     14  C   UNL     1      -0.015  -0.701  -1.232  0.00  0.00    +0.004 A 
ATOM     15  C   UNL     1       0.002  -2.083  -1.235  0.00  0.00    +0.006 A 
ATOM     16  C   UNL     1       0.025  -2.778  -0.040  0.00  0.00    -0.027 A 
ATOM     17  C   UNL     1       0.032  -2.090   1.159  0.00  0.00    +0.006 A 
ATOM     18  C   UNL     1       0.018  -0.707   1.162  0.00  0.00    +0.004 A 
ENDBRANCH   1  16
BRANCH   7  19
ATOM     19  C   UNL     1      -1.268  -9.376   2.962  0.00  0.00    +0.270 C 
ATOM     20  O   UNL     1      -2.307  -9.306   3.591  0.00  0.00    -0.268 OA
ATOM     21  N   UNL     1      -0.572 -10.530   2.936  0.00  0.00    -0.280 N 
ATOM     22  H   UNL     1       0.220 -10.606   2.381  0.00  0.00    +0.155 HD
BRANCH  21  23
ATOM     23  C   UNL     1      -0.992 -11.617   3.708  0.00  0.00    +0.034 A 
ATOM     24  C   UNL     1      -0.054 -12.463   4.287  0.00  0.00    +0.023 A 
ATOM     25  C   UNL     1      -0.472 -13.536   5.049  0.00  0.00    +0.008 A 
ATOM     26  C   UNL     1      -1.823 -13.769   5.237  0.00  0.00    -0.019 A 
ATOM     27  C   UNL     1      -2.759 -12.929   4.662  0.00  0.00    +0.008 A 
ATOM     28  C   UNL     1      -2.347 -11.851   3.903  0.00  0.00    +0.023 A 
BRANCH  26  29
ATOM     29  C   UNL     1      -2.275 -14.941   6.069  0.00  0.00    +0.141 C 
ATOM     30  C   UNL     1      -2.647 -14.457   7.472  0.00  0.00    +0.043 C 
BRANCH  29  31
ATOM     31  O   UNL     1      -3.414 -15.548   5.457  0.00  0.00    -0.387 OA
ATOM     32  H   UNL     1      -3.760 -16.311   5.940  0.00  0.00    +0.210 HD
ENDBRANCH  29  31
ENDBRANCH  26  29
ENDBRANCH  21  23
ENDBRANCH   7  19
BRANCH   3  33
ATOM     33  C   UNL     1       2.873  -6.815   0.610  0.00  0.00    +0.412 C 
ATOM     34  F   UNL     1       3.077  -6.406   1.933  0.00  0.00    -0.168 F 
ATOM     35  F   UNL     1       2.906  -8.212   0.544  0.00  0.00    -0.168 F 
ATOM     36  F   UNL     1       3.882  -6.285  -0.202  0.00  0.00    -0.168 F 
ENDBRANCH   3  33
TORSDOF 6
