REMARK  Name = ZINC63530470
REMARK  6 active torsions:
REMARK  status: ('A' for Active; 'I' for Inactive)
REMARK    1  A    between atoms: C_1  and  C_2
REMARK    2  A    between atoms: C_2  and  C_4
REMARK    3  A    between atoms: C_2  and  N_14
REMARK    4  A    between atoms: C_15  and  C_17
REMARK    5  A    between atoms: C_19  and  S_27
REMARK    6  A    between atoms: S_27  and  C_28
REMARK                            x       y       z     vdW  Elec       q    Type
REMARK                         _______ _______ _______ _____ _____    ______ ____
ROOT
ATOM      1  C   UNL     1       0.674  -0.912  -3.030  0.00  0.00    +0.204 C 
ATOM      2  C   UNL     1       0.799  -2.389  -3.333  0.00  0.00    +0.030 C 
ATOM      3  C   UNL     1       0.085  -2.594  -4.509  0.00  0.00    +0.010 A 
ATOM      4  C   UNL     1      -0.164  -3.748  -5.283  0.00  0.00    +0.011 A 
ATOM      5  C   UNL     1      -0.913  -3.653  -6.413  0.00  0.00    +0.001 A 
ATOM      6  C   UNL     1      -1.448  -2.435  -6.833  0.00  0.00    +0.002 A 
ATOM      7  C   UNL     1      -1.248  -1.287  -6.138  0.00  0.00    +0.026 A 
ATOM      8  C   UNL     1      -0.478  -1.308  -4.948  0.00  0.00    +0.044 A 
ATOM      9  N   UNL     1      -0.143  -0.345  -4.107  0.00  0.00    -0.369 N 
ATOM     10  H   UNL     1      -0.397   0.588  -4.189  0.00  0.00    +0.161 HD
ENDROOT
BRANCH   1  12
ATOM     11  N   UNL     1       0.699  -0.824  -0.558  0.00  0.00    -0.307 N 
ATOM     12  C   UNL     1      -0.007  -0.711  -1.701  0.00  0.00    +0.241 C 
ATOM     13  O   UNL     1      -1.190  -0.447  -1.659  0.00  0.00    -0.273 OA
ATOM     14  H   UNL     1       1.645  -1.035  -0.591  0.00  0.00    +0.149 HD
BRANCH  11  16
ATOM     15  C   UNL     1       0.009   0.864   1.071  0.00  0.00    +0.033 C 
ATOM     16  C   UNL     1       0.037  -0.628   0.734  0.00  0.00    +0.100 C 
BRANCH  16  17
ATOM     17  C   UNL     1       0.795  -1.371   1.804  0.00  0.00    -0.024 A 
ATOM     18  C   UNL     1       2.177  -1.372   1.796  0.00  0.00    +0.009 A 
ATOM     19  C   UNL     1       2.876  -2.053   2.775  0.00  0.00    +0.050 A 
ATOM     20  C   UNL     1       2.191  -2.737   3.769  0.00  0.00    +0.162 A 
ATOM     21  C   UNL     1       0.801  -2.733   3.778  0.00  0.00    +0.162 A 
ATOM     22  C   UNL     1       0.106  -2.044   2.795  0.00  0.00    +0.055 A 
ATOM     23  O   UNL     1       0.110  -3.392   4.748  0.00  0.00    -0.485 OA
ATOM     24  C   UNL     1       0.832  -4.372   5.502  0.00  0.00    +0.270 C 
ATOM     25  C   UNL     1       2.180  -3.764   5.913  0.00  0.00    +0.270 C 
ATOM     26  O   UNL     1       2.892  -3.406   4.724  0.00  0.00    -0.485 OA
ENDBRANCH  16  17
ENDBRANCH  11  16
ENDBRANCH   1  12
BRANCH   2  27
ATOM     27  S   UNL     1       1.619  -3.529  -2.446  0.00  0.00    -0.091 S 
BRANCH  27  28
ATOM     28  C   UNL     1       3.312  -3.080  -2.639  0.00  0.00    +0.013 A 
ATOM     29  C   UNL     1       3.667  -2.058  -3.510  0.00  0.00    +0.016 A 
ATOM     30  C   UNL     1       4.995  -1.709  -3.659  0.00  0.00    +0.021 A 
ATOM     31  C   UNL     1       5.972  -2.377  -2.941  0.00  0.00    +0.041 A 
ATOM     32  C   UNL     1       5.621  -3.395  -2.071  0.00  0.00    +0.021 A 
ATOM     33  C   UNL     1       4.295  -3.744  -1.914  0.00  0.00    +0.016 A 
ATOM     34 CL   UNL     1       7.640  -1.936  -3.131  0.00  0.00    -0.084 Cl
ENDBRANCH  27  28
ENDBRANCH   2  27
TORSDOF 5
