REMARK  Name = ZINC09113314
REMARK  8 active torsions:
REMARK  status: ('A' for Active; 'I' for Inactive)
REMARK    1  A    between atoms: C_4  and  C_7
REMARK    2  A    between atoms: C_7  and  O_8
REMARK    3  A    between atoms: O_8  and  C_9
REMARK    4  A    between atoms: C_18  and  C_30
REMARK    5  A    between atoms: C_20  and  C_26
REMARK    6  A    between atoms: C_20  and  C_28
REMARK    7  A    between atoms: C_21  and  N_25
REMARK    8  A    between atoms: C_22  and  C_23
REMARK                            x       y       z     vdW  Elec       q    Type
REMARK                         _______ _______ _______ _____ _____    ______ ____
ROOT
ATOM      1  C   UNL     1       5.460   1.212  -0.132  0.00  0.00    +0.403 C 
ATOM      2  O   UNL     1       5.559   2.400   0.103  0.00  0.00    -0.226 OA
ATOM      3  N   UNL     1       4.438   0.756  -0.883  0.00  0.00    -0.263 N 
ATOM      4  C   UNL     1       4.289  -0.679  -1.187  0.00  0.00    +0.138 C 
ATOM      5  C   UNL     1       2.918  -1.091  -0.713  0.00  0.00    -0.003 C 
ATOM      6  C   UNL     1       1.925  -0.225  -0.661  0.00  0.00    -0.026 C 
ATOM      7  C   UNL     1       2.031   1.210  -1.085  0.00  0.00    +0.048 C 
ATOM      8  C   UNL     1       3.428   1.666  -1.433  0.00  0.00    +0.120 C 
ATOM      9  C   UNL     1       1.395   2.080  -0.000  0.00  0.00    +0.068 C 
ATOM     10  C   UNL     1      -0.093   1.738   0.098  0.00  0.00    +0.188 C 
ATOM     11  C   UNL     1      -0.315   0.260   0.217  0.00  0.00    +0.054 C 
ATOM     12  C   UNL     1       0.604  -0.671  -0.141  0.00  0.00    +0.074 C 
ENDROOT
BRANCH   9  13
ATOM     13  C   UNL     1       2.064   1.807   1.322  0.00  0.00    -0.039 A 
ATOM     14  C   UNL     1       3.087   2.627   1.761  0.00  0.00    +0.004 A 
ATOM     15  C   UNL     1       3.699   2.380   2.976  0.00  0.00    +0.002 A 
ATOM     16  C   UNL     1       3.293   1.308   3.749  0.00  0.00    +0.020 A 
ATOM     17  C   UNL     1       2.273   0.485   3.308  0.00  0.00    +0.041 A 
ATOM     18  C   UNL     1       1.658   0.735   2.094  0.00  0.00    +0.024 A 
ATOM     19 CL   UNL     1       1.764  -0.862   4.278  0.00  0.00    -0.084 Cl
ENDBRANCH   9  13
BRANCH  11  20
ATOM     20  N   UNL     1      -1.512  -0.174   0.715  0.00  0.00    -0.358 N 
ATOM     21  H   UNL     1      -1.708  -1.251   0.815  0.00  0.00    +0.142 HD
ATOM     22  H   UNL     1      -2.279   0.555   1.015  0.00  0.00    +0.142 HD
ENDBRANCH  11  20
BRANCH  12  23
ATOM     23  C   UNL     1       0.308  -2.066  -0.019  0.00  0.00    +0.101 C 
ATOM     24  N   UNL     1       0.072  -3.173   0.078  0.00  0.00    -0.191 NA
ENDBRANCH  12  23
BRANCH  10  25
ATOM     25  C   UNL     1      -0.779   2.231  -1.107  0.00  0.00    +0.091 C 
ATOM     26  N   UNL     1      -1.309   2.611  -2.037  0.00  0.00    -0.194 NA
ENDBRANCH  10  25
BRANCH  10  27
ATOM     27  C   UNL     1      -0.662   2.405   1.280  0.00  0.00    +0.091 C 
ATOM     28  N   UNL     1      -1.101   2.921   2.192  0.00  0.00    -0.194 NA
ENDBRANCH  10  27
BRANCH   1  29
ATOM     29  O   UNL     1       6.372   0.351   0.359  0.00  0.00    -0.445 OA
BRANCH  29  30
ATOM     30  C   UNL     1       7.444   0.912   1.160  0.00  0.00    +0.269 C 
BRANCH  30  34
ATOM     31  C   UNL     1      10.041  -2.220   2.461  0.00  0.00    +0.000 A 
ATOM     32  C   UNL     1      10.284  -1.574   1.263  0.00  0.00    +0.000 A 
ATOM     33  C   UNL     1       9.444  -0.560   0.842  0.00  0.00    +0.007 A 
ATOM     34  C   UNL     1       8.360  -0.193   1.619  0.00  0.00    -0.010 A 
ATOM     35  C   UNL     1       8.120  -0.836   2.819  0.00  0.00    +0.007 A 
ATOM     36  C   UNL     1       8.958  -1.853   3.237  0.00  0.00    +0.000 A 
ENDBRANCH  30  34
ENDBRANCH  29  30
ENDBRANCH   1  29
TORSDOF 8
