REMARK  Name = ZINC39198218
REMARK  5 active torsions:
REMARK  status: ('A' for Active; 'I' for Inactive)
REMARK    1  A    between atoms: C_4  and  C_7
REMARK    2  A    between atoms: C_8  and  C_16
REMARK    3  A    between atoms: C_16  and  N_17
REMARK    4  A    between atoms: C_20  and  C_23
REMARK    5  A    between atoms: N_25  and  C_26
REMARK                            x       y       z     vdW  Elec       q    Type
REMARK                         _______ _______ _______ _____ _____    ______ ____
ROOT
ATOM      1  N   UNL     1       3.030  -1.843   2.861  0.00  0.00    +0.383 N 
ATOM      2  C   UNL     1       2.426  -0.505   2.825  0.00  0.00    -0.078 C 
ATOM      3  C   UNL     1       2.557   0.155   4.199  0.00  0.00    -0.006 C 
ATOM      4  C   UNL     1       1.838  -0.705   5.243  0.00  0.00    +0.072 C 
ATOM      5  C   UNL     1       2.426  -2.118   5.220  0.00  0.00    -0.006 C 
ATOM      6  C   UNL     1       2.300  -2.694   3.808  0.00  0.00    -0.078 C 
ATOM      7  H   UNL     1       3.993  -1.767   3.152  0.00  0.00    -0.081 HD
ENDROOT
BRANCH   4   8
ATOM      8  C   UNL     1       2.029  -0.101   6.611  0.00  0.00    +0.220 C 
ATOM      9  O   UNL     1       2.677   0.916   6.740  0.00  0.00    -0.275 OA
ATOM     10  N   UNL     1       1.481  -0.692   7.691  0.00  0.00    -0.285 N 
ATOM     11  H   UNL     1       1.027  -1.545   7.599  0.00  0.00    +0.155 HD
BRANCH  10  12
ATOM     12  C   UNL     1       1.565  -0.076   8.944  0.00  0.00    +0.037 A 
ATOM     13  C   UNL     1       1.804   1.287   9.027  0.00  0.00    +0.023 A 
ATOM     14  C   UNL     1       1.888   1.893  10.265  0.00  0.00    +0.002 A 
ATOM     15  C   UNL     1       1.737   1.138  11.411  0.00  0.00    +0.004 A 
ATOM     16  C   UNL     1       1.500  -0.228  11.334  0.00  0.00    -0.042 A 
ATOM     17  C   UNL     1       1.404  -0.836  10.103  0.00  0.00    -0.023 A 
ATOM     18  C   UNL     1       1.126  -2.308   9.944  0.00  0.00    +0.037 C 
ATOM     19  C   UNL     1       1.402  -3.051  11.249  0.00  0.00    +0.005 C 
ATOM     20  C   UNL     1       0.660  -2.332  12.382  0.00  0.00    +0.005 C 
ATOM     21  C   UNL     1       1.354  -0.989  12.626  0.00  0.00    +0.035 C 
ENDBRANCH  10  12
ENDBRANCH   4   8
BRANCH   1  22
ATOM     22  C   UNL     1       2.971  -2.441   1.520  0.00  0.00    -0.022 C 
BRANCH  22  24
ATOM     23  C   UNL     1       3.389  -0.653  -0.267  0.00  0.00    +0.091 A 
ATOM     24  C   UNL     1       3.821  -1.635   0.573  0.00  0.00    +0.035 A 
ATOM     25  N   UNL     1       5.171  -1.752   0.393  0.00  0.00    -0.305 N 
ATOM     26  C   UNL     1       6.108  -2.565   0.963  0.00  0.00    +0.093 A 
ATOM     27  C   UNL     1       7.405  -2.478   0.601  0.00  0.00    +0.018 A 
ATOM     28  C   UNL     1       7.810  -1.546  -0.369  0.00  0.00    +0.005 A 
ATOM     29  C   UNL     1       6.887  -0.730  -0.945  0.00  0.00    +0.047 A 
ATOM     30  C   UNL     1       5.535  -0.832  -0.557  0.00  0.00    +0.138 A 
ATOM     31  N   UNL     1       4.448  -0.184  -0.947  0.00  0.00    -0.228 NA
BRANCH  23  35
ATOM     32  C   UNL     1      -0.626   0.687  -0.676  0.00  0.00    +0.000 A 
ATOM     33  C   UNL     1       0.406   1.607  -0.631  0.00  0.00    +0.001 A 
ATOM     34  C   UNL     1       1.711   1.177  -0.498  0.00  0.00    +0.010 A 
ATOM     35  C   UNL     1       1.988  -0.185  -0.409  0.00  0.00    +0.002 A 
ATOM     36  C   UNL     1       0.945  -1.108  -0.455  0.00  0.00    +0.010 A 
ATOM     37  C   UNL     1      -0.357  -0.667  -0.589  0.00  0.00    +0.001 A 
ENDBRANCH  23  35
ENDBRANCH  22  24
ENDBRANCH   1  22
TORSDOF 5
