REMARK  Name = ZINC14651226
REMARK  13 active torsions:
REMARK  status: ('A' for Active; 'I' for Inactive)
REMARK    1  A    between atoms: C_1  and  C_2
REMARK    2  A    between atoms: C_2  and  C_3
REMARK    3  A    between atoms: C_2  and  C_4
REMARK    4  A    between atoms: C_4  and  C_5
REMARK    5  A    between atoms: C_5  and  O_6
REMARK    6  A    between atoms: O_6  and  C_7
REMARK    7  A    between atoms: C_12  and  C_13
REMARK    8  A    between atoms: N_15  and  C_16
REMARK    9  A    between atoms: C_16  and  N_18
REMARK   10  A    between atoms: N_18  and  N_19
REMARK   11  A    between atoms: C_20  and  C_22
REMARK   12  A    between atoms: C_25  and  O_28
REMARK   13  A    between atoms: O_28  and  C_29
REMARK                            x       y       z     vdW  Elec       q    Type
REMARK                         _______ _______ _______ _____ _____    ______ ____
ROOT
ATOM      1  C   UNL     1       2.416   3.950  -0.001  0.00  0.00    +0.253 C 
ATOM      2  O   UNL     1       3.481   3.365  -0.014  0.00  0.00    -0.270 OA
ATOM      3  N   UNL     1       2.388   5.298   0.006  0.00  0.00    -0.263 N 
ATOM      4  H   UNL     1       1.538   5.765   0.017  0.00  0.00    +0.157 HD
ENDROOT
BRANCH   1  10
ATOM      5  C   UNL     1       1.180   1.785   0.000  0.00  0.00    +0.133 A 
ATOM      6  C   UNL     1      -0.013   1.076   0.008  0.00  0.00    +0.047 A 
ATOM      7  C   UNL     1      -1.218   1.749   0.017  0.00  0.00    +0.019 A 
ATOM      8  C   UNL     1      -1.247   3.135   0.030  0.00  0.00    +0.019 A 
ATOM      9  C   UNL     1      -0.072   3.855   0.022  0.00  0.00    +0.032 A 
ATOM     10  C   UNL     1       1.155   3.186   0.008  0.00  0.00    +0.080 A 
ATOM     11 BR   UNL     1      -2.907   4.041   0.050  0.00  0.00    -0.050 Br
BRANCH   5  12
ATOM     12  O   UNL     1       2.365   1.124  -0.015  0.00  0.00    -0.491 OA
BRANCH  12  13
ATOM     13  C   UNL     1       2.312  -0.304  -0.022  0.00  0.00    +0.229 C 
BRANCH  13  14
ATOM     14  C   UNL     1       3.734  -0.867  -0.038  0.00  0.00    +0.044 C 
BRANCH  14  16
ATOM     15  C   UNL     1       3.037  -2.876  -1.350  0.00  0.00    +0.007 C 
ATOM     16  C   UNL     1       3.677  -2.396  -0.046  0.00  0.00    -0.014 C 
ATOM     17  C   UNL     1       5.095  -2.959   0.063  0.00  0.00    +0.007 C 
ENDBRANCH  14  16
ENDBRANCH  13  14
ENDBRANCH  12  13
ENDBRANCH   5  12
ENDBRANCH   1  10
BRANCH   3  18
ATOM     18  C   UNL     1       3.540   5.996  -0.001  0.00  0.00    +0.153 C 
ATOM     19  S   UNL     1       5.041   5.171  -0.020  0.00  0.00    -0.017 S 
BRANCH  18  20
ATOM     20  N   UNL     1       3.512   7.343   0.006  0.00  0.00    -0.245 N 
ATOM     21  H   UNL     1       4.342   7.846   0.000  0.00  0.00    +0.172 HD
BRANCH  20  22
ATOM     22  N   UNL     1       2.284   8.018   0.021  0.00  0.00    -0.231 N 
ATOM     23  C   UNL     1       2.256   9.365   0.028  0.00  0.00    +0.260 C 
ATOM     24  O   UNL     1       3.296   9.995   0.021  0.00  0.00    -0.269 OA
ATOM     25  H   UNL     1       1.455   7.515   0.027  0.00  0.00    +0.173 HD
BRANCH  23  26
ATOM     26  C   UNL     1       0.963  10.076   0.044  0.00  0.00    +0.038 A 
ATOM     27  C   UNL     1      -0.234   9.354   0.046  0.00  0.00    +0.016 A 
ATOM     28  C   UNL     1      -1.438  10.021   0.066  0.00  0.00    +0.046 A 
ATOM     29  C   UNL     1      -1.465  11.411   0.073  0.00  0.00    +0.120 A 
ATOM     30  C   UNL     1      -0.278  12.133   0.066  0.00  0.00    +0.046 A 
ATOM     31  C   UNL     1       0.931  11.473   0.052  0.00  0.00    +0.016 A 
BRANCH  29  32
ATOM     32  O   UNL     1      -2.655  12.065   0.088  0.00  0.00    -0.495 OA
ATOM     33  C   UNL     1      -3.836  11.261   0.094  0.00  0.00    +0.277 C 
ENDBRANCH  29  32
ENDBRANCH  23  26
ENDBRANCH  20  22
ENDBRANCH  18  20
ENDBRANCH   3  18
TORSDOF 10
